data_mof_unit_49834.cif
_audit_creation_date              2013-03-05T16:34:21-0500
_audit_creation_method            fapswitch 2.2
_symmetry_space_group_name_H-M    P1
_symmetry_Int_Tables_number       1
_space_group_crystal_system       triclinic
_cell_length_a                    19.050819
_cell_length_b                    18.631021
_cell_length_c                    19.135158
_cell_angle_alpha                 109.39448
_cell_angle_beta                  110.530692
_cell_angle_gamma                 109.280916
_cell_volume                      5175.97299201

loop_
_atom_site_label
_atom_site_type_symbol
_atom_site_description
_atom_site_fract_x
_atom_site_fract_y
_atom_site_fract_z
_atom_type_partial_charge
O1    O     O_R   0.409800 0.552180 0.462000 -0.600323
O2    O     O_R   0.409830 0.447810 0.357640 -0.526189
C1    C     C_R   0.384877 0.504273 0.381730 0.858991
O3    O     O_R   0.590160 0.642370 0.552180 -0.607198
O4    O     O_R   0.590190 0.537990 0.447820 -0.549372
C2    C     C_R   0.619663 0.620259 0.502172 0.769034
Cu1   Cu    Cu3+1 0.499980 0.561800 0.561790 1.046184
Cu2   Cu    Cu3+1 0.500020 0.438200 0.438210 1.174330
O5    O     O_R   0.590170 0.552190 0.642360 -0.577773
O6    O     O_R   0.590200 0.447820 0.538000 -0.554285
O7    O     O_R   0.409810 0.462010 0.552180 -0.576696
O8    O     O_R   0.409840 0.357630 0.447820 -0.519528
C3    C     C_R   0.618397 0.499835 0.618228 0.783506
C4    C     C_R   0.379811 0.380487 0.497777 0.830258
C5    C     C_R   0.714015 0.854168 0.759958 -0.115883
H1    H     H_    0.667853 0.871934 0.768918 0.207019
C6    C     C_R   0.704422 0.821732 0.678025 -0.091180
H2    H     H_    0.652307 0.816755 0.625901 0.144767
C7    C     C_R   0.761782 0.796158 0.663301 0.096262
C8    C     C_R   0.832126 0.808832 0.733277 -0.181827
H3    H     H_    0.879861 0.794262 0.724745 0.181172
C9    C     C_R   0.842673 0.842634 0.815567 -0.164782
H4    H     H_    0.898160 0.852806 0.868518 0.217167
C10   C     C_R   0.783161 0.864563 0.829601 0.014217
C11   C     C_R   0.820230 0.823942 0.573291 -0.185307
H5    H     H_    0.876620 0.882284 0.632607 0.171624
C12   C     C_R   0.811728 0.810214 0.493817 0.005304
C13   C     C_R   0.734228 0.738724 0.415329 0.091067
C14   C     C_R   0.670231 0.677614 0.419317 -0.015735
C15   C     C_R   0.682105 0.690385 0.500404 -0.103219
C16   C     C_R   0.754478 0.767770 0.577643 0.002876
C17   C     C_R   0.681275 0.769935 0.293660 -0.055617
C18   C     C_R   0.644353 0.739667 0.204924 -0.191345
H6    H     H_    0.616864 0.773685 0.178632 0.235022
C19   C     C_R   0.631945 0.660371 0.147672 -0.136355
C20   C     C_R   0.666227 0.614567 0.180783 0.266792
C21   C     C_R   0.714490 0.650254 0.271657 0.275182
C22   C     C_R   0.716821 0.724882 0.327937 -0.170838
H7    H     H_    0.580790 0.921178 0.539647 0.172782
C23   C     C_R   0.487579 0.805461 0.524759 -0.129444
H8    H     H_    0.505430 0.840010 0.591696 0.213865
C24   C     C_R   0.418118 0.718158 0.467411 -0.033618
C25   C     C_R   0.398754 0.673615 0.380437 -0.073410
C26   C     C_R   0.441558 0.724232 0.350508 0.382196
C27   C     C_R   0.504741 0.813569 0.408733 -0.101016
H9    H     H_    0.533740 0.853913 0.386157 0.196631
C28   C     C_R   0.530348 0.852581 0.495546 -0.171967
C29   C     C_R   0.254699 0.576443 0.250821 -0.089184
H10   H     H_    0.258609 0.636407 0.252083 0.182854
C30   C     C_R   0.182982 0.495632 0.183226 -0.128653
C31   C     C_R   0.173134 0.416917 0.182941 -0.071738
C32   C     C_R   0.240805 0.420865 0.248375 0.319059
C33   C     C_R   0.316005 0.503522 0.315108 -0.166201
C34   C     C_R   0.322527 0.582504 0.316220 0.062330
C35   C     C_R   0.030050 0.321870 0.156058 -0.099998
H11   H     H_    0.045479 0.375456 0.214400 0.133257
C36   C     C_R   0.953096 0.241936 0.112461 -0.104066
H12   H     H_    0.909908 0.233846 0.137490 0.171421
C37   C     C_R   0.932808 0.171908 0.037808 -0.021872
H13   H     H_    0.874539 0.108948 0.005770 0.203973
C38   C     C_R   0.987761 0.182578 0.004726 -0.205153
H14   H     H_    0.970302 0.126181 0.947174 0.159728
C39   C     C_R   0.065382 0.263411 0.047053 -0.064653
C40   C     C_R   0.087871 0.333229 0.125735 0.096247
C41   C     C_R   0.219324 0.516804 0.553578 -0.149563
C42   C     C_R   0.253025 0.460023 0.553347 -0.168899
H15   H     H_    0.303939 0.474961 0.613524 0.246984
C43   C     C_R   0.215926 0.379830 0.477985 0.093437
C44   C     C_R   0.144292 0.356436 0.402121 -0.154903
H16   H     H_    0.110924 0.292297 0.344790 0.195115
C45   C     C_R   0.112998 0.413802 0.400225 -0.198252
H17   H     H_    0.057597 0.393902 0.340783 0.173415
C46   C     C_R   0.150635 0.494950 0.474615 0.413872
C47   C     C_R   0.172564 0.243788 0.481794 -0.170469
H18   H     H_    0.112955 0.243730 0.472512 0.179931
C48   C     C_R   0.187208 0.180663 0.496839 -0.040851
C49   C     C_R   0.266395 0.182358 0.512796 0.031116
C50   C     C_R   0.328497 0.246611 0.509974 -0.033697
C51   C     C_R   0.313243 0.311499 0.496298 -0.081481
C52   C     C_R   0.235261 0.310804 0.484191 0.072129
C53   C     C_R   0.326213 0.137482 0.616729 -0.083529
H19   H     H_    0.334505 0.194394 0.666439 0.180597
C54   C     C_R   0.360214 0.088258 0.640495 -0.174667
H20   H     H_    0.391922 0.106834 0.708022 0.211312
C55   C     C_R   0.352572 0.015206 0.578295 0.283133
C56   C     C_R   0.312621 0.993610 0.490760 0.198492
C57   C     C_R   0.279697 0.045200 0.466565 -0.209116
C58   C     C_R   0.285564 0.116809 0.530492 -0.011071
H21   H     H_    0.601123 0.434353 0.715954 0.215770
C59   C     C_R   0.792921 0.582528 0.654312 -0.267800
H22   H     H_    0.746766 0.595754 0.616558 0.162673
C60   C     C_R   0.874265 0.615654 0.662997 -0.104302
C61   C     C_R   0.934886 0.598033 0.709510 0.242848
C62   C     C_R   0.914289 0.548805 0.749197 0.241720
C63   C     C_R   0.834673 0.524690 0.750232 -0.065527
C64   C     C_R   0.771716 0.536307 0.695778 0.031301
C65   C     C_R   0.687929 0.501973 0.683546 -0.093136
C66   C     C_R   0.666442 0.460860 0.727104 -0.230617
C67   C     C_R   0.727553 0.454371 0.786098 0.308919
C68   C     C_R   0.813886 0.489397 0.801929 -0.186824
O9    O     O_R   0.052200 0.909800 0.461980 -0.607553
O10   O     O_R   0.947810 0.909820 0.357620 -0.525016
C69   C     C_R   0.000425 0.880703 0.381137 0.814108
O11   O     O_R   0.962020 0.909790 0.552160 -0.593705
O12   O     O_R   0.857630 0.909810 0.447800 -0.576356
C70   C     C_R   0.880663 0.877516 0.495967 0.792337
Cu3   Cu    Cu3+1 0.061810 0.999960 0.561770 0.994245
Cu4   Cu    Cu3+1 0.938190 0.999990 0.438190 1.139207
O13   O     O_R   0.052190 0.090140 0.642340 -0.599244
O14   O     O_R   0.947800 0.090160 0.537980 -0.521571
O15   O     O_R   0.142370 0.090150 0.552150 -0.600837
O16   O     O_R   0.037980 0.090170 0.447800 -0.557720
C71   C     C_R   0.000931 0.119394 0.618808 0.819991
C72   C     C_R   0.119110 0.115939 0.497713 0.815639
O17   O     O_R   0.052180 0.461950 0.909820 -0.512911
O18   O     O_R   0.947800 0.357590 0.909850 -0.616589
C73   C     C_R   0.999262 0.380103 0.881309 0.840931
O19   O     O_R   0.142360 0.552150 0.090150 -0.550045
O20   O     O_R   0.037980 0.447790 0.090180 -0.586700
C74   C     C_R   0.118015 0.497244 0.116458 0.810091
Cu5   Cu    Cu3+1 0.061790 0.561750 0.999970 1.173597
Cu6   Cu    Cu3+1 0.938180 0.438170 0.000010 1.118073
O21   O     O_R   0.052170 0.642340 0.090130 -0.569541
O22   O     O_R   0.947790 0.537980 0.090160 -0.497043
O23   O     O_R   0.962000 0.552140 0.909800 -0.570556
O24   O     O_R   0.857610 0.447780 0.909830 -0.537318
C75   C     C_R   0.001904 0.619701 0.118958 0.794769
C76   C     C_R   0.881025 0.495429 0.876363 0.812125
H23   H     H_    0.076378 0.711586 0.604503 0.255214
C77   C     C_R   0.131179 0.798924 0.563289 -0.019071
C78   C     C_R   0.120303 0.810177 0.491879 -0.064786
H24   H     H_    0.169792 0.867625 0.500270 0.187903
C79   C     C_R   0.045087 0.748307 0.409422 -0.054209
C80   C     C_R   0.984065 0.669444 0.397251 0.349555
C81   C     C_R   0.996182 0.658794 0.469053 -0.034022
H25   H     H_    0.949551 0.599984 0.461500 0.227312
C82   C     C_R   0.068741 0.722483 0.550829 -0.160748
C83   C     C_R   0.042022 0.701017 0.270834 0.005474
C84   C     C_R   0.008428 0.690307 0.187638 -0.093218
C85   C     C_R   0.984111 0.749126 0.170608 -0.010697
C86   C     C_R   0.982154 0.811773 0.234311 0.352436
C87   C     C_R   0.005374 0.816166 0.315392 -0.186352
C88   C     C_R   0.035880 0.760182 0.333650 -0.011804
C89   C     C_R   0.019170 0.784246 0.065981 0.340054
C90   C     C_R   0.993237 0.770965 0.981490 -0.075300
C91   C     C_R   0.904934 0.723277 0.918788 -0.245329
H26   H     H_    0.883653 0.712486 0.853963 0.181641
C92   C     C_R   0.842555 0.686959 0.937367 -0.158602
H27   H     H_    0.775042 0.650859 0.886309 0.202365
C93   C     C_R   0.866095 0.693949 0.018504 -0.049016
C94   C     C_R   0.955786 0.741938 0.083698 -0.081265
H28   H     H_    0.392442 0.291772 0.831242 0.230092
C95   C     C_R   0.278269 0.236892 0.837831 -0.056482
C96   C     C_R   0.196887 0.228750 0.816076 -0.107141
H29   H     H_    0.156820 0.191134 0.833582 0.234986
C97   C     C_R   0.165492 0.267705 0.771074 -0.041084
C98   C     C_R   0.216272 0.315213 0.745559 -0.077824
C99   C     C_R   0.299682 0.324282 0.768059 0.289241
C100  C     C_R   0.329409 0.285568 0.814620 -0.221124
C101  C     C_R   0.080051 0.325500 0.821292 -0.039733
C102  C     C_R   0.999809 0.311409 0.815932 -0.129172
C103  C     C_R   0.921089 0.232265 0.747850 -0.016868
C104  C     C_R   0.922841 0.169072 0.684527 0.005283
C105  C     C_R   0.001305 0.185446 0.686715 -0.108420
C106  C     C_R   0.080764 0.261376 0.757119 -0.004698
C107  C     C_R   0.815116 0.172131 0.788954 -0.160781
H30   H     H_    0.861434 0.159701 0.827799 0.165564
C108  C     C_R   0.735144 0.147649 0.784905 0.351198
C109  C     C_R   0.676409 0.165253 0.735485 -0.127873
H31   H     H_    0.614435 0.147467 0.731546 0.221516
C110  C     C_R   0.695273 0.202786 0.687738 -0.201992
H32   H     H_    0.646708 0.212318 0.647864 0.209890
C111  C     C_R   0.773502 0.224219 0.688211 -0.040709
C112  C     C_R   0.836084 0.211971 0.742772 -0.012789
C113  C     C_2   0.794151 0.899048 0.916896 0.854556
O25   O     O_2   0.743446 0.919985 0.929684 -0.527357
O26   O     O_R   0.862533 0.907441 0.984958 -0.735467
H33   H     H_    0.862977 0.931282 0.041166 0.377513
C114  C     C_2   0.578569 0.625186 0.053280 0.917456
O27   O     O_2   0.577479 0.676101 0.026274 -0.519206
O28   O     O_R   0.527163 0.534342 0.995158 -0.686351
H34   H     H_    0.491777 0.519594 0.933500 0.380673
N1    N     N_R   0.645630 0.528638 0.122412 0.180748
O29   O     O_R   0.703889 0.517182 0.107906 -0.197754
O30   O     O_R   0.572854 0.460025 0.094151 -0.211232
N2    N     N_R   0.751105 0.604777 0.306770 0.178565
O31   O     O_R   0.715537 0.519439 0.263566 -0.172839
O32   O     O_R   0.817116 0.648096 0.385354 -0.374139
C115  C     C_2   0.362689 0.681165 0.499291 0.975043
O33   O     O_2   0.288596 0.618647 0.448765 -0.572218
O34   O     O_R   0.394959 0.720555 0.588293 -0.728457
H35   H     H_    0.350187 0.693650 0.602348 0.361808
N3    N     N_R   0.418468 0.689046 0.260831 0.123776
O35   O     O_R   0.386221 0.605613 0.209501 -0.346422
O36   O     O_R   0.434455 0.742036 0.230897 -0.303909
N4    N     N_R   0.231240 0.341018 0.248956 0.127241
O37   O     O_R   0.216612 0.274981 0.182655 -0.284880
O38   O     O_R   0.242417 0.335890 0.317713 -0.401010
C116  C     C_2   0.121974 0.271361 0.009236 0.952472
O39   O     O_2   0.200479 0.320656 0.055945 -0.470140
O40   O     O_R   0.087312 0.222508 0.920148 -0.763103
H36   H     H_    0.021875 0.192534 0.884114 0.280019
N5    N     N_R   0.118997 0.553881 0.467890 0.144268
O41   O     O_R   0.173059 0.638173 0.508192 -0.301905
O42   O     O_R   0.039554 0.522133 0.408288 -0.344983
C117  C     C_2   0.251060 0.592283 0.638348 0.865871
O43   O     O_2   0.204102 0.621108 0.648445 -0.463653
O44   O     O_R   0.333966 0.628219 0.708256 -0.723268
H37   H     H_    0.347871 0.678374 0.762811 0.382513
C118  C     C_2   0.411036 0.247527 0.525754 0.805079
O45   O     O_2   0.424827 0.226433 0.466405 -0.521506
O46   O     O_R   0.470569 0.268045 0.607452 -0.724836
H38   H     H_    0.522643 0.263358 0.609297 0.351583
N6    N     N_R   0.383913 0.962584 0.604558 0.147307
O47   O     O_R   0.447682 0.998142 0.682898 -0.305450
O48   O     O_R   0.342210 0.877323 0.554560 -0.282327
N7    N     N_R   0.308266 0.921483 0.427355 0.187727
O49   O     O_R   0.233972 0.858252 0.358368 -0.302172
O50   O     O_R   0.378610 0.918975 0.438271 -0.283018
C119  C     C_2   0.246815 0.030154 0.377133 0.958416
O51   O     O_2   0.281136 0.008595 0.337134 -0.427231
O52   O     O_R   0.179084 0.044514 0.340080 -0.744514
H39   H     H_    0.167752 0.039934 0.282535 0.397023
C120  C     C_2   0.893786 0.666450 0.620347 0.872287
O53   O     O_2   0.837671 0.644278 0.548775 -0.553655
O54   O     O_R   0.975298 0.741619 0.663309 -0.736974
H40   H     H_    0.978653 0.773826 0.629990 0.329647
N8    N     N_R   0.013526 0.620884 0.707653 0.177502
O55   O     O_R   0.010875 0.577781 0.636694 -0.299283
O56   O     O_R   0.086254 0.690015 0.773978 -0.245011
N9    N     N_R   0.966844 0.511142 0.773141 0.152120
O57   O     O_R   0.051248 0.559032 0.818256 -0.250526
O58   O     O_R   0.930473 0.427135 0.744784 -0.384484
N10   N     N_R   0.699508 0.411693 0.829164 0.155560
O59   O     O_R   0.723513 0.458480 0.909598 -0.294414
O60   O     O_R   0.634896 0.330943 0.783433 -0.329568
C121  C     C_2   0.206578 0.867387 0.651190 0.930139
O61   O     O_2   0.227234 0.849311 0.708401 -0.496971
O62   O     O_R   0.252958 0.953486 0.669648 -0.783292
H41   H     H_    0.301819 0.994512 0.732356 0.357569
N11   N     N_R   0.912203 0.598015 0.312552 0.167108
O63   O     O_R   0.874832 0.613080 0.252173 -0.290894
O64   O     O_R   0.880024 0.517228 0.296931 -0.220809
C122  C     C_2   0.083584 0.650318 0.293341 0.854607
O65   O     O_2   0.157544 0.689866 0.355248 -0.496964
O66   O     O_R   0.037531 0.558214 0.246508 -0.703151
H42   H     H_    0.072761 0.532240 0.269562 0.341749
N12   N     N_R   0.951712 0.867215 0.213861 0.127427
O67   O     O_R   0.998900 0.928210 0.204979 -0.321214
O68   O     O_R   0.870250 0.843672 0.184795 -0.321583
N13   N     N_R   0.108249 0.845592 0.134570 0.150056
O69   O     O_R   0.147926 0.923580 0.145282 -0.281550
O70   O     O_R   0.150976 0.823593 0.184827 -0.263394
C123  C     C_2   0.056660 0.802711 0.955299 0.926678
O71   O     O_2   0.129579 0.814066 0.992806 -0.474846
O72   O     O_R   0.031782 0.816603 0.885182 -0.774637
H43   H     H_    0.080127 0.837552 0.873040 0.384840
C124  C     C_2   0.794620 0.650183 0.031485 0.970407
O73   O     O_2   0.810085 0.647012 0.097572 -0.531939
O74   O     O_R   0.708228 0.610948 0.966471 -0.713515
H44   H     H_    0.665547 0.576585 0.978979 0.376917
C125  C     C_2   0.309487 0.194101 0.884608 0.915967
O75   O     O_2   0.380307 0.200253 0.902761 -0.531163
O76   O     O_R   0.257815 0.146290 0.907988 -0.723072
H45   H     H_    0.286065 0.120148 0.939364 0.369539
C126  C     C_2   0.183843 0.358852 0.700823 0.938947
O77   O     O_2   0.110450 0.317088 0.637519 -0.598186
O78   O     O_R   0.236474 0.448414 0.732584 -0.649193
H46   H     H_    0.206145 0.471010 0.698003 0.350049
N14   N     N_R   0.354368 0.369893 0.742774 0.131390
O79   O     O_R   0.320968 0.375532 0.674327 -0.394960
O80   O     O_R   0.436603 0.394839 0.780588 -0.316529
C127  C     C_2   0.164260 0.404378 0.897020 0.921199
O81   O     O_2   0.217249 0.449861 0.885735 -0.524014
O82   O     O_R   0.182231 0.427183 0.981115 -0.752543
H47   H     H_    0.241153 0.481898 0.026830 0.382499
C128  C     C_2   0.843329 0.081814 0.621046 0.815437
O83   O     O_2   0.798268 0.065156 0.547751 -0.536474
O84   O     O_R   0.819440 0.020449 0.647038 -0.787614
H48   H     H_    0.762388 0.964230 0.600124 0.334976
N15   N     N_R   0.712887 0.103276 0.829183 0.128000
O85   O     O_R   0.755577 0.066764 0.855968 -0.392001
O86   O     O_R   0.646452 0.094166 0.838300 -0.263782
C129  C     C_2   0.784875 0.255951 0.628937 0.957688
O87   O     O_2   0.837234 0.251917 0.607191 -0.506354
O88   O     O_R   0.734462 0.290291 0.596992 -0.751281
H49   H     H_    0.748466 0.310708 0.558153 0.364812
C130  C     C_2   0.586587 0.603186 0.339341 0.864511
O89   O     O_2   0.585012 0.543634 0.285553 -0.502471
O90   O     O_R   0.508840 0.596452 0.330956 -0.778069
H50   H     H_    0.456861 0.538591 0.278701 0.369932
C131  C     C_2   0.675507 0.844897 0.346511 0.953342
O91   O     O_2   0.663636 0.893820 0.320144 -0.533130
O92   O     O_R   0.682744 0.859800 0.425751 -0.796503
H51   H     H_    0.677943 0.912779 0.454523 0.343031

loop_
_geom_bond_atom_site_label_1
_geom_bond_atom_site_label_2
_geom_bond_distance
_ccdc_geom_bond_type
O9    Cu3   1.980604 S    
C23   C28   1.385663 A    
C42   C43   1.402916 A    
C57   C58   1.417934 A    
C93   C124  1.489706 S    
C77   C121  1.479825 S    
C95   C100  1.398724 A    
C61   C62   1.416255 A    
O17   Cu5   1.972304 S    
C79   C80   1.421023 A    
O17   C73   1.298367 A    
C35   C36   1.392216 A    
C109  C110  1.393392 A    
C109  H31   1.082619 S    
C124  O74   1.398628 S    
C63   C64   1.419759 A    
C32   N4    1.442151 S    
N5    O41   1.300829 A    
C7    C16   1.483689 S    
C120  O53   1.222625 D    
N8    O56   1.300686 A    
C65   C66   1.380305 A    
C59   H22   1.082379 S    
Cu1   Cu2   2.698263 S    
C113  O26   1.399238 S    
C111  C129  1.488629 S    
C61   N8    1.432882 S    
C111  C112  1.424184 A    
C122  O65   1.222871 D    
Cu1   O7    1.970661 S    
C98   C126  1.482739 S    
C46   N5    1.435894 S    
C26   N3    1.449445 S    
C98   C99   1.425986 A    
C47   C48   1.388928 A    
C30   C74   1.451191 S    
C129  O87   1.222145 D    
O62   H41   1.013949 S    
C92   C93   1.402607 A    
N11   O63   1.300359 A    
C89   C94   1.424921 A    
C83   C88   1.406205 A    
N1    O30   1.301287 A    
C90   C91   1.395756 A    
O88   H49   1.013899 S    
O7    C4    1.294830 A    
C117  O44   1.398995 S    
C108  N15   1.437636 S    
C36   C37   1.390738 A    
C5    H1    1.082891 S    
C66   C67   1.380615 A    
O28   H34   1.013144 S    
C126  O78   1.397573 S    
C86   N12   1.435732 S    
C41   C46   1.419119 A    
O18   C73   1.300568 A    
C44   C45   1.389400 A    
O90   H50   1.013477 S    
O40   H36   1.011419 S    
C37   C38   1.395429 A    
C115  O34   1.398044 S    
O5    C3    1.294329 A    
N8    O55   1.300788 A    
C123  O72   1.399063 S    
C6    C7    1.403987 A    
C59   C60   1.389118 A    
C87   C88   1.430985 A    
C7    C8    1.402493 A    
C49   C58   1.490597 S    
C39   C116  1.490267 S    
O76   H45   1.013897 S    
C117  O43   1.222944 D    
O23   C76   1.299143 A    
C48   C72   1.460441 S    
Cu3   Cu4   2.689558 S    
N14   O80   1.301779 A    
O10   Cu4   1.978413 S    
C127  O82   1.396650 S    
C17   C22   1.422240 A    
Cu2   O8    1.985062 S    
C14   C15   1.410084 A    
C81   H25   1.082849 S    
C50   C118  1.486555 S    
C110  C111  1.405608 A    
C96   C97   1.402311 A    
C128  O84   1.397999 S    
C49   C50   1.410018 A    
O92   H51   1.009842 S    
C23   C24   1.405531 A    
C42   H15   1.081511 S    
H28   C100  1.082839 S    
C116  O39   1.220337 D    
O9    C69   1.295952 A    
C47   C52   1.387924 A    
C128  O83   1.220971 D    
C35   C40   1.403827 A    
C107  C108  1.403570 A    
Cu3   O13   1.978529 S    
C105  C106  1.413256 A    
C107  H30   1.083492 S    
C38   H14   1.082245 S    
C86   C87   1.421215 A    
N10   O60   1.300553 A    
C21   C22   1.423447 A    
O3    Cu1   1.985061 S    
N12   O67   1.299718 A    
C119  O52   1.396963 S    
C119  O51   1.222680 D    
C53   C54   1.389299 A    
N12   O68   1.301216 A    
C62   N9    1.435437 S    
C30   C31   1.413592 A    
C91   C92   1.386184 A    
C27   C28   1.386114 A    
C19   C114  1.487030 S    
O12   Cu4   1.977972 S    
C79   C88   1.497407 S    
C57   C119  1.487624 S    
C47   H18   1.085700 S    
C31   C32   1.406807 A    
C53   C58   1.398441 A    
C114  O28   1.397104 S    
C60   C120  1.480996 S    
C18   H6    1.084077 S    
C85   C86   1.401883 A    
N4    O38   1.298415 A    
C83   C84   1.404925 A    
O44   H37   1.013838 S    
C45   C46   1.401791 A    
C67   N10   1.435351 S    
C63   C68   1.450029 A    
C43   C44   1.398963 A    
C125  O76   1.398974 S    
C41   C117  1.486583 S    
C104  C128  1.478027 S    
C12   C70   1.462523 S    
N3    O36   1.301875 A    
C11   H5    1.085392 S    
C55   C56   1.415196 A    
C101  C106  1.408357 A    
C103  C104  1.400831 A    
C53   H19   1.080821 S    
C124  O73   1.220348 D    
C39   C40   1.421699 A    
C17   C18   1.400098 A    
C120  O54   1.397244 S    
N11   O64   1.301505 A    
C56   N7    1.434451 S    
C130  O90   1.390138 S    
Cu6   O24   1.973480 S    
C29   C34   1.387127 A    
N1    O29   1.299104 A    
C80   N11   1.442234 S    
Cu5   O23   1.972944 S    
C123  O71   1.222874 D    
N15   O86   1.301457 A    
C43   C52   1.478930 S    
N5    O42   1.300456 A    
C10   C113  1.483221 S    
C25   C34   1.495120 S    
O21   C75   1.287447 A    
C54   H20   1.082469 S    
C85   C94   1.499906 S    
C13   C22   1.497028 S    
C15   C16   1.416596 A    
O84   H48   1.011741 S    
C125  O75   1.223441 D    
O72   H43   1.013668 S    
C8    H3    1.079371 S    
C35   H11   1.079463 S    
C38   C39   1.410613 A    
C6    H2    1.082737 S    
C96   H29   1.080743 S    
H23   C82   1.081862 S    
C62   C63   1.442145 A    
N9    O58   1.296241 A    
C20   N1    1.433418 S    
C5    C10   1.406221 A    
C4    C51   1.461275 S    
C48   C49   1.417420 A    
O20   C74   1.285823 A    
C59   C64   1.408269 A    
C95   C125  1.484623 S    
C110  H32   1.083076 S    
Cu5   Cu6   2.695993 S    
C80   C81   1.403300 A    
C114  O27   1.224060 D    
O18   Cu6   1.986749 S    
O26   H33   1.013907 S    
O22   C75   1.300899 A    
O16   C72   1.304435 A    
C17   C131  1.492193 S    
O3    C2    1.292147 A    
C108  C109  1.400017 A    
C54   C55   1.400699 A    
O82   H47   1.013779 S    
C8    C9    1.397281 A    
N3    O35   1.300209 A    
C14   C130  1.491625 S    
C118  O46   1.396242 S    
C129  O88   1.399689 S    
C121  O62   1.395493 S    
C25   C26   1.435493 A    
C99   C100  1.406208 A    
C81   C82   1.390617 A    
C9    C10   1.403926 A    
C90   C123  1.486778 S    
C27   H9    1.079646 S    
C11   C12   1.394951 A    
C24   C25   1.429853 A    
Cu6   O22   1.972420 S    
C78   H24   1.083286 S    
C69   C87   1.480113 S    
N9    O57   1.301609 A    
Cu5   O21   1.986842 S    
C83   C122  1.493162 S    
C26   C27   1.401854 A    
C56   C57   1.421836 A    
H7    C28   1.082951 S    
C91   H26   1.082258 S    
O20   Cu6   1.972968 S    
C115  O33   1.221863 D    
C5    C6    1.397656 A    
Cu1   O5    1.972205 S    
O66   H42   1.013819 S    
C13   C14   1.412366 A    
O24   C76   1.309055 A    
C64   C65   1.405723 A    
C2    C15   1.467789 S    
C68   C76   1.482633 S    
O19   Cu5   1.973361 S    
Cu3   O15   1.978211 S    
C11   C16   1.391614 A    
C89   N13   1.438523 S    
C9    H4    1.081149 S    
O2    Cu2   1.972204 S    
C31   C40   1.488129 S    
O54   H40   1.013882 S    
O8    C4    1.302511 A    
N4    O37   1.299934 A    
C78   C79   1.409602 A    
O6    C3    1.293909 A    
C131  O91   1.223936 D    
O4    Cu2   1.970664 S    
C84   C85   1.410070 A    
Cu4   O14   1.980696 S    
C21   N2    1.447589 S    
C33   C34   1.427533 A    
O11   C70   1.306205 A    
C103  C112  1.495255 S    
O13   C71   1.288215 A    
N13   O69   1.301058 A    
N7    O50   1.301239 A    
C20   C21   1.420625 A    
O12   C70   1.289583 A    
C107  C112  1.406734 A    
C99   N14   1.443440 S    
C67   C68   1.425879 A    
H21   C66   1.084364 S    
C89   C90   1.418617 A    
C73   C102  1.468917 S    
C130  O89   1.220326 D    
C131  O92   1.394148 S    
O2    C1    1.306530 A    
N15   O85   1.300528 A    
C45   H17   1.079172 S    
C113  O25   1.223271 D    
C102  C103  1.419132 A    
C55   N6    1.439986 S    
O74   H44   1.011320 S    
C71   C105  1.458986 S    
C50   C51   1.415355 A    
C24   C115  1.487502 S    
C1    C33   1.466175 S    
C36   H12   1.082343 S    
O4    C2    1.307519 A    
C97   C106  1.497247 S    
C29   H10   1.086311 S    
N6    O47   1.301338 A    
N7    O49   1.299686 A    
C29   C30   1.383883 A    
C60   C61   1.398991 A    
C18   C19   1.396952 A    
C122  O66   1.396570 S    
C77   C78   1.405142 A    
O15   C72   1.289006 A    
N6    O48   1.301507 A    
C92   H27   1.082615 S    
C41   C42   1.406688 A    
C3    C65   1.445413 S    
C44   H16   1.083563 S    
O34   H35   1.009559 S    
C101  C102  1.422452 A    
O19   C74   1.306682 A    
O10   C69   1.306281 A    
C104  C105  1.405596 A    
N13   O70   1.299378 A    
C126  O77   1.222809 D    
C51   C52   1.415917 A    
Cu4   O16   1.977633 S    
C37   H13   1.081296 S    
C97   C98   1.417920 A    
O46   H38   1.013767 S    
Cu2   O6    1.974381 S    
C118  O45   1.222375 D    
N10   O59   1.299957 A    
O14   C71   1.300653 A    
C12   C13   1.423718 A    
C116  O40   1.397702 S    
C93   C94   1.424940 A    
O1    Cu1   1.974379 S    
C23   H8    1.083025 S    
C19   C20   1.411784 A    
C101  C127  1.493743 S    
O1    C1    1.295919 A    
N2    O31   1.301211 A    
C121  O61   1.223497 D    
C77   C82   1.398863 A    
N2    O32   1.300508 A    
O52   H39   1.012449 S    
C75   C84   1.449930 S    
O11   Cu3   1.977541 S    
N14   O79   1.297062 A    
C32   C33   1.417179 A    
O78   H46   1.013114 S    
C95   C96   1.396449 A    
C127  O81   1.221990 D    
