data_mof_unit_50686.cif
_audit_creation_date              2012-12-11T17:37:51-0500
_audit_creation_method            fapswitch 2.2
_symmetry_space_group_name_H-M    P1
_symmetry_Int_Tables_number       1
_space_group_crystal_system       triclinic
_cell_length_a                    12.997303
_cell_length_b                    13.068207
_cell_length_c                    15.279337
_cell_angle_alpha                 115.925005
_cell_angle_beta                  63.841186
_cell_angle_gamma                 96.677636
_cell_volume                      2085.57072704

loop_
_atom_site_label
_atom_site_type_symbol
_atom_type_description
_atom_site_fract_x
_atom_site_fract_y
_atom_site_fract_z
_atom_type_partial_charge
C1    C     C_R   0.998656 0.831481 0.056010 -0.182459
C2    C     C_R   0.297389 0.595262 0.790520 -0.155108
C3    C     C_R   0.260759 0.417443 0.047302 -0.106692
C4    C     C_R   0.678881 0.475928 0.220700 -0.109152
C5    C     C_R   0.018150 0.288937 0.686063 -0.280344
C6    C     C_R   0.362984 0.436633 0.975180 0.140668
C7    C     C_R   0.977367 0.186097 0.680406 -0.036142
C8    C     C_R   0.293214 0.565737 0.694062 0.073924
C9    C     C_R   0.016645 0.148833 0.035855 0.253369
C10   C     C_R   0.427591 0.759514 0.238926 0.040439
C11   C     C_R   0.310309 0.796538 0.307396 -0.140638
C12   C     C_R   0.672795 0.552740 0.321257 0.024270
C13   C     C_R   0.267649 0.908254 0.341690 0.076353
C14   C     C_R   0.343788 0.982797 0.306955 -0.156102
C15   C     C_R   0.460386 0.946154 0.238840 -0.072555
C16   C     C_R   0.757932 0.514155 0.888690 -0.058799
C17   C     C_R   0.502292 0.835126 0.205087 -0.224636
C18   C     C_R   0.115653 0.050191 0.510131 -0.239665
C19   C     C_R   0.999840 0.087461 0.582780 0.117268
C20   C     C_R   0.910227 0.025452 0.565379 0.068974
C21   C     C_R   0.938733 0.923888 0.474496 -0.243826
C22   C     C_R   0.054133 0.886581 0.401074 0.069218
C23   C     C_R   0.665175 0.455070 0.921847 0.114920
C24   C     C_R   0.144556 0.948647 0.417327 0.026338
C25   C     C_R   0.710277 0.005285 0.685063 -0.104803
C26   C     C_R   0.592384 0.039938 0.741196 -0.110903
C27   C     C_R   0.550358 0.134936 0.743050 -0.052044
C28   C     C_R   0.016936 0.695414 0.301178 -0.170122
C29   C     C_R   0.626447 0.196514 0.690339 -0.119947
C30   C     C_R   0.744777 0.164699 0.637554 -0.137149
C31   C     C_R   0.787249 0.068079 0.633576 0.146325
C32   C     C_R   0.858472 0.388763 0.444560 -0.027070
C33   C     C_R   0.756452 0.403768 0.437027 -0.067059
C34   C     C_R   0.072045 0.790739 0.302602 0.059894
C35   C     C_R   0.699655 0.514628 0.490516 0.014886
C36   C     C_R   0.746719 0.608660 0.544851 -0.155569
C37   C     C_R   0.853437 0.594975 0.539835 -0.106985
C38   C     C_R   0.908195 0.485775 0.492374 -0.242766
C39   C     C_R   0.492912 0.532737 0.578823 -0.267679
C40   C     C_R   0.678322 0.419450 0.988384 -0.148849
C41   C     C_R   0.386206 0.574738 0.602765 0.066866
C42   C     C_R   0.373821 0.625477 0.542889 0.064333
C43   C     C_R   0.469371 0.617979 0.448953 -0.253994
C44   C     C_R   0.576497 0.572358 0.423699 0.064999
C45   C     C_R   0.338503 0.517762 0.950982 -0.112140
C46   C     C_R   0.588922 0.537073 0.494085 0.018402
C47   C     C_R   0.169588 0.642445 0.580478 -0.162090
C48   C     C_R   0.061383 0.702763 0.645275 -0.417344
C49   C     C_R   0.049886 0.822318 0.700477 0.539023
C50   C     C_R   0.148497 0.880649 0.694690 0.513114
C51   C     C_R   0.257700 0.817750 0.643192 -0.276855
C52   C     C_R   0.095160 0.798205 0.208879 -0.105996
C53   C     C_R   0.267264 0.697029 0.584835 0.013807
C54   C     C_2   0.476279 0.396016 0.948192 -0.161325
C55   C     C_2   0.568884 0.438608 0.895692 -0.215811
C56   C     C_R   0.929221 0.189941 0.782137 0.574933
C57   C     C_2   0.824886 0.954884 0.106249 0.397223
C58   C     C_2   0.783248 0.998271 0.213644 0.094369
C59   C     C_R   0.783064 0.570076 0.310490 -0.118964
C60   C     C_R   0.900196 0.749179 0.958697 0.552488
C61   C     C_R   0.910115 0.852683 0.036691 -0.242427
C62   C     C_2   0.082737 0.280598 0.175764 0.504288
C63   C     C_2   0.473813 0.643073 0.203506 0.439028
C64   C     C_2   0.912836 0.275299 0.409800 0.540543
C65   C     C_2   0.712738 0.308784 0.368400 0.599896
C66   C     C_2   0.358537 0.875564 0.657223 0.498949
C67   C     C_R   0.200371 0.504111 0.693144 -0.101241
C68   C     C_R   0.051558 0.253908 0.087302 -0.073608
C69   C     C_R   0.961776 0.169366 0.984385 -0.061968
H1    H     H_    0.025420 0.891747 0.115824 0.155216
H2    H     H_    0.312810 0.069243 0.332403 0.124293
H3    H     H_    0.518513 0.004066 0.212407 0.155622
H4    H     H_    0.183236 0.098958 0.527703 0.137314
H5    H     H_    0.870084 0.876591 0.457562 0.130668
H6    H     H_    0.741702 0.929584 0.681403 0.127903
H7    H     H_    0.533558 0.992087 0.781831 0.154345
H8    H     H_    0.458859 0.160806 0.785122 0.152639
H9    H     H_    0.593704 0.268968 0.690349 0.118943
H10   H     H_    0.802851 0.212982 0.596933 0.126506
H11   H     H_    0.988802 0.476764 0.494411 0.113046
H12   H     H_    0.171279 0.468074 0.630801 0.086892
H13   H     H_    0.782492 0.536761 0.822402 0.148577
H14   H     H_    0.703814 0.694013 0.585169 0.113114
H15   H     H_    0.892411 0.670315 0.573280 0.119950
H16   H     H_    0.502286 0.499160 0.628940 0.133909
H17   H     H_    0.461626 0.651802 0.398647 0.154091
H18   H     H_    0.176354 0.551210 0.532722 0.139450
H19   H     H_    0.986656 0.655596 0.653861 0.166830
H20   H     H_    0.992388 0.660967 0.359676 0.118020
H21   H     H_    0.479841 0.348821 0.990208 0.150861
H22   H     H_    0.566491 0.481873 0.850062 0.123437
H23   H     H_    0.917892 0.107987 0.942307 0.184689
H24   H     H_    0.811158 0.962627 0.252757 0.063942
H25   H     H_    0.631822 0.358046 0.017295 0.113381
H26   H     H_    0.144029 0.860237 0.182035 0.116345
H27   H     H_    0.808831 0.628288 0.371281 0.114981
H28   H     H_    0.396744 0.557147 0.901156 0.090878
H29   H     H_    0.804893 0.159845 0.892725 0.298062
H30   H     H_    0.078431 0.368879 0.232004 -0.004276
H31   H     H_    0.566042 0.620662 0.160471 0.028882
H32   H     H_    0.997139 0.268887 0.406489 0.026644
H33   H     H_    0.620953 0.300922 0.396050 -0.017217
H34   H     H_    0.354818 0.651167 0.819617 0.110234
H35   H     H_    0.883288 0.831166 0.755093 0.316103
H36   H     H_    0.205845 0.026536 0.702654 0.327668
H37   H     H_    0.445492 0.838342 0.597892 0.024285
H38   H     H_    0.825542 0.965892 0.984394 0.336379
H39   H     H_    0.764114 0.794358 0.958271 0.321058
H40   H     H_    0.253680 0.363164 0.085332 0.106641
H41   H     H_    0.054275 0.316940 0.622440 0.132850
H42   H     H_    0.593051 0.808214 0.152552 0.117464
H43   H     H_    0.252646 0.739490 0.335981 0.150875
H44   H     H_    0.607928 0.441228 0.201453 0.132896
N1    N     N_R   0.037320 0.720000 0.995830 -0.062293
N2    N     N_R   0.824900 0.517970 0.936430 -0.046037
N3    N     N_R   0.003190 0.648180 0.211390 -0.044260
N4    N     N_R   0.774330 0.457010 0.995830 -0.067385
N5    N     N_R   0.053760 0.709130 0.151980 -0.045993
N6    N     N_R   0.853840 0.498830 0.211390 -0.040087
N7    N     N_R   0.974250 0.667320 0.936430 -0.069027
N8    N     N_R   0.225670 0.542990 0.004170 -0.043297
N9    N     N_R   0.946240 0.290870 0.848020 -0.110737
N10   N     N_R   0.146160 0.501170 0.788610 -0.040288
N11   N     N_R   0.025750 0.332680 0.063570 -0.085138
N12   N     N_R   0.962680 0.280000 0.004170 -0.071457
N13   N     N_R   0.209230 0.553860 0.848010 -0.043045
N14   N     N_R   0.175100 0.482030 0.063570 -0.051932
N15   N     N_R   0.996810 0.351820 0.788610 -0.058604
N16   N     N_R   0.790770 0.446140 0.151990 -0.039841
Ni1   Ni    Ni4+2 0.130310 0.630310 0.000000 0.217280
Ni2   Ni    Ni4+2 0.869690 0.369690 0.000000 0.215812
Ni3   Ni    Ni4+2 0.985660 0.509480 0.863750 0.223875
Ni4   Ni    Ni4+2 0.014340 0.490520 0.136250 0.216438
O1    O     O_3   0.853831 0.116735 0.814133 -0.735102
O2    O     O_3   0.823319 0.728665 0.915041 -0.812760
O3    O     O_2   0.114533 0.204014 0.186125 -0.591298
O4    O     O_2   0.410046 0.571312 0.222087 -0.604828
O5    O     O_2   0.863400 0.188797 0.388983 -0.589595
O6    O     O_2   0.778781 0.243383 0.277029 -0.563847
O7    O     O_3   0.943614 0.884525 0.759391 -0.715388
O8    O     O_3   0.134279 0.998507 0.741929 -0.722078
O9    O     O_2   0.345531 0.963392 0.737884 -0.600355
O10   O     O_3   0.781289 0.003310 0.064094 -0.751405

loop_
_geom_bond_atom_site_label_1
_geom_bond_atom_site_label_2
_ccdc_geom_bond_type
C25   C31   A    
C6    C45   A    
N10   Ni3   S    
C27   C29   A    
C63   O4    D    
C14   H2    S    
C35   C36   A    
N8    Ni1   S    
C3    C6    A    
C68   N11   A    
C33   C65   S    
C39   C41   A    
C64   O5    D    
C15   H3    S    
C26   C27   A    
C29   C30   A    
N11   Ni4   S    
C18   C24   A    
C7    C56   A    
C36   C37   A    
C58   H24   S    
C9    C69   A    
C54   H21   S    
C42   C53   S    
H36   O8    S    
C30   C31   A    
C3    N14   A    
C5    H41   S    
N13   Ni1   S    
C10   C17   A    
C23   C40   A    
N15   Ni3   S    
C52   H26   S    
C18   C19   A    
C41   C42   A    
C62   O3    D    
C55   H22   S    
C28   N3    A    
C33   C35   A    
C12   C59   A    
C29   H9    S    
C10   C63   S    
N2    N4    A    
C26   H7    S    
C48   H19   S    
C37   H15   S    
C28   H20   S    
C32   C38   A    
C4    C12   A    
C69   H23   S    
C42   C43   A    
C50   O8    S    
C47   C53   A    
C40   N4    A    
C28   C34   A    
C13   C14   A    
N1    Ni1   S    
C65   H33   S    
C6    C54   S    
C17   H42   S    
C44   C46   A    
N2    Ni3   S    
C64   H32   S    
C22   C34   S    
C57   O10   S    
C4    H44   S    
C8    C41   S    
C32   C64   S    
H39   O2    S    
C5    C7    A    
N10   N13   A    
N3    Ni4   S    
C63   H31   S    
C45   N8    A    
C25   C26   A    
C21   H5    S    
H35   O7    S    
C13   C24   S    
C67   N10   A    
C60   C61   A    
C25   H6    S    
C51   C66   S    
C56   N9    A    
C43   C44   A    
C37   C38   A    
N5    Ni1   S    
N12   Ni2   S    
C47   C48   A    
C16   H13   S    
C50   C51   A    
N6    Ni4   S    
C57   C61   S    
C60   O2    S    
C39   C46   A    
C30   H10   S    
C2    N13   A    
C48   C49   A    
C67   H12   S    
C18   H4    S    
C7    C19   S    
C22   C24   A    
C1    N1    A    
C39   H16   S    
H38   O10   S    
C16   N2    A    
N9    Ni2   S    
C15   C17   A    
C54   C55   D    
C59   N6    A    
C11   H43   S    
N7    Ni3   S    
C43   H17   S    
C2    C8    A    
N14   Ni4   S    
C40   H25   S    
C27   H8    S    
C1    C61   A    
C56   O1    S    
N8    N14   A    
C23   C55   S    
C4    N16   A    
C66   O9    D    
C16   C23   A    
H29   O1    S    
C34   C52   A    
C1    H1    S    
C62   C68   S    
C32   C33   A    
C19   C20   A    
C9    C68   A    
C12   C44   S    
C45   H28   S    
C11   C13   A    
C57   C58   D    
C66   H37   S    
C38   H11   S    
C2    H34   S    
C3    H40   S    
C5    N15   A    
N6    N16   A    
N3    N5    A    
C60   N7    A    
N9    N15   A    
N4    Ni2   S    
C10   C11   A    
C69   N12   A    
C62   H30   S    
C65   O6    D    
C20   C21   A    
C8    C67   A    
C49   C50   A    
C59   H27   S    
C49   O7    S    
C14   C15   A    
C36   H14   S    
C51   C53   A    
C21   C22   A    
C35   C46   S    
N1    N7    A    
C47   H18   S    
N11   N12   A    
N16   Ni2   S    
C20   C31   S    
C52   N5    A    
