data_mof_unit_45083.cif
_audit_creation_date              2012-12-10T20:49:48-0500
_audit_creation_method            fapswitch 2.2
_symmetry_space_group_name_H-M    P1
_symmetry_Int_Tables_number       1
_space_group_crystal_system       triclinic
_cell_length_a                    8.093002
_cell_length_b                    8.924286
_cell_length_c                    16.716949
_cell_angle_alpha                 90.000869
_cell_angle_beta                  84.274255
_cell_angle_gamma                 90.000213
_cell_volume                      1201.34558835

loop_
_atom_site_label
_atom_site_type_symbol
_atom_type_description
_atom_site_fract_x
_atom_site_fract_y
_atom_site_fract_z
_atom_type_partial_charge
C1    C     C_R   0.500000 0.782054 0.500000 0.933469
C2    C     C_R   0.417245 0.510702 0.211186 -0.012455
C3    C     C_R   0.577354 0.451158 0.866078 -0.195753
C4    C     C_R   0.422742 0.451250 0.133892 -0.195751
C5    C     C_R   0.449823 0.351953 0.895029 0.190944
C6    C     C_R   0.550256 0.352015 0.104956 0.190955
C7    C     C_R   0.322601 0.317905 0.847673 -0.185941
C8    C     C_R   0.677445 0.317944 0.152325 -0.185948
C9    C     C_R   0.327164 0.374961 0.770391 -0.236916
C10   C     C_R   0.672853 0.374989 0.229612 -0.236897
C11   C     C_2   0.434251 0.302649 0.978868 -0.233341
C12   C     C_R   0.500000 0.217924 0.500000 0.941432
C13   C     C_2   0.565833 0.302670 0.021124 -0.233354
C14   C     C_R   0.716380 0.619091 0.761667 0.129670
C15   C     C_R   0.676858 0.758153 0.728729 -0.125698
C16   C     C_R   0.802740 0.858797 0.701848 -0.118491
C17   C     C_R   0.968812 0.822286 0.708227 -0.114111
C18   C     C_R   0.009266 0.685242 0.741695 -0.119597
C19   C     C_R   0.883859 0.583916 0.768416 -0.151988
C20   C     C_R   0.283619 0.619118 0.238326 0.129594
C21   C     C_R   0.323048 0.758036 0.271453 -0.125446
C22   C     C_R   0.197110 0.858548 0.298434 -0.118422
C23   C     C_1   0.500000 0.934779 0.499999 -0.218399
C24   C     C_R   0.031077 0.822080 0.291949 -0.114109
C25   C     C_R   0.990717 0.685222 0.258258 -0.119644
C26   C     C_R   0.116174 0.584009 0.231449 -0.152106
C27   C     C_1   0.500000 0.065165 0.499999 -0.216174
C28   C     C_R   0.475869 0.498774 0.653937 0.845629
C29   C     C_R   0.524131 0.498773 0.346063 0.845584
C30   C     C_R   0.458465 0.468108 0.739800 -0.089749
C31   C     C_R   0.541549 0.468137 0.260196 -0.089741
C32   C     C_R   0.582803 0.510632 0.788795 -0.012492
H1    H     H_    0.330786 0.488182 0.095379 0.133149
H2    H     H_    0.771457 0.965166 0.676105 0.134474
H3    H     H_    0.066155 0.900295 0.687389 0.127730
H4    H     H_    0.137926 0.657537 0.746812 0.141168
H5    H     H_    0.917437 0.477487 0.793427 0.121094
H6    H     H_    0.451189 0.788224 0.276610 0.098184
H7    H     H_    0.228319 0.964769 0.324354 0.134494
H8    H     H_    0.933689 0.899981 0.312874 0.127772
H9    H     H_    0.862091 0.657555 0.253062 0.141185
H10   H     H_    0.082653 0.477702 0.206286 0.121128
H11   H     H_    0.669352 0.488073 0.904572 0.133166
H12   H     H_    0.768937 0.341296 0.266640 0.161647
H13   H     H_    0.231056 0.341290 0.733372 0.161594
H14   H     H_    0.690527 0.294263 0.990567 0.147188
H15   H     H_    0.309558 0.294254 0.009430 0.147196
H16   H     H_    0.220517 0.246067 0.870311 0.130458
H17   H     H_    0.779520 0.246087 0.129697 0.130473
H18   H     H_    0.548684 0.788374 0.723669 0.098297
N1    N     N_1   0.926360 0.500000 0.499990 -0.028868
N2    N     N_1   0.073640 0.500000 0.500010 -0.028866
O1    O     O_R   0.363150 0.714660 0.500000 -0.610507
O2    O     O_R   0.636850 0.285340 0.500000 -0.617623
O3    O     O_R   0.636850 0.714660 0.500000 -0.610483
O4    O     O_R   0.363150 0.285340 0.500000 -0.617629
O5    O     O_R   0.346950 0.500000 0.615800 -0.627067
O6    O     O_R   0.653050 0.500000 0.384200 -0.627044
O7    O     O_R   0.620700 0.500000 0.615800 -0.597686
O8    O     O_R   0.379300 0.500000 0.384200 -0.597673
Zn1   Zn    Zn3+2 0.317220 0.500000 0.500010 0.984139
Zn2   Zn    Zn3+2 0.682780 0.500000 0.499990 0.984155

loop_
_geom_bond_atom_site_label_1
_geom_bond_atom_site_label_2
_ccdc_geom_bond_type
O6    Zn2   S    
C2    C4    A    
C24   C25   A    
C9    H13   S    
C23   C27   T    
C19   H5    S    
C11   H15   S    
C21   C22   A    
C14   C15   A    
C29   O8    A    
C7    H16   S    
C1    C23   S    
C28   C30   S    
C17   C18   A    
C1    O3    A    
C29   C31   S    
C28   O5    A    
C29   O6    A    
C6    C13   S    
C30   C32   A    
C11   C13   D    
C3    H11   S    
C12   O4    A    
N1    Zn2   S    
C20   C26   A    
C9    C30   A    
C22   H7    S    
C8    H17   S    
C4    C6    A    
C24   H8    S    
C5    C11   S    
N2    Zn1   S    
C2    C31   A    
C3    C32   A    
C22   C24   A    
C28   O7    A    
C12   C27   S    
C10   H12   S    
C15   C16   A    
O3    Zn2   S    
C7    C9    A    
O5    Zn1   S    
C17   H3    S    
C20   C21   A    
C26   H10   S    
O1    Zn1   S    
C8    C10   A    
C18   C19   A    
C15   H18   S    
C25   H9    S    
C13   H14   S    
C5    C7    A    
C2    C20   S    
C1    O1    A    
O4    Zn1   S    
C16   C17   A    
O7    Zn2   S    
C6    C8    A    
O2    Zn2   S    
C16   H2    S    
C25   C26   A    
C4    H1    S    
C18   H4    S    
C14   C19   A    
C12   O2    A    
C21   H6    S    
N1    N2    T    
C14   C32   S    
O8    Zn1   S    
C3    C5    A    
C10   C31   A    
