data_mof_unit_59573.cif
_audit_creation_date              2012-12-10T17:32:12-0500
_audit_creation_method            fapswitch 2.2
_symmetry_space_group_name_H-M    P1
_symmetry_Int_Tables_number       1
_space_group_crystal_system       triclinic
_cell_length_a                    12.382587
_cell_length_b                    13.172702
_cell_length_c                    15.03607
_cell_angle_alpha                 76.402997
_cell_angle_beta                  101.388215
_cell_angle_gamma                 116.628147
_cell_volume                      2118.98307694

loop_
_atom_site_label
_atom_site_type_symbol
_atom_type_description
_atom_site_fract_x
_atom_site_fract_y
_atom_site_fract_z
_atom_type_partial_charge
C1    C     C_R   0.855163 0.286395 0.506460 0.862668
C2    C     C_R   0.933130 0.551941 0.071639 0.105777
C3    C     C_R   0.167235 0.442205 0.085496 -0.188914
C4    C     C_R   0.167417 0.442511 0.992805 -0.185389
C5    C     C_R   0.089543 0.478401 0.926045 0.096305
C6    C     C_R   0.011657 0.515606 0.952212 0.066132
C7    C     C_R   0.933015 0.551888 0.885403 0.107201
C8    C     C_R   0.856149 0.588956 0.912047 -0.190474
C9    C     C_R   0.856234 0.589016 0.004751 -0.184811
C10   C     C_R   0.087244 0.476487 0.833576 -0.211559
C11   C     C_R   0.007303 0.510087 0.767174 -0.067461
C12   C     C_R   0.002829 0.504058 0.670723 0.860875
C13   C     C_R   0.931730 0.549292 0.793153 -0.212552
C14   C     C_R   0.271797 0.033574 0.407929 -0.134345
C15   C     C_R   0.227414 0.836590 0.478383 -0.043704
C16   C     C_R   0.814922 0.082213 0.564427 -0.151496
C17   C     C_R   0.733940 0.970198 0.593446 -0.132145
C18   C     C_R   0.609853 0.936833 0.570799 -0.147000
C19   C     C_R   0.564088 0.012668 0.510793 0.059191
C20   C     C_R   0.648386 0.123997 0.474958 -0.005166
C21   C     C_R   0.437834 0.981072 0.484081 0.039078
C22   C     C_R   0.397481 0.063529 0.428168 0.056908
C23   C     C_R   0.144836 0.713728 0.488889 0.773277
C24   C     C_R   0.482862 0.169509 0.386992 0.100904
C25   C     C_R   0.606228 0.191784 0.402359 0.125069
C26   C     C_R   0.350578 0.868249 0.508141 -0.216568
C27   C     C_R   0.187530 0.920766 0.432365 -0.198319
C28   C     C_R   0.773006 0.162400 0.510765 -0.076482
C29   C     C_R   0.313695 0.289167 0.602107 -0.279855
C30   C     C_R   0.771336 0.661808 0.389102 0.088487
C31   C     C_R   0.681257 0.702031 0.367578 -0.241658
C32   C     C_R   0.571280 0.639175 0.405414 -0.160279
C33   C     C_R   0.548371 0.533058 0.464119 -0.009000
C34   C     C_R   0.002778 0.503979 0.328588 0.824040
C35   C     C_R   0.643816 0.493863 0.485764 0.243505
C36   C     C_R   0.435451 0.465624 0.504633 -0.026147
C37   C     C_R   0.412088 0.352719 0.550362 0.103243
C38   C     C_R   0.493890 0.307268 0.553509 -0.245377
C39   C     C_R   0.613900 0.381092 0.540673 0.169747
C40   C     C_R   0.343764 0.503551 0.502848 -0.006968
C41   C     C_R   0.236150 0.336421 0.607693 0.342834
C42   C     C_R   0.932000 0.549483 0.164515 -0.202023
C43   C     C_R   0.007356 0.509977 0.231208 -0.062645
C44   C     C_R   0.086710 0.475566 0.204776 -0.226031
C45   C     C_R   0.089306 0.477960 0.112205 0.098639
C46   C     C_R   0.011647 0.515532 0.045355 0.067213
Cu1   Cu    Cu3+1 0.098270 0.475420 0.521130 0.970866
Cu2   Cu    Cu3+1 0.901730 0.524580 0.478870 0.977298
H1    H     H_    0.871456 0.577157 0.184831 0.167654
H2    H     H_    0.237018 0.094571 0.368768 0.172971
H3    H     H_    0.376577 0.801000 0.545456 0.146380
H4    H     H_    0.910024 0.107205 0.588067 0.179540
H5    H     H_    0.553130 0.851168 0.601965 0.123537
H6    H     H_    0.767224 0.910234 0.637682 0.144906
H7    H     H_    0.470528 0.218417 0.586791 0.175536
H8    H     H_    0.301599 0.205910 0.643065 0.165695
H9    H     H_    0.145455 0.445459 0.256171 0.169506
H10   H     H_    0.348147 0.583963 0.461747 0.129059
H11   H     H_    0.856411 0.712258 0.359464 0.121388
H12   H     H_    0.504303 0.673913 0.385988 0.137838
H13   H     H_    0.697043 0.782839 0.321467 0.152638
H14   H     H_    0.227375 0.413369 0.136291 0.175463
H15   H     H_    0.227681 0.413880 0.973381 0.164891
H16   H     H_    0.146884 0.447527 0.813691 0.181963
H17   H     H_    0.871138 0.576923 0.741777 0.166703
H18   H     H_    0.795489 0.617115 0.861291 0.149081
H19   H     H_    0.795639 0.617227 0.024207 0.153811
H20   H     H_    0.091984 0.898304 0.410564 0.149476
N1    N     N_R   0.246280 0.438190 0.553160 -0.197551
N2    N     N_R   0.754320 0.561190 0.447410 -0.195046
O1    O     O_R   0.972510 0.318130 0.526570 -0.564638
O2    O     O_R   0.806530 0.359650 0.490890 -0.551037
O3    O     O_R   0.082980 0.479210 0.647590 -0.563769
O4    O     O_R   0.917000 0.520730 0.611900 -0.569970
O5    O     O_R   0.193470 0.640350 0.509110 -0.596874
O6    O     O_R   0.027490 0.681870 0.473430 -0.602822
O7    O     O_R   0.083000 0.479270 0.388100 -0.589267
O8    O     O_R   0.917020 0.520790 0.352410 -0.571396
I1    I     I_    0.428462 0.293955 0.294949 -0.388654
I2    I     I_    0.712124 0.284170 0.289994 -0.320307
I3    I     I_    0.113172 0.248127 0.708881 -0.387376
I4    I     I_    0.703133 0.322706 0.665336 -0.362217

loop_
_geom_bond_atom_site_label_1
_geom_bond_atom_site_label_2
_ccdc_geom_bond_type
C16   C28   A    
C21   C26   A    
C8    H18   S    
C12   O4    A    
C25   I2    S    
C31   H13   S    
C19   C20   A    
C23   O6    A    
C7    C8    A    
C13   H17   S    
C45   C46   A    
C2    C46   A    
C4    H15   S    
C1    O1    A    
C36   C37   A    
C19   C21   A    
C34   O7    A    
C30   C31   A    
C20   C25   A    
C33   C36   A    
C18   C19   A    
Cu2   O8    S    
Cu2   O6    S    
Cu1   N1    S    
C27   H20   S    
C18   H5    S    
C38   H7    S    
Cu1   Cu2   S    
C35   N2    A    
C8    C9    A    
C1    C28   S    
C14   C27   A    
C15   C23   S    
C12   O3    A    
Cu2   O2    S    
C30   N2    A    
C38   C39   A    
C1    O2    A    
C40   H10   S    
C40   N1    A    
C14   H2    S    
Cu2   O4    S    
C36   C40   A    
C24   C25   A    
Cu1   O3    S    
Cu2   N2    S    
C16   C17   A    
C15   C26   A    
C20   C28   A    
C3    C45   A    
C35   C39   A    
C43   C44   A    
C9    H19   S    
C37   C38   A    
C24   I1    S    
C15   C27   A    
C31   C32   A    
C44   H9    S    
C41   I3    S    
C30   H11   S    
C17   C18   A    
Cu1   O1    S    
C22   C24   A    
C42   C43   A    
C32   H12   S    
C3    C4    A    
C44   C45   A    
C41   N1    A    
C3    H14   S    
C6    C46   A    
C29   C41   A    
C10   H16   S    
C34   C43   S    
C16   H4    S    
C39   I4    S    
C23   O5    A    
C4    C5    A    
C11   C12   S    
C6    C7    A    
C29   H8    S    
C32   C33   A    
C14   C22   A    
Cu1   O5    S    
C5    C10   A    
C26   H3    S    
C34   O8    A    
C11   C13   A    
C5    C6    A    
C2    C42   A    
C33   C35   A    
C10   C11   A    
C42   H1    S    
C7    C13   A    
C29   C37   A    
Cu1   O7    S    
C21   C22   A    
C2    C9    A    
C17   H6    S    
