data_mof_unit_67543.cif
_audit_creation_date              2012-12-10T16:47:31-0500
_audit_creation_method            fapswitch 2.2
_symmetry_space_group_name_H-M    P1
_symmetry_Int_Tables_number       1
_space_group_crystal_system       triclinic
_cell_length_a                    10.579459
_cell_length_b                    8.687172
_cell_length_c                    7.442981
_cell_angle_alpha                 101.957246
_cell_angle_beta                  94.484098
_cell_angle_gamma                 91.454548
_cell_volume                      666.554228491

loop_
_atom_site_label
_atom_site_type_symbol
_atom_type_description
_atom_site_fract_x
_atom_site_fract_y
_atom_site_fract_z
_atom_type_partial_charge
C1    C     C_R   0.493509 0.200892 0.455738 0.845551
C2    C     C_R   0.506491 0.799110 0.544261 0.845672
C3    C     C_R   0.259518 0.500886 0.501663 0.782167
C4    C     C_R   0.740482 0.499122 0.498337 0.782112
C5    C     C_3   0.045003 0.398066 0.600240 -0.157964
C6    C     C_3   0.954998 0.601954 0.399757 -0.157825
C7    C     C_3   0.952259 0.353840 0.424647 -0.185723
C8    C     C_3   0.047742 0.646179 0.575351 -0.185797
C9    C     C_3   0.877244 0.498640 0.497361 0.030811
C10   C     C_3   0.122757 0.501378 0.502637 0.030757
C11   C     C_3   0.967698 0.542842 0.673471 -0.124332
C12   C     C_3   0.032303 0.457177 0.326526 -0.124219
C13   C     C_2   0.468616 0.036897 0.440194 -0.238181
C14   C     C_2   0.531376 0.963109 0.559800 -0.238259
Cu1   Cu    Cu3+1 0.514140 0.517380 0.684380 0.940040
Cu2   Cu    Cu3+1 0.485860 0.482620 0.315620 0.940070
H1    H     H_    0.911183 0.233682 0.365016 0.115198
H2    H     H_    0.088820 0.766340 0.634982 0.115380
H3    H     H_    0.086102 0.316098 0.683074 0.118059
H4    H     H_    0.913924 0.683941 0.316929 0.118130
H5    H     H_    0.938183 0.576793 0.815728 0.136306
H6    H     H_    0.061816 0.423220 0.184267 0.136312
H7    H     H_    0.401211 0.379881 0.948997 0.220781
H8    H     H_    0.598790 0.620117 0.051002 0.220766
N1    N     N_2   0.464560 0.456420 0.038510 -0.217850
N2    N     N_2   0.535440 0.543580 0.961490 -0.217898
O1    O     O_R   0.509190 0.286130 0.619780 -0.579803
O2    O     O_R   0.490810 0.713870 0.380220 -0.579902
O3    O     O_R   0.485310 0.256770 0.308360 -0.597331
O4    O     O_R   0.514690 0.743230 0.691640 -0.597347
O5    O     O_R   0.328790 0.514640 0.655680 -0.602006
O6    O     O_R   0.671210 0.485360 0.344320 -0.601865
O7    O     O_R   0.304910 0.485280 0.344260 -0.576168
O8    O     O_R   0.695090 0.514720 0.655740 -0.576170
C15   C     C_R   0.354161 0.968127 0.319024 0.133322
C16   C     C_R   0.234371 0.979074 0.388596 -0.174508
C17   C     C_R   0.125170 0.926551 0.271556 -0.137334
C18   C     C_R   0.135073 0.861896 0.085157 -0.135693
C19   C     C_R   0.254265 0.850118 0.015436 -0.137370
C20   C     C_R   0.363564 0.904112 0.131602 -0.060521
H9    H     H_    0.225601 0.030875 0.532336 0.102726
H10   H     H_    0.032867 0.937518 0.325027 0.113480
H11   H     H_    0.050312 0.822380 0.994742 0.123944
H12   H     H_    0.262188 0.800897 0.871171 0.141201
H13   H     H_    0.455282 0.896595 0.075970 0.120916
C21   C     C_R   0.645686 0.031961 0.681262 0.133509
C22   C     C_R   0.636063 0.095418 0.868778 -0.060563
C23   C     C_R   0.745237 0.149277 0.985302 -0.137174
C24   C     C_R   0.864531 0.137965 0.915812 -0.135721
C25   C     C_R   0.874654 0.073953 0.729283 -0.137087
C26   C     C_R   0.765570 0.021549 0.611904 -0.174424
H14   H     H_    0.544271 0.102544 0.924220 0.120812
H15   H     H_    0.737141 0.197992 0.129669 0.141014
H16   H     H_    0.949203 0.177343 0.006506 0.123981
H17   H     H_    0.967039 0.063330 0.675985 0.113451
H18   H     H_    0.774514 0.970211 0.468074 0.102570

loop_
_geom_bond_atom_site_label_1
_geom_bond_atom_site_label_2
_ccdc_geom_bond_type
Cu2   O2    S    
C2    O2    A    
Cu1   O5    S    
C22   H14   S    
C5    H3    S    
Cu2   O7    S    
Cu2   O6    S    
C6    H4    S    
Cu2   N1    S    
Cu1   O8    S    
Cu1   O1    S    
C25   H17   S    
C2    O4    A    
C6    C9    S    
C1    O3    A    
C15   C20   A    
N1    N2    D    
C18   H11   S    
C14   C21   S    
C3    C10   S    
C4    O6    A    
C13   C14   D    
C3    O5    A    
C9    C11   S    
C16   H9    S    
C17   C18   A    
C10   C12   S    
C8    C11   S    
C8    C10   S    
C23   C24   A    
H8    N2    S    
C13   C15   S    
C7    C9    S    
H7    N1    S    
C5    C11   S    
C6    C12   S    
C23   H15   S    
C2    C14   S    
C4    O8    A    
C7    C12   S    
C1    C13   S    
C3    O7    A    
C19   H12   S    
Cu1   Cu2   S    
C19   C20   A    
C22   C23   A    
C12   H6    S    
C5    C10   S    
C18   C19   A    
C20   H13   S    
Cu2   O3    S    
Cu1   O4    S    
C5    C7    S    
C24   C25   A    
C17   H10   S    
C1    O1    A    
C21   C22   A    
C16   C17   A    
Cu1   N2    S    
C6    C8    S    
C25   C26   A    
C4    C9    S    
C21   C26   A    
C11   H5    S    
C8    H2    S    
C24   H16   S    
C7    H1    S    
C15   C16   A    
C26   H18   S    
