data_mof_unit_16976.cif
_audit_creation_date              2012-10-26T21:23:35-0400
_audit_creation_method            fapswitch 2.2
_symmetry_space_group_name_H-M    P1
_symmetry_Int_Tables_number       1
_space_group_crystal_system       triclinic
_cell_length_a                    27.701621
_cell_length_b                    10.902801
_cell_length_c                    9.77724
_cell_angle_alpha                 92.002529
_cell_angle_beta                  88.790867
_cell_angle_gamma                 91.366805
_cell_volume                      2949.72321423

loop_
_atom_site_label
_atom_site_type_symbol
_atom_type_description
_atom_site_fract_x
_atom_site_fract_y
_atom_site_fract_z
_atom_type_partial_charge
C1    C     C_R   0.500697 0.266104 0.497204 0.547209
C2    C     C_R   0.973881 0.462000 0.599491 0.016725
C3    C     C_R   0.975661 0.605555 0.412689 0.042847
C4    C     C_R   0.407727 0.501796 0.501567 0.575375
C5    C     C_R   0.949399 0.527734 0.501875 0.042433
C6    C     C_R   0.948632 0.367502 0.666518 -0.030854
C7    C     C_R   0.898745 0.351725 0.657014 0.265561
C8    C     C_R   0.872503 0.429455 0.574112 0.033118
C9    C     C_R   0.898446 0.514895 0.493033 -0.057034
C10   C     C_R   0.873568 0.587936 0.403021 0.038747
C11   C     C_R   0.823165 0.577990 0.397991 0.450676
C12   C     C_R   0.277321 0.431119 0.427984 0.259898
C13   C     C_R   0.821538 0.425051 0.567138 0.478697
C14   C     C_R   0.719760 0.401061 0.412485 0.306521
C15   C     C_R   0.668833 0.401218 0.423446 0.188678
C16   C     C_R   0.497268 0.734482 0.503364 0.626197
C17   C     C_R   0.672656 0.595725 0.555890 0.192464
C18   C     C_R   0.722870 0.591903 0.549839 -0.069482
C19   C     C_R   0.746549 0.496389 0.479512 0.123711
C20   C     C_R   0.023770 0.485886 0.620126 -0.012290
C21   C     C_R   0.051059 0.544494 0.516180 -0.005922
C22   C     C_R   0.027064 0.604562 0.411923 -0.000709
C23   C     C_R   0.253956 0.520019 0.511064 0.186828
C24   C     C_R   0.047365 0.454275 0.740756 0.228222
C25   C     C_R   0.105298 0.656591 0.303740 0.258034
C26   C     C_R   0.949466 0.679088 0.325459 -0.115862
C27   C     C_R   0.899384 0.670531 0.321278 -0.076335
C28   C     C_R   0.592295 0.500410 0.498635 0.608903
C29   C     C_R   0.054959 0.659001 0.307908 -0.067400
C30   C     C_2   0.466197 0.934252 0.433801 0.211480
C31   C     C_2   0.492042 0.867023 0.519152 0.214588
C32   C     C_2   0.463699 0.067807 0.456010 -0.053252
C33   C     C_2   0.503080 0.134945 0.487217 -0.048348
C34   C     C_R   0.102275 0.542579 0.516657 -0.101147
C35   C     C_2   0.497200 0.403648 0.921028 0.087469
C36   C     C_2   0.481075 0.415497 0.067834 0.350479
C37   C     C_R   0.176304 0.472086 0.614088 0.493207
C38   C     C_R   0.180833 0.589630 0.412708 0.486677
C39   C     C_R   0.281167 0.604076 0.592127 0.285078
C40   C     C_R   0.331769 0.598983 0.590070 0.249675
C41   C     C_R   0.327548 0.426254 0.425862 -0.109219
C42   C     C_R   0.125624 0.482866 0.623164 -0.003734
C43   C     C_R   0.097786 0.441250 0.737164 0.264122
C44   C     C_R   0.129907 0.597453 0.409228 0.023186
C45   C     C_R   0.354985 0.509400 0.506216 -0.036788
C46   C     C_R   0.645292 0.498927 0.493989 -0.024322
Cl1   Cl    Cl    0.251382 0.716784 0.694346 -0.357024
Cl2   Cl    Cl    0.512363 0.930366 0.679186 -0.479339
Cl3   Cl    Cl    0.244129 0.324430 0.326305 -0.378993
Cl4   Cl    Cl    0.124369 0.374525 0.879884 -0.291589
Cl5   Cl    Cl    0.633986 0.276076 0.354913 -0.441523
Cl6   Cl    Cl    0.872473 0.230387 0.749969 -0.395084
Cl7   Cl    Cl    0.365698 0.708774 0.687583 -0.391414
Cu1   Cu    Cu3+1 0.500010 0.500020 0.638630 1.167477
Cu2   Cu    Cu3+1 0.499990 0.499980 0.361370 1.275635
H1    H     H_    0.345180 0.356083 0.363156 0.217606
H2    H     H_    0.967855 0.303201 0.725451 0.199790
H3    H     H_    0.112205 0.808416 0.973415 0.396828
H4    H     H_    0.669072 0.903823 0.716389 0.400347
H5    H     H_    0.376586 0.932603 0.164627 0.405582
H6    H     H_    0.378700 0.209689 0.995260 0.405002
H7    H     H_    0.557227 0.757164 0.977232 0.409850
H8    H     H_    0.735812 0.182911 0.124146 0.394189
H9    H     H_    0.949924 0.532033 0.989688 0.379181
H10   H     H_    0.966532 0.746969 0.261784 0.143102
H11   H     H_    0.880947 0.729095 0.253005 0.192892
H12   H     H_    0.744308 0.664377 0.599095 0.208600
H13   H     H_    0.037795 0.699883 0.223834 0.190975
H14   H     H_    0.429733 0.112448 0.439918 0.199604
H15   H     H_    0.538330 0.094370 0.493859 0.178078
H16   H     H_    0.503688 0.313430 0.875316 0.181729
H17   H     H_    0.479414 0.570406 0.885732 0.287106
N1    N     N_R   0.202192 0.526408 0.511938 -0.381209
N2    N     N_R   0.798367 0.498096 0.479653 -0.388499
N3    N     N_2   0.499480 0.498660 0.846910 -0.311245
N4    N     N_2   0.499460 0.498630 0.153040 -0.094479
O1    O     O_R   0.500010 0.321960 0.617040 -0.511879
O2    O     O_R   0.569740 0.500000 0.617090 -0.452450
O3    O     O_R   0.569730 0.499960 0.382940 -0.439726
O4    O     O_2   0.200214 0.407997 0.705442 -0.343458
O5    O     O_2   0.166378 0.831322 0.209202 -0.162250
O6    O     O_2   0.163484 0.633369 0.080918 -0.132050
O7    O     O_3   0.093257 0.782678 0.054987 -0.492810
O8    O     O_2   0.609642 0.776656 0.541207 -0.245709
O9    O     O_2   0.619888 0.688155 0.765633 -0.209935
O10   O     O_3   0.687447 0.834800 0.674467 -0.468829
O11   O     O_2   0.463376 0.827097 0.183629 -0.183668
O12   O     O_2   0.794948 0.350510 0.647736 -0.356961
O13   O     O_2   0.401431 0.761357 0.350242 -0.249442
O14   O     O_3   0.393217 0.974050 0.242784 -0.458680
O15   O     O_2   0.430214 0.256823 0.226861 -0.274862
O16   O     O_2   0.387705 0.428772 0.133550 -0.237922
O17   O     O_3   0.410477 0.246644 0.969530 -0.496255
O18   O     O_2   0.573676 0.658357 0.211577 -0.193947
O19   O     O_2   0.583977 0.518967 0.014263 -0.229864
O20   O     O_3   0.528105 0.706661 0.999446 -0.463310
O21   O     O_2   0.801180 0.313046 0.285288 -0.243349
O22   O     O_2   0.745830 0.166602 0.395730 -0.175261
O23   O     O_2   0.209545 0.644082 0.319043 -0.335003
O24   O     O_3   0.720815 0.257066 0.166244 -0.413209
O25   O     O_2   0.007467 0.333459 0.952690 -0.221391
O26   O     O_2   0.047806 0.530510 0.005573 -0.205363
O27   O     O_3   0.964046 0.534417 0.895854 -0.517107
O28   O     O_2   0.798936 0.647790 0.312414 -0.423821
O29   O     O_R   0.499990 0.321920 0.382900 -0.470230
O30   O     O_R   0.430270 0.500040 0.617060 -0.485460
O31   O     O_R   0.430260 0.500000 0.382910 -0.448587
O32   O     O_R   0.500010 0.678080 0.617100 -0.438821
O33   O     O_R   0.499990 0.678040 0.382960 -0.441678
S1    S     S_3+6 0.134057 0.726806 0.160250 0.141787
S2    S     S_3+6 0.645475 0.725647 0.636142 0.090872
S3    S     S_3+6 0.430741 0.868915 0.299713 0.096037
S4    S     S_3+6 0.426298 0.336121 0.105747 0.065245
S5    S     S_3+6 0.547806 0.593815 0.095666 0.166282
S6    S     S_3+6 0.749017 0.281848 0.315721 0.151156
S7    S     S_3+6 0.016671 0.461272 0.903806 0.064624

loop_
_geom_bond_atom_site_label_1
_geom_bond_atom_site_label_2
_ccdc_geom_bond_type
C10   C27   A    
H9    O27   S    
C8    C13   A    
C22   C29   A    
H7    O20   S    
C1    O1    A    
C35   C36   S    
C34   C42   A    
O14   S3    S    
C12   Cl3   S    
O18   S5    D    
C1    C33   S    
C7    C8    A    
C16   C31   S    
C5    C9    A    
C12   C23   A    
C28   C46   S    
C26   C27   A    
C12   C41   A    
Cu2   O29   S    
O6    S1    D    
C7    Cl6   S    
C30   C31   D    
H6    O17   S    
O19   S5    D    
C14   S6    S    
C18   C19   A    
C37   C42   A    
C28   O3    A    
C36   N4    D    
C20   C24   A    
C8    C9    A    
N4    S5    S    
C11   O28   S    
C15   Cl5   S    
O21   S6    D    
C28   O2    A    
O16   S4    D    
Cu1   O1    S    
C35   H16   S    
C21   C22   A    
Cu2   O33   S    
C6    H2    S    
O20   S5    S    
C2    C6    A    
O24   S6    S    
C23   N1    S    
H17   N3    S    
C36   S4    S    
C17   S2    S    
C25   C44   A    
C4    O31   A    
C16   O33   A    
C4    C45   S    
C19   N2    S    
C25   C29   A    
C40   C45   A    
C37   O4    S    
O8    S2    D    
Cu1   O30   S    
C2    C20   A    
C34   C44   A    
C17   C46   A    
C39   C40   A    
O11   S3    D    
O9    S2    D    
C18   H12   S    
C4    O30   A    
O15   S4    D    
C30   S3    S    
C41   H1    S    
C38   C44   A    
H8    O24   S    
C29   H13   S    
Cu2   O3    S    
O13   S3    D    
C35   N3    D    
C17   C18   A    
O7    S1    S    
O17   S4    S    
O5    S1    D    
C32   H14   S    
C33   H15   S    
Cu2   N4    S    
C25   S1    S    
C24   S7    S    
C31   Cl2   S    
C2    C5    A    
C42   C43   A    
C39   Cl1   S    
C9    C10   A    
C24   C43   A    
C37   N1    A    
Cu1   Cu2   S    
C26   H10   S    
C14   C19   A    
C3    C26   A    
C38   O23   S    
C3    C5    A    
C11   N2    A    
C43   Cl4   S    
C6    C7    A    
C21   C34   A    
H5    O14   S    
Cu1   O32   S    
C32   C33   D    
O27   S7    S    
H4    O10   S    
C27   H11   S    
H3    O7    S    
C30   C32   S    
O22   S6    D    
C23   C39   A    
C13   O12   S    
O10   S2    S    
O26   S7    D    
C10   C11   A    
C16   O32   A    
Cu1   N3    S    
C20   C21   A    
C40   Cl7   S    
Cu2   O31   S    
O25   S7    D    
C41   C45   A    
C14   C15   A    
C3    C22   A    
C15   C46   A    
C1    O29   A    
C13   N2    A    
Cu1   O2    S    
C38   N1    A    
