data_mof_unit_12510.cif
_audit_creation_date              2012-12-10T16:58:31-0500
_audit_creation_method            fapswitch 2.2
_symmetry_space_group_name_H-M    P1
_symmetry_Int_Tables_number       1
_space_group_crystal_system       triclinic
_cell_length_a                    7.75416
_cell_length_b                    8.56653
_cell_length_c                    23.40323
_cell_angle_alpha                 91.075949
_cell_angle_beta                  86.028921
_cell_angle_gamma                 93.777609
_cell_volume                      1547.32895915

loop_
_atom_site_label
_atom_site_type_symbol
_atom_type_description
_atom_site_fract_x
_atom_site_fract_y
_atom_site_fract_z
_atom_type_partial_charge
C1    C     C_R   0.545927 0.794809 0.498546 0.952908
C2    C     C_R   0.345874 0.464368 0.300849 -0.358386
C3    C     C_R   0.375187 0.551805 0.766694 0.597692
C4    C     C_R   0.342251 0.472311 0.241614 0.598230
C5    C     C_R   0.513376 0.487050 0.791304 0.147093
C6    C     C_R   0.492184 0.528720 0.208993 0.119206
C7    C     C_2   0.570143 0.958353 0.497766 -0.395917
C8    C     C_2   0.430003 0.041673 0.502515 -0.374147
C9    C     C_R   0.502224 0.497747 0.610559 0.922628
C10   C     C_R   0.498211 0.503228 0.389536 0.930098
C11   C     C_R   0.478633 0.379482 0.120801 0.581662
C12   C     C_R   0.454114 0.205203 0.501558 0.951322
C13   C     C_R   0.560506 0.631105 0.878411 0.572039
C14   C     C_R   0.531870 0.657660 0.117837 0.485873
C15   C     C_R   0.486922 0.355485 0.881548 0.511746
C16   C     C_R   0.544907 0.653265 0.058056 -0.013919
C17   C     C_R   0.486840 0.357979 0.941199 -0.018249
C18   C     C_R   0.515964 0.508544 0.029643 -0.019986
C19   C     C_R   0.521162 0.502087 0.969560 -0.018145
C20   C     C_R   0.480992 0.370387 0.061165 -0.040175
C21   C     C_R   0.559280 0.639978 0.938013 -0.032410
C22   C     C_R   0.584974 0.789669 0.026222 -0.165067
C23   C     C_R   0.643509 0.418658 0.757235 -0.298824
C24   C     C_R   0.450738 0.221066 0.973019 -0.165243
C25   C     C_R   0.593168 0.782932 0.966653 -0.161952
C26   C     C_R   0.448933 0.227089 0.032519 -0.162245
C27   C     C_3   0.724942 0.189736 0.657775 -0.242453
C28   C     C_3   0.779271 0.801770 0.330764 -0.268094
C29   C     C_3   0.094033 0.526420 0.801334 -0.281716
C30   C     C_3   0.101018 0.534455 0.200030 -0.272272
C31   C     C_R   0.638270 0.587189 0.236124 -0.274697
C32   C     C_R   0.639817 0.417147 0.697869 0.499798
C33   C     C_R   0.640359 0.584003 0.295393 0.504427
C34   C     C_R   0.506663 0.490514 0.672612 -0.224350
C35   C     C_R   0.495300 0.516721 0.327773 -0.230895
C36   C     C_R   0.374509 0.556149 0.707227 -0.380333
H1    H     H_    0.610868 0.901630 0.047195 0.190956
H2    H     H_    0.297739 0.990394 0.507051 0.181910
H3    H     H_    0.013762 0.382804 0.456826 0.193081
H4    H     H_    0.986226 0.617182 0.543176 0.197873
H5    H     H_    0.828472 0.136528 0.630326 0.186723
H6    H     H_    0.602324 0.170580 0.635754 0.147879
H7    H     H_    0.713635 0.128559 0.699547 0.179495
H8    H     H_    0.895602 0.845957 0.352631 0.193109
H9    H     H_    0.663471 0.828125 0.359282 0.150230
H10   H     H_    0.779689 0.865322 0.289694 0.181654
H11   H     H_    0.112555 0.406126 0.816059 0.172694
H12   H     H_    0.422894 0.109297 0.952119 0.194531
H13   H     H_    0.040559 0.521878 0.758403 0.178734
H14   H     H_    0.996560 0.577763 0.831825 0.205283
H15   H     H_    0.175270 0.612209 0.168287 0.164711
H16   H     H_    0.056315 0.603710 0.238297 0.196375
H17   H     H_    0.985283 0.483822 0.179340 0.196166
H18   H     H_    0.624541 0.889984 0.943193 0.193094
H19   H     H_    0.419588 0.119836 0.056003 0.195332
H20   H     H_    0.747771 0.366677 0.776993 0.172105
H21   H     H_    0.751212 0.634342 0.210939 0.172933
H22   H     H_    0.272241 0.613334 0.688257 0.203668
H23   H     H_    0.233065 0.414218 0.325593 0.204634
H24   H     H_    0.702417 0.009623 0.493250 0.179849
N1    N     N_R   0.499571 0.521955 0.147845 -0.340651
N2    N     N_R   0.521808 0.490986 0.851814 -0.334713
N3    N     N_2   0.950330 0.457950 0.484560 -0.161246
N4    N     N_2   0.049670 0.542050 0.515440 -0.162944
O1    O     O_R   0.389250 0.738570 0.503790 -0.614722
O2    O     O_2   0.598901 0.761132 0.847108 -0.524157
O3    O     O_2   0.549475 0.796356 0.145879 -0.542223
O4    O     O_2   0.450475 0.219633 0.853382 -0.538755
O5    O     O_3   0.771271 0.350490 0.664934 -0.595743
O6    O     O_3   0.787943 0.639470 0.321114 -0.599280
O7    O     O_3   0.249321 0.621826 0.801162 -0.577581
O8    O     O_3   0.197739 0.410508 0.215707 -0.571209
O9    O     O_R   0.610750 0.261430 0.496210 -0.617736
O10   O     O_R   0.678390 0.711620 0.493890 -0.633870
O11   O     O_R   0.321610 0.288380 0.506110 -0.630771
O12   O     O_R   0.355400 0.513520 0.588790 -0.618984
O13   O     O_R   0.644600 0.486480 0.411210 -0.564341
O14   O     O_R   0.644550 0.486570 0.578900 -0.579066
O15   O     O_R   0.355450 0.513430 0.421100 -0.635808
O16   O     O_2   0.457042 0.247099 0.151603 -0.501913
Zn1   Zn    Zn3+2 0.306930 0.518000 0.506610 0.955440
Zn2   Zn    Zn3+2 0.693070 0.482000 0.493390 0.982000

loop_
_geom_bond_atom_site_label_1
_geom_bond_atom_site_label_2
_ccdc_geom_bond_type
C2    C35   A    
C30   H15   S    
C7    H24   S    
C2    C4    A    
C26   H19   S    
C7    C8    D    
C29   H13   S    
C28   H10   S    
C29   H11   S    
C1    O10   A    
C3    C36   A    
C6    N1    S    
C19   C21   A    
C24   C26   A    
C36   H22   S    
C18   C19   A    
C27   H5    S    
C21   C25   A    
C17   C19   A    
C13   N2    A    
C22   C25   A    
C1    O1    A    
C14   O3    S    
C31   C33   A    
C10   C35   S    
C9    O12   A    
C18   C20   A    
C27   O5    S    
C13   O2    S    
C6    C31   A    
C12   O9    A    
C8    H2    S    
O10   Zn2   S    
C10   O13   A    
C29   H14   S    
C28   H9    S    
C30   H17   S    
C11   C20   A    
C17   C24   A    
N3    Zn2   S    
C24   H12   S    
C23   H20   S    
C25   H18   S    
C4    C6    A    
O15   Zn1   S    
C2    H23   S    
O11   Zn1   S    
C3    C5    A    
C22   H1    S    
C28   H8    S    
C32   C34   A    
C3    O7    S    
O14   Zn2   S    
O1    Zn1   S    
C5    C23   A    
C8    C12   S    
C13   C21   A    
C33   O6    S    
C9    C34   S    
C14   C16   A    
O9    Zn2   S    
C4    O8    S    
C15   C17   A    
C30   H16   S    
C16   C22   A    
C1    C7    S    
C28   O6    S    
C11   N1    A    
O12   Zn1   S    
C30   O8    S    
C10   O15   A    
C32   O5    S    
H3    N3    S    
H4    N4    S    
C23   C32   A    
C31   H21   S    
C14   N1    A    
C27   H6    S    
C20   C26   A    
O13   Zn2   S    
C15   O4    S    
C33   C35   A    
C15   N2    A    
C5    N2    S    
C34   C36   A    
C9    O14   A    
N4    Zn1   S    
C11   O16   S    
N3    N4    D    
C27   H7    S    
C16   C18   A    
C12   O11   A    
C29   O7    S    
