data_mof_unit_32514.cif
_audit_creation_date              2012-10-26T20:35:05-0400
_audit_creation_method            fapswitch 2.2
_symmetry_space_group_name_H-M    P1
_symmetry_Int_Tables_number       1
_space_group_crystal_system       triclinic
_cell_length_a                    8.947463
_cell_length_b                    17.655386
_cell_length_c                    16.605291
_cell_angle_alpha                 90.867495
_cell_angle_beta                  98.070047
_cell_angle_gamma                 97.38374
_cell_volume                      2574.16863261

loop_
_atom_site_label
_atom_site_type_symbol
_atom_type_description
_atom_site_fract_x
_atom_site_fract_y
_atom_site_fract_z
_atom_type_partial_charge
C1    C     C_R   0.504163 0.355644 0.500043 0.569059
C2    C     C_R   0.571901 0.561200 0.258742 0.394416
C3    C     C_R   0.422262 0.436018 0.822082 -0.101581
C4    C     C_R   0.573050 0.557932 0.173256 -0.094507
C5    C     C_R   0.520166 0.487662 0.874885 -0.068290
C6    C     C_R   0.508333 0.494029 0.125519 -0.072721
C7    C     C_1   0.517468 0.487837 0.963562 0.031899
C8    C     C_1   0.513852 0.490246 0.037144 0.031013
C9    C     C_R   0.205057 0.502837 0.478991 0.572799
C10   C     C_R   0.797237 0.503159 0.519951 0.586840
C11   C     C_2   0.040463 0.499581 0.465315 0.160109
C12   C     C_R   0.500110 0.644255 0.500531 0.568222
C13   C     C_2   0.964109 0.520403 0.527101 0.197053
C14   C     C_R   0.641616 0.853177 0.498335 -0.084785
C15   C     C_R   0.581187 0.158307 0.442413 -0.086375
C16   C     C_R   0.639317 0.774190 0.498725 -0.071792
C17   C     C_R   0.579709 0.237235 0.442628 -0.075347
C18   C     C_R   0.502442 0.726732 0.501903 0.070464
C19   C     C_R   0.509948 0.272936 0.500689 0.014933
C20   C     C_R   0.367770 0.758456 0.505121 -0.074018
C21   C     C_R   0.448565 0.229094 0.561049 -0.108768
C22   C     C_R   0.370018 0.837605 0.504715 -0.078689
C23   C     C_1   0.509929 0.965848 0.500432 0.002086
C24   C     C_R   0.449951 0.150347 0.560783 -0.102548
C25   C     C_R   0.506979 0.884827 0.501101 0.040628
C26   C     C_R   0.514780 0.114905 0.501020 0.032387
C27   C     C_1   0.512778 0.033912 0.500279 0.000236
C28   C     C_R   0.605056 0.546268 0.840510 -0.103052
C29   C     C_R   0.435884 0.434163 0.163949 -0.099857
C30   C     C_R   0.589595 0.555083 0.755154 0.374451
C31   C     C_R   0.426714 0.437235 0.248527 0.373602
C32   C     C_R   0.409213 0.442352 0.736194 0.359696
Cu1   Cu    Cu3+1 0.499990 0.499980 0.580420 1.210468
Cu2   Cu    Cu3+1 0.500010 0.500020 0.419580 1.227099
H1    H     H_    0.748026 0.889495 0.495852 0.130663
H2    H     H_    0.384916 0.383946 0.126819 0.180151
H3    H     H_    0.347589 0.393222 0.848584 0.180586
H4    H     H_    0.626190 0.605806 0.142891 0.180877
H5    H     H_    0.005445 0.431254 0.248001 0.383538
H6    H     H_    0.024649 0.613895 0.729729 0.390782
H7    H     H_    0.778272 0.709665 0.644123 0.367951
H8    H     H_    0.195639 0.301265 0.370965 0.361287
H9    H     H_    0.123427 0.336406 0.569865 0.354704
H10   H     H_    0.865840 0.675829 0.398307 0.363144
H11   H     H_    0.633966 0.131219 0.396761 0.145034
H12   H     H_    0.744222 0.750270 0.497019 0.159863
H13   H     H_    0.634711 0.270394 0.398246 0.204540
H14   H     H_    0.261335 0.722067 0.506981 0.165531
H15   H     H_    0.398248 0.255312 0.608066 0.201476
H16   H     H_    0.265392 0.861909 0.506893 0.134459
H17   H     H_    0.400021 0.117095 0.606957 0.142656
H18   H     H_    0.673962 0.589291 0.881736 0.179385
N1    N     N_R   0.499960 0.499970 0.701210 -0.251121
N2    N     N_R   0.500040 0.500030 0.298790 -0.247507
O1    O     O_R   0.499990 0.391240 0.567930 -0.483720
O2    O     O_2   0.854310 0.517159 0.324960 -0.251195
O3    O     O_3   0.071067 0.448104 0.299920 -0.430658
O4    O     O_2   0.213739 0.610986 0.619877 -0.248238
O5    O     O_2   0.986315 0.666210 0.573236 -0.332691
O6    O     O_3   0.980260 0.570813 0.691223 -0.427089
O7    O     O_2   0.513092 0.690117 0.707249 -0.236506
O8    O     O_2   0.750254 0.693176 0.799886 -0.291751
O9    O     O_3   0.751244 0.654227 0.651216 -0.452932
O10   O     O_2   0.194545 0.325214 0.210395 -0.282769
O11   O     O_2   0.426725 0.291276 0.286048 -0.300864
O12   O     O_R   0.500010 0.608760 0.432070 -0.452262
O13   O     O_3   0.240726 0.354523 0.363640 -0.442873
O14   O     O_2   0.221837 0.310705 0.728824 -0.310789
O15   O     O_2   0.109227 0.426441 0.695808 -0.235377
O16   O     O_3   0.229266 0.361388 0.586128 -0.525950
O17   O     O_2   0.776332 0.686206 0.251129 -0.286694
O18   O     O_2   0.552857 0.702841 0.313792 -0.267234
O19   O     O_3   0.770934 0.639783 0.396709 -0.489256
O20   O     O_R   0.500000 0.391270 0.432120 -0.442123
O21   O     O_R   0.500000 0.608730 0.567880 -0.425358
O22   O     O_R   0.274830 0.499990 0.552240 -0.429394
O23   O     O_R   0.725170 0.500010 0.447760 -0.436397
O24   O     O_R   0.274840 0.500020 0.416420 -0.431109
O25   O     O_R   0.725160 0.499980 0.583580 -0.450516
O26   O     O_2   0.852658 0.387154 0.374603 -0.307530
S1    S     S_3+6 0.950295 0.461570 0.365642 0.046728
S2    S     S_3+6 0.043712 0.593909 0.602947 0.050557
S3    S     S_3+6 0.651138 0.650140 0.728791 0.068681
S4    S     S_3+6 0.321382 0.351216 0.278369 0.070086
S5    S     S_3+6 0.241578 0.384634 0.685307 0.038645
S6    S     S_3+6 0.668383 0.649567 0.305431 0.073452

loop_
_geom_bond_atom_site_label_1
_geom_bond_atom_site_label_2
_ccdc_geom_bond_type
Cu1   O1    S    
O8    S3    D    
H6    O6    S    
C11   C13   D    
O5    S2    D    
Cu2   O12   S    
C21   H15   S    
O2    S1    D    
C11   S1    S    
C29   H2    S    
C26   C27   S    
C1    O20   A    
C19   C21   A    
C24   C26   A    
O4    S2    D    
Cu2   O23   S    
C5    C28   A    
C30   S3    S    
O10   S4    D    
O6    S2    S    
Cu1   O21   S    
C22   C25   A    
C9    O22   A    
C23   C27   T    
C22   H16   S    
C24   H17   S    
O13   S4    S    
C14   C25   A    
O14   S5    D    
H10   O19   S    
C10   O23   A    
Cu1   N1    S    
C30   N1    A    
C1    C19   S    
C7    C8    T    
C4    C6    A    
O7    S3    D    
C16   H12   S    
C14   H1    S    
C5    C7    S    
Cu1   O25   S    
O11   S4    D    
C6    C8    S    
C3    C5    A    
C12   O12   A    
C13   S2    S    
C31   S4    S    
O9    S3    S    
C2    C4    A    
O17   S6    D    
Cu1   O22   S    
Cu1   Cu2   S    
C9    C11   S    
C20   H14   S    
Cu2   O20   S    
C20   C22   A    
Cu2   N2    S    
H9    O16   S    
C2    N2    A    
H8    O13   S    
C14   C16   A    
C21   C24   A    
H7    O9    S    
C32   N1    A    
O15   S5    D    
C15   C17   A    
C17   H13   S    
C4    H4    S    
O26   S1    D    
C15   C26   A    
C10   C13   S    
O18   S6    D    
C10   O25   A    
C28   C30   A    
C1    O1    A    
C29   C31   A    
Cu2   O24   S    
C28   H18   S    
C32   S5    S    
C17   C19   A    
C2    S6    S    
C18   C20   A    
C9    O24   A    
C23   C25   S    
C31   N2    A    
C3    C32   A    
O3    S1    S    
O19   S6    S    
C6    C29   A    
C3    H3    S    
C16   C18   A    
C12   O21   A    
C12   C18   S    
C15   H11   S    
O16   S5    S    
H5    O3    S    
