data_mof_unit_63952.cif
_audit_creation_date              2012-12-10T18:13:10-0500
_audit_creation_method            fapswitch 2.2
_symmetry_space_group_name_H-M    P1
_symmetry_Int_Tables_number       1
_space_group_crystal_system       triclinic
_cell_length_a                    36.324259
_cell_length_b                    29.168426
_cell_length_c                    21.592801
_cell_angle_alpha                 90.116706
_cell_angle_beta                  126.599236
_cell_angle_gamma                 89.927561
_cell_volume                      18367.0308898

loop_
_atom_site_label
_atom_site_type_symbol
_atom_type_description
_atom_site_fract_x
_atom_site_fract_y
_atom_site_fract_z
_atom_type_partial_charge
C1    C     C_R   0.913244 0.999994 0.913452 0.897613
C2    C     C_1   0.229448 0.999900 0.228889 0.000235
C3    C     C_3   0.489667 0.552253 0.276989 0.226165
C4    C     C_1   0.862586 0.999968 0.863020 -0.238119
C5    C     C_1   0.137414 0.999959 0.136978 -0.238151
C6    C     C_1   0.362587 0.499946 0.863247 -0.239159
C7    C     C_1   0.637410 0.500081 0.137843 -0.233304
C8    C     C_3   0.088451 0.980834 0.897120 -0.403752
C9    C     C_3   0.122125 0.940625 0.924036 -0.361180
C10   C     C_3   0.170304 0.954312 0.992839 -0.861566
C11   C     C_3   0.089260 0.008015 0.276094 -0.404011
C12   C     C_3   0.134024 0.981506 0.332419 -0.365956
C13   C     C_1   0.270552 0.499875 0.771293 0.000822
C14   C     C_3   0.175679 0.009447 0.354159 -0.859332
C15   C     C_3   0.911533 0.981032 0.102781 -0.403766
C16   C     C_3   0.877856 0.940827 0.075608 -0.361209
C17   C     C_3   0.829669 0.954548 0.006942 -0.861584
C18   C     C_3   0.910736 0.007872 0.723933 -0.403891
C19   C     C_3   0.865969 0.981380 0.667432 -0.365999
C20   C     C_3   0.824315 0.009330 0.645847 -0.859348
C21   C     C_3   0.585910 0.465943 0.895761 -0.417988
C22   C     C_3   0.599003 0.423923 0.947998 -0.365540
C23   C     C_3   0.650006 0.424031 0.015069 -0.864713
C24   C     C_1   0.729448 0.500089 0.229912 0.000852
C25   C     C_3   0.589243 0.508215 0.276106 -0.403974
C26   C     C_3   0.634057 0.481777 0.332429 -0.365988
C27   C     C_3   0.675682 0.509957 0.354636 -0.859471
C28   C     C_3   0.411567 0.480866 0.102820 -0.403652
C29   C     C_3   0.377966 0.440599 0.075735 -0.361152
C30   C     C_3   0.329750 0.454226 0.007052 -0.861595
C31   C     C_3   0.411829 0.513151 0.729162 -0.396562
C32   C     C_3   0.364985 0.492139 0.665752 -0.369677
C33   C     C_3   0.325758 0.521967 0.650249 -0.859129
C34   C     C_3   0.057877 0.069986 0.744699 -0.359908
C35   C     C_1   0.728337 0.999912 0.728804 0.002715
C36   C     C_3   0.083834 0.107104 0.808302 -0.397150
C37   C     C_3   0.115787 0.135021 0.798996 -0.875734
C38   C     C_3   0.028908 0.085212 0.341125 -0.424546
C39   C     C_3   0.022919 0.136799 0.322480 -0.368035
C40   C     C_3   0.065062 0.163785 0.385661 -0.877281
C41   C     C_3   0.942144 0.070127 0.255721 -0.360003
C42   C     C_3   0.916189 0.107262 0.192349 -0.397033
C43   C     C_3   0.884250 0.135180 0.201844 -0.875594
C44   C     C_3   0.971113 0.085097 0.659361 -0.424460
C45   C     C_3   0.977099 0.136675 0.678350 -0.368141
C46   C     C_1   0.271663 0.999904 0.271194 0.002698
C47   C     C_3   0.934956 0.163678 0.615345 -0.877528
C48   C     C_3   0.573144 0.556890 0.773752 -0.437275
C49   C     C_3   0.594278 0.604288 0.810314 -0.391317
C50   C     C_3   0.646613 0.602468 0.861569 -0.871906
C51   C     C_3   0.528745 0.585267 0.340972 -0.424612
C52   C     C_3   0.522665 0.636843 0.322239 -0.367891
C53   C     C_3   0.564760 0.663904 0.385375 -0.876605
C54   C     C_3   0.442009 0.570027 0.255579 -0.359914
C55   C     C_3   0.415991 0.607118 0.192143 -0.397213
C56   C     C_3   0.384004 0.634981 0.201591 -0.875135
C57   C     C_1   0.228337 0.499886 0.728937 0.002579
C58   C     C_3   0.496482 0.594473 0.680767 -0.422777
C59   C     C_3   0.444159 0.597537 0.622247 -0.393047
C60   C     C_3   0.429228 0.645586 0.587684 -0.875640
C61   C     C_1   0.771662 0.500060 0.271965 0.001926
C62   C     C_1   0.678497 0.999935 0.678825 -0.002405
C63   C     C_1   0.321503 0.999931 0.321174 -0.002399
C64   C     C_1   0.178497 0.499920 0.678892 -0.002459
C65   C     C_R   0.086756 0.999991 0.086547 0.897619
C66   C     C_1   0.821502 0.500032 0.321574 -0.002602
C67   C     C_1   0.636274 0.999962 0.636477 -0.205512
C68   C     C_1   0.363726 0.999960 0.363522 -0.205502
C69   C     C_1   0.136274 0.499954 0.636499 -0.205510
C70   C     C_1   0.863725 0.500015 0.363657 -0.205506
C71   C     C_R   0.000001 0.913248 0.499998 0.908686
C72   C     C_R   0.999999 0.086743 0.500005 0.886265
C73   C     C_R   0.500001 0.413250 0.500023 0.913410
C74   C     C_R   0.500004 0.586741 0.499665 0.894715
C75   C     C_R   0.000046 0.998250 0.622498 0.864971
C76   C     C_R   0.413246 0.499991 0.913653 0.897328
C77   C     C_R   0.999955 0.998342 0.377486 0.864972
C78   C     C_R   0.500145 0.501229 0.622604 0.885015
C79   C     C_R   0.499955 0.498347 0.377486 0.864093
C80   C     C_R   0.500000 0.085584 0.500055 0.877864
C81   C     C_R   0.500004 0.914408 0.499935 0.877581
C82   C     C_R   0.000000 0.585584 0.500055 0.877855
C83   C     C_R   1.000000 0.414407 0.499944 0.877590
C84   C     C_R   0.585580 0.999992 0.585637 0.877793
C85   C     C_R   0.414420 0.999992 0.414363 0.877815
C86   C     C_R   0.085580 0.499991 0.585640 0.877803
C87   C     C_R   0.586755 0.500011 0.086790 0.907615
C88   C     C_R   0.914420 0.500001 0.414380 0.877785
C89   C     C_1   0.000004 0.862573 0.500045 -0.240253
C90   C     C_1   0.999996 0.137397 0.499949 -0.243076
C91   C     C_1   0.500004 0.362574 0.500060 -0.240724
C92   C     C_1   0.500043 0.637395 0.499269 -0.247227
C93   C     C_R   0.000906 0.000128 0.878493 0.859072
C94   C     C_R   0.999089 0.000203 0.121500 0.859138
C95   C     C_R   0.502305 0.500019 0.879976 0.877442
C96   C     C_R   0.499088 0.500203 0.121498 0.859767
C97   C     C_1   0.000004 0.820361 0.500087 -0.005424
C98   C     C_1   0.820377 0.999933 0.820951 -0.023786
C99   C     C_1   0.999995 0.179599 0.499901 -0.008166
C100  C     C_1   0.500005 0.320362 0.500097 -0.004857
C101  C     C_1   0.500074 0.679598 0.499104 -0.015609
C102  C     C_1   0.000004 0.770528 0.500134 -0.000784
C103  C     C_1   0.999996 0.229425 0.499851 -0.000226
C104  C     C_1   0.500004 0.270529 0.500141 -0.000511
C105  C     C_1   0.500072 0.729425 0.499137 0.000650
C106  C     C_1   0.500004 0.228316 0.500169 -0.000670
C107  C     C_1   0.500059 0.771641 0.499289 -0.000521
C108  C     C_1   0.000003 0.728316 0.500165 -0.000730
C109  C     C_1   0.179623 0.999923 0.179045 -0.023746
C110  C     C_1   0.999997 0.271640 0.499823 -0.000990
C111  C     C_1   0.500003 0.178482 0.500181 -0.001651
C112  C     C_1   0.500039 0.821486 0.499543 -0.002290
C113  C     C_1   0.000002 0.678482 0.500179 -0.001702
C114  C     C_1   0.999998 0.321485 0.499814 -0.002241
C115  C     C_1   0.500001 0.136268 0.500158 -0.205468
C116  C     C_1   0.500021 0.863709 0.499757 -0.205692
C117  C     C_1   0.000001 0.636268 0.500157 -0.205488
C118  C     C_1   0.999999 0.363708 0.499841 -0.205779
C119  C     C_3   0.039450 0.968013 0.825182 -0.079169
C120  C     C_1   0.320377 0.499895 0.821180 -0.023734
C121  C     C_3   0.046783 0.982497 0.260346 -0.093814
C122  C     C_3   0.960537 0.968187 0.174628 -0.079048
C123  C     C_3   0.953212 0.982347 0.739540 -0.093980
C124  C     C_3   0.535627 0.463098 0.820061 -0.075051
C125  C     C_3   0.546816 0.482594 0.260378 -0.093892
C126  C     C_3   0.460595 0.468116 0.174692 -0.078996
C127  C     C_3   0.452370 0.486671 0.739318 -0.103690
C128  C     C_3   0.036854 0.966107 0.751356 -0.454898
C129  C     C_3   0.046708 0.983113 0.331701 -0.440020
C130  C     C_3   0.963144 0.966252 0.248442 -0.455011
C131  C     C_1   0.679624 0.500119 0.180169 -0.026480
C132  C     C_3   0.953292 0.982985 0.668189 -0.439932
C133  C     C_3   0.533029 0.462935 0.745797 -0.482948
C134  C     C_3   0.546735 0.483199 0.331726 -0.439997
C135  C     C_3   0.463204 0.466189 0.248507 -0.455117
C136  C     C_3   0.452223 0.490256 0.667931 -0.425916
C137  C     C_3   0.009052 0.050303 0.794357 -0.378201
C138  C     C_3   0.990952 0.050464 0.205892 -0.378696
C139  C     C_3   0.513506 0.549673 0.799413 -0.392643
C140  C     C_3   0.490856 0.550451 0.205795 -0.378870
C141  C     C_3   0.000672 0.000639 0.810636 0.028312
C142  C     C_1   0.770552 0.999909 0.771107 0.000229
C143  C     C_3   0.999323 0.000803 0.189351 0.028403
C144  C     C_3   0.501325 0.500368 0.811454 0.036062
C145  C     C_3   0.499320 0.500806 0.189349 0.028339
C146  C     C_3   0.000331 0.000786 0.690294 0.048188
C147  C     C_3   0.999672 0.000913 0.309703 0.048085
C148  C     C_3   0.501149 0.502437 0.691086 0.076538
C149  C     C_3   0.499667 0.500916 0.309699 0.048717
C150  C     C_3   0.010244 0.052130 0.723197 0.225883
C151  C     C_3   0.989767 0.052268 0.277091 0.226159
C152  C     C_3   0.519947 0.550835 0.734376 0.232530
H1    H     H_    0.031941 0.932891 0.835277 0.156938
H2    H     H_    0.052909 0.947561 0.354772 0.156230
H3    H     H_    0.993158 0.150267 0.319022 0.243196
H4    H     H_    0.032287 0.081451 0.395438 0.202973
H5    H     H_    0.062321 0.075384 0.354548 0.200129
H6    H     H_    0.859466 0.112229 0.200699 0.262985
H7    H     H_    0.904369 0.154342 0.257270 0.259620
H8    H     H_    0.864838 0.160201 0.153894 0.253033
H9    H     H_    0.939598 0.131070 0.191687 0.223835
H10   H     H_    0.894744 0.090589 0.134737 0.211370
H11   H     H_    0.917292 0.042003 0.236761 0.188768
H12   H     H_    0.948028 0.083033 0.309505 0.211796
H13   H     H_    0.973069 0.930851 0.272359 0.148591
H14   H     H_    0.928967 0.158727 0.558945 0.267822
H15   H     H_    0.904137 0.152383 0.610510 0.258197
H16   H     H_    0.940478 0.200767 0.629870 0.253913
H17   H     H_    0.982276 0.142923 0.733772 0.218222
H18   H     H_    0.006862 0.150156 0.681904 0.243122
H19   H     H_    0.967755 0.081374 0.605042 0.203088
H20   H     H_    0.937690 0.075259 0.645840 0.200120
H21   H     H_    0.659501 0.578731 0.910711 0.258751
H22   H     H_    0.658847 0.590732 0.827737 0.261803
H23   H     H_    0.660723 0.637180 0.884917 0.252817
H24   H     H_    0.947092 0.947438 0.644904 0.156195
H25   H     H_    0.583215 0.629910 0.764257 0.224811
H26   H     H_    0.583341 0.616641 0.845650 0.223387
H27   H     H_    0.593156 0.531556 0.819845 0.215966
H28   H     H_    0.580495 0.550714 0.731574 0.220880
H29   H     H_    0.570766 0.658920 0.441755 0.268234
H30   H     H_    0.595596 0.652685 0.390141 0.257974
H31   H     H_    0.559166 0.700990 0.371042 0.253934
H32   H     H_    0.517476 0.643113 0.266847 0.218127
H33   H     H_    0.492879 0.650258 0.318754 0.243417
H34   H     H_    0.532126 0.581507 0.395286 0.202577
H35   H     H_    0.518879 0.429384 0.715814 0.155674
H36   H     H_    0.562179 0.575499 0.354428 0.200103
H37   H     H_    0.359259 0.611987 0.200484 0.262978
H38   H     H_    0.404089 0.654176 0.256985 0.259885
H39   H     H_    0.364550 0.659969 0.153599 0.252914
H40   H     H_    0.439360 0.630965 0.191443 0.223846
H41   H     H_    0.394575 0.590408 0.134560 0.211354
H42   H     H_    0.417206 0.541858 0.236662 0.188779
H43   H     H_    0.447866 0.582942 0.309337 0.211740
H44   H     H_    0.439202 0.671225 0.633337 0.258979
H45   H     H_    0.445165 0.654926 0.558746 0.271517
H46   H     H_    0.552994 0.447653 0.354845 0.156185
H47   H     H_    0.391371 0.646505 0.544297 0.252143
H48   H     H_    0.431967 0.573696 0.573577 0.243493
H49   H     H_    0.427569 0.590146 0.650337 0.224114
H50   H     H_    0.507045 0.624960 0.718850 0.210504
H51   H     H_    0.510579 0.599241 0.647462 0.195820
H52   H     H_    0.473191 0.430805 0.272491 0.148490
H53   H     H_    0.441221 0.456468 0.637823 0.157056
H54   H     H_    0.070962 0.970982 0.763988 0.182614
H55   H     H_    0.075729 0.003308 0.379744 0.187212
H56   H     H_    0.929040 0.971125 0.235851 0.182678
H57   H     H_    0.049679 0.946059 0.247979 0.154187
H58   H     H_    0.924272 0.003187 0.620266 0.187210
H59   H     H_    0.567314 0.464557 0.758026 0.181401
H60   H     H_    0.575721 0.503438 0.379746 0.187315
H61   H     H_    0.429091 0.471002 0.235909 0.182667
H62   H     H_    0.425603 0.514065 0.625255 0.182423
H63   H     H_    0.041047 0.063291 0.847565 0.155705
H64   H     H_    0.018138 0.073398 0.214846 0.165455
H65   H     H_    0.958955 0.063456 0.152757 0.155620
H66   H     H_    0.981866 0.073247 0.785520 0.165600
H67   H     H_    0.544798 0.561726 0.855167 0.157691
H68   H     H_    0.968026 0.933061 0.164315 0.157141
H69   H     H_    0.517999 0.573438 0.214708 0.165488
H70   H     H_    0.458836 0.563382 0.152633 0.155583
H71   H     H_    0.486352 0.574231 0.786286 0.168821
H72   H     H_    0.183251 0.983014 0.976961 0.258336
H73   H     H_    0.170143 0.964975 0.042043 0.269138
H74   H     H_    0.193826 0.924632 0.011104 0.250250
H75   H     H_    0.110367 0.911403 0.941152 0.222568
H76   H     H_    0.123631 0.928990 0.876586 0.222894
H77   H     H_    0.101647 0.010671 0.884114 0.209902
H78   H     H_    0.087733 0.990787 0.946033 0.194792
H79   H     H_    0.950314 0.945909 0.751698 0.154049
H80   H     H_    0.172720 0.019242 0.301748 0.269850
H81   H     H_    0.178581 0.040999 0.385698 0.255837
H82   H     H_    0.207297 0.988741 0.392031 0.251824
H83   H     H_    0.137867 0.973020 0.386109 0.225223
H84   H     H_    0.133319 0.948869 0.305040 0.222415
H85   H     H_    0.085741 0.012289 0.221762 0.202590
H86   H     H_    0.092127 0.042847 0.299158 0.207398
H87   H     H_    0.816739 0.983220 0.023065 0.258327
H88   H     H_    0.829806 0.965266 0.957796 0.269164
H89   H     H_    0.806146 0.924866 0.988475 0.250230
H90   H     H_    0.521842 0.429122 0.820787 0.157927
H91   H     H_    0.889594 0.911628 0.058251 0.222600
H92   H     H_    0.876374 0.929149 0.123000 0.222870
H93   H     H_    0.898344 0.010858 0.115990 0.209931
H94   H     H_    0.912247 0.991014 0.053928 0.194758
H95   H     H_    0.827265 0.019106 0.698310 0.269869
H96   H     H_    0.821428 0.040892 0.614514 0.255834
H97   H     H_    0.792694 0.988637 0.607832 0.251815
H98   H     H_    0.862131 0.972908 0.613697 0.225234
H99   H     H_    0.866663 0.948737 0.694605 0.222398
H100  H     H_    0.914247 0.012131 0.778284 0.202613
H101  H     H_    0.549794 0.446166 0.248076 0.154155
H102  H     H_    0.907881 0.042710 0.701085 0.207411
H103  H     H_    0.670755 0.418659 0.993338 0.256664
H104  H     H_    0.659979 0.457158 0.046376 0.269139
H105  H     H_    0.657582 0.395931 0.055735 0.253044
H106  H     H_    0.578771 0.423619 0.971160 0.252221
H107  H     H_    0.591312 0.391935 0.914178 0.217850
H108  H     H_    0.611214 0.467441 0.882869 0.210070
H109  H     H_    0.590939 0.497415 0.929041 0.191097
H110  H     H_    0.672767 0.520143 0.302412 0.269856
H111  H     H_    0.678478 0.541288 0.386528 0.255725
H112  H     H_    0.468152 0.433003 0.164451 0.157224
H113  H     H_    0.707335 0.489269 0.392323 0.251856
H114  H     H_    0.637801 0.473016 0.385945 0.225264
H115  H     H_    0.633514 0.449289 0.304875 0.222263
H116  H     H_    0.585716 0.512537 0.221777 0.202057
H117  H     H_    0.592041 0.543033 0.299159 0.207565
H118  H     H_    0.316772 0.482881 0.023121 0.258304
H119  H     H_    0.329858 0.464935 0.957873 0.269216
H120  H     H_    0.306282 0.424503 0.988659 0.250227
H121  H     H_    0.389755 0.411420 0.058430 0.222637
H122  H     H_    0.376512 0.428920 0.123157 0.222815
H123  H     H_    0.446792 0.449976 0.746045 0.150645
H124  H     H_    0.398323 0.510671 0.115967 0.209883
H125  H     H_    0.412260 0.490843 0.053944 0.194745
H126  H     H_    0.328881 0.527310 0.704060 0.270363
H127  H     H_    0.326150 0.555812 0.627152 0.256463
H128  H     H_    0.292483 0.504924 0.607104 0.251762
H129  H     H_    0.361029 0.488376 0.610911 0.224846
H130  H     H_    0.362250 0.457509 0.684106 0.222113
H131  H     H_    0.414982 0.511913 0.783449 0.205245
H132  H     H_    0.412342 0.549706 0.716589 0.203379
H133  H     H_    0.140569 0.112067 0.800009 0.262997
H134  H     H_    0.026931 0.930712 0.727220 0.148575
H135  H     H_    0.095679 0.154199 0.743690 0.259588
H136  H     H_    0.135201 0.160027 0.847103 0.253000
H137  H     H_    0.060427 0.130914 0.809098 0.223834
H138  H     H_    0.105271 0.090415 0.865811 0.211380
H139  H     H_    0.082726 0.041856 0.763497 0.188811
H140  H     H_    0.052002 0.082911 0.691002 0.211869
H141  H     H_    0.071057 0.158798 0.442032 0.267901
H142  H     H_    0.095879 0.152506 0.390413 0.258161
H143  H     H_    0.059537 0.200880 0.371386 0.253929
H144  H     H_    0.017739 0.143076 0.267098 0.218213
O1    O     O_R   0.936850 0.964330 0.936870 -0.596742
O2    O     O_R   0.000010 0.035670 0.092610 -0.628408
O3    O     O_R   0.000010 0.964330 0.092610 -0.627974
O4    O     O_R   0.999990 0.035670 0.907390 -0.628572
O5    O     O_R   0.499990 0.464330 0.907390 -0.636446
O6    O     O_R   0.500010 0.535670 0.092610 -0.628507
O7    O     O_R   0.500010 0.464330 0.092610 -0.627595
O8    O     O_R   0.499990 0.535670 0.907390 -0.627735
O9    O     O_R   0.964320 0.936860 0.464320 -0.599383
O10   O     O_R   0.035680 0.063140 0.535680 -0.602882
O11   O     O_R   0.035680 0.936860 0.535680 -0.599383
O12   O     O_R   0.063150 0.035670 0.063130 -0.602599
O13   O     O_R   0.964320 0.063140 0.464320 -0.602894
O14   O     O_R   0.464320 0.436860 0.464320 -0.598813
O15   O     O_R   0.535680 0.563140 0.535680 -0.605573
O16   O     O_R   0.535680 0.436860 0.535680 -0.597967
O17   O     O_R   0.464320 0.563140 0.464320 -0.600573
O18   O     O_R   0.964330 0.000000 0.556950 -0.627325
O19   O     O_R   0.035670 0.000000 0.443050 -0.627261
O20   O     O_R   0.464330 0.500000 0.556950 -0.630542
O21   O     O_R   0.535670 0.500000 0.443050 -0.627744
O22   O     O_R   0.035630 0.000000 0.628230 -0.632690
O23   O     O_R   0.063150 0.964330 0.063130 -0.596731
O24   O     O_R   0.964370 0.000000 0.371770 -0.632615
O25   O     O_R   0.535630 0.500000 0.628230 -0.638953
O26   O     O_R   0.464370 0.500000 0.371770 -0.633370
O27   O     O_R   0.499940 0.063120 0.447680 -0.592870
O28   O     O_R   0.500060 0.936880 0.552320 -0.592910
O29   O     O_R   0.500060 0.063120 0.552320 -0.592894
O30   O     O_R   0.499940 0.936880 0.447680 -0.592966
O31   O     O_R   0.999940 0.563120 0.447680 -0.592848
O32   O     O_R   0.000060 0.436880 0.552320 -0.592907
O33   O     O_R   0.000060 0.563120 0.552320 -0.592925
O34   O     O_R   0.936850 0.035670 0.936870 -0.602595
O35   O     O_R   0.999940 0.436880 0.447680 -0.592960
O36   O     O_R   0.563110 0.000000 0.510830 -0.593094
O37   O     O_R   0.436890 0.000000 0.489170 -0.593070
O38   O     O_R   0.063110 0.500000 0.510830 -0.593101
O39   O     O_R   0.936890 0.500000 0.489170 -0.593081
O40   O     O_R   0.563120 0.000000 0.615390 -0.592677
O41   O     O_R   0.436880 0.000000 0.384610 -0.592677
O42   O     O_R   0.063120 0.500000 0.615390 -0.592666
O43   O     O_R   0.936880 0.500000 0.384610 -0.592695
O44   O     O_R   0.436850 0.464330 0.936870 -0.596074
O45   O     O_R   0.563150 0.535670 0.063130 -0.602952
O46   O     O_R   0.563150 0.464330 0.063130 -0.607053
O47   O     O_R   0.436850 0.535670 0.936870 -0.601797
O48   O     O_R   0.999990 0.964330 0.907390 -0.627758
Zn1   Zn    Zn3+2 1.000000 0.952370 0.000000 0.931960
Zn2   Zn    Zn3+2 0.500030 1.000000 0.569830 0.959642
Zn3   Zn    Zn3+2 0.999970 0.500000 0.430170 0.959589
Zn4   Zn    Zn3+2 0.000030 0.500000 0.569830 0.959637
Zn5   Zn    Zn3+2 0.000000 0.047630 0.000000 0.926393
Zn6   Zn    Zn3+2 0.500000 0.452370 0.000000 0.920407
Zn7   Zn    Zn3+2 0.500000 0.547630 0.000000 0.927245
Zn8   Zn    Zn3+2 0.952370 0.000000 0.452390 0.926398
Zn9   Zn    Zn3+2 0.047630 0.000000 0.547610 0.926403
Zn10  Zn    Zn3+2 0.452370 0.500000 0.452390 0.925585
Zn11  Zn    Zn3+2 0.547630 0.500000 0.547610 0.924982
Zn12  Zn    Zn3+2 0.499970 0.000000 0.430170 0.959633

loop_
_geom_bond_atom_site_label_1
_geom_bond_atom_site_label_2
_ccdc_geom_bond_type
C99   C103  S    
C24   C61   T    
O8    Zn7   S    
C107  C112  S    
C19   C20   S    
C43   H6    S    
C45   H18   S    
C25   H116  S    
C42   H9    S    
C96   C145  S    
C124  C133  S    
C80   O29   A    
C78   C148  S    
C26   H115  S    
C138  C143  S    
C53   H31   S    
C136  H53   S    
C3    C54   S    
C139  C152  S    
C100  C104  S    
C83   O35   A    
C79   O21   A    
C74   C92   S    
C146  C150  S    
O6    Zn7   S    
C96   O7    A    
C91   C100  T    
C77   C147  S    
C14   H80   S    
C10   H72   S    
C79   C149  S    
C119  C128  S    
C56   H39   S    
C17   H89   S    
C95   C144  S    
C119  H1    S    
C21   C22   S    
C137  H63   S    
O13   Zn8   S    
C128  H54   S    
C58   C152  S    
C49   H25   S    
C45   C47   S    
C77   O19   A    
O37   Zn2   S    
C3    C149  S    
C78   O20   A    
C51   C52   S    
C127  C136  S    
C37   H133  S    
C44   C150  S    
C108  C113  S    
C82   O33   A    
C31   H131  S    
C44   H20   S    
C123  C141  S    
O44   Zn6   S    
C73   O14   A    
O39   Zn4   S    
C17   H87   S    
C5    C65   S    
C119  C141  S    
C32   H129  S    
C139  H71   S    
C52   H32   S    
C38   H5    S    
C127  H123  S    
C140  C145  S    
C19   H98   S    
C41   C151  S    
C138  C151  S    
C106  C111  S    
C128  C146  S    
C55   H40   S    
C27   H110  S    
C130  H13   S    
C140  H70   S    
C66   C70   T    
C9    H76   S    
O9    Zn8   S    
O40   Zn2   S    
C129  C147  S    
C130  H56   S    
C58   H50   S    
C41   H12   S    
C22   C23   S    
O14   Zn10  S    
C25   H117  S    
C129  H2    S    
C26   H114  S    
C2    C109  S    
C54   H42   S    
C123  C132  S    
C40   H142  S    
C24   C131  S    
C31   C127  S    
C37   H135  S    
C18   H102  S    
C105  C107  T    
C103  C110  T    
C36   C37   S    
C87   O46   A    
C43   H7    S    
C38   C39   S    
C13   C57   T    
C73   O16   A    
O18   Zn8   S    
C74   O15   A    
O46   Zn6   S    
C78   O25   A    
C9    C10   S    
C110  C114  S    
C98   C142  S    
C68   C85   S    
O34   Zn5   S    
O21   Zn11  S    
C96   O6    A    
C122  C143  S    
O5    Zn6   S    
C126  C145  S    
O30   Zn12  S    
C72   O13   A    
C33   H126  S    
C75   C146  S    
C29   H121  S    
C36   H137  S    
C56   H38   S    
C82   O31   A    
C30   H120  S    
O25   Zn11  S    
C39   C40   S    
C25   C26   S    
C77   O24   A    
C39   H3    S    
C50   H23   S    
C85   O41   A    
C147  C151  S    
C29   C30   S    
C72   C90   S    
C8    H77   S    
C31   C32   S    
C15   H94   S    
C59   H48   S    
C95   O5    A    
C64   C69   T    
C94   O2    A    
C136  C148  S    
C113  C117  T    
C16   H92   S    
C133  H59   S    
C137  C150  S    
O29   Zn2   S    
C90   C99   T    
C48   H28   S    
C13   C120  S    
C52   C53   S    
C34   H139  S    
C54   C55   S    
O10   Zn9   S    
C130  C147  S    
C148  C152  S    
C23   H104  S    
C45   H17   S    
C42   H10   S    
C6    C76   S    
C72   O10   A    
O38   Zn3   S    
O43   Zn3   S    
O16   Zn11  S    
C136  H62   S    
C46   C63   S    
C85   O37   A    
C51   H34   S    
C125  C145  S    
C53   H30   S    
C47   H16   S    
C19   H99   S    
O19   Zn9   S    
C81   C116  S    
C34   C36   S    
C133  H35   S    
C35   C142  T    
C139  H67   S    
C59   C60   S    
O48   Zn1   S    
C49   C50   S    
C80   O27   A    
C14   H81   S    
C8    C119  S    
C33   H128  S    
C125  C134  S    
O11   Zn9   S    
C12   H83   S    
O1    Zn1   S    
C55   C56   S    
C15   C122  S    
C41   C42   S    
C38   C151  S    
C30   H118  S    
C112  C116  T    
C104  C106  T    
C34   C150  S    
C28   H125  S    
C22   H106  S    
C11   H86   S    
C138  H64   S    
C26   C27   S    
O3    Zn1   S    
C50   H21   S    
C1    O1    A    
C28   C29   S    
O20   Zn10  S    
C81   O30   A    
C12   H84   S    
C18   C19   S    
C132  H24   S    
C25   C125  S    
C63   C68   T    
C20   H95   S    
C7    C87   S    
C138  H65   S    
C16   C17   S    
O47   Zn7   S    
C10   H73   S    
O28   Zn2   S    
C7    C131  T    
C97   C102  S    
C18   C123  S    
C32   H130  S    
C28   C126  S    
C132  H58   S    
O24   Zn8   S    
C71   O11   A    
C47   H14   S    
C3    C51   S    
C58   C59   S    
C88   O43   A    
C65   O12   A    
O22   Zn9   S    
C80   C115  S    
C27   H111  S    
O23   Zn1   S    
C126  H112  S    
C9    H75   S    
O27   Zn12  S    
C1    O34   A    
C48   C49   S    
C58   H51   S    
C48   C152  S    
C42   C43   S    
C75   O22   A    
C93   C141  S    
C44   C45   S    
C49   H26   S    
C137  C141  S    
C54   H43   S    
O33   Zn4   S    
C121  C129  S    
C135  H52   S    
O36   Zn12  S    
C132  C146  S    
C32   C33   S    
O26   Zn10  S    
C21   C124  S    
C31   H132  S    
C87   O45   A    
C44   H19   S    
C20   H97   S    
C27   H113  S    
C5    C109  T    
C129  H55   S    
C127  C144  S    
C17   H88   S    
C123  H79   S    
O15   Zn11  S    
C82   C117  S    
C65   O23   A    
C4    C98   T    
O2    Zn5   S    
C121  C143  S    
C38   H4    S    
C74   O17   A    
C70   C88   S    
C71   O9    A    
C2    C46   T    
C81   O28   A    
C36   H138  S    
C76   O47   A    
C122  H68   S    
C62   C67   T    
C94   C143  S    
C83   C118  S    
O32   Zn4   S    
C140  H69   S    
C28   H124  S    
C15   C16   S    
O42   Zn4   S    
C60   H47   S    
C8    H78   S    
C61   C66   S    
C15   H93   S    
C18   H100  S    
C8    C9    S    
C137  H66   S    
C95   O8    A    
C93   O4    A    
C102  C108  T    
O4    Zn5   S    
C121  H57   S    
C94   O3    A    
O35   Zn3   S    
C67   C84   S    
C84   O36   A    
C40   H141  S    
C11   C121  S    
C79   O26   A    
C37   H136  S    
C6    C120  T    
C51   H36   S    
C34   H140  S    
C101  C105  S    
C134  C149  S    
C134  H60   S    
C73   C91   S    
C23   H103  S    
C43   H8    S    
C88   O39   A    
C135  C149  S    
C86   O42   A    
C89   C97   T    
C53   H29   S    
C47   H15   S    
C139  C144  S    
C59   H49   S    
C71   C89   S    
C76   O44   A    
O12   Zn5   S    
C133  C148  S    
C93   O48   A    
C125  H101  S    
C114  C118  T    
C92   C101  T    
C21   H109  S    
C55   H41   S    
C12   C14   S    
C52   H33   S    
C124  H90   S    
C14   H82   S    
C60   H44   S    
C57   C64   S    
C33   H127  S    
C29   H122  S    
C134  H46   S    
C56   H37   S    
C83   O32   A    
C30   H119  S    
C126  C135  S    
C11   C12   S    
C21   H108  S    
O41   Zn12  S    
C22   H107  S    
C11   H85   S    
C84   O40   A    
C50   H22   S    
C1    C4    S    
C86   O38   A    
C41   H11   S    
C128  H134  S    
O45   Zn7   S    
C135  H61   S    
O17   Zn10  S    
O7    Zn6   S    
C35   C62   S    
C60   H45   S    
C75   O18   A    
C16   H91   S    
C20   H96   S    
O31   Zn3   S    
C23   H105  S    
C39   H144  S    
C10   H74   S    
C124  C144  S    
C40   H143  S    
C111  C115  T    
C3    C140  S    
C122  C130  S    
C48   H27   S    
C69   C86   S    
