data_mof_unit_32542.cif
_audit_creation_date              2012-12-11T15:22:35-0500
_audit_creation_method            fapswitch 2.2
_symmetry_space_group_name_H-M    P1
_symmetry_Int_Tables_number       1
_space_group_crystal_system       triclinic
_cell_length_a                    22.520808
_cell_length_b                    13.073891
_cell_length_c                    26.828874
_cell_angle_alpha                 90.072821
_cell_angle_beta                  90.408564
_cell_angle_gamma                 90.029237
_cell_volume                      7899.1402122

loop_
_atom_site_label
_atom_site_type_symbol
_atom_type_description
_atom_site_fract_x
_atom_site_fract_y
_atom_site_fract_z
_atom_type_partial_charge
C1    C     C_R   0.721969 0.348492 0.179366 0.543565
C2    C     C_R   0.477063 0.255775 0.900838 0.135545
C3    C     C_R   0.961028 0.598624 0.543534 -0.127409
C4    C     C_R   0.566577 0.097919 0.407409 -0.118590
C5    C     C_R   0.463797 0.080607 0.596668 -0.121742
C6    C     C_R   0.058489 0.594028 0.407131 -0.121311
C7    C     C_R   0.947956 0.589802 0.593542 -0.121271
C8    C     C_R   0.732449 0.984886 0.378331 0.045492
C9    C     C_R   0.267484 0.984723 0.621703 0.051197
C10   C     C_R   0.232588 0.484768 0.378353 0.047250
C11   C     C_R   0.767699 0.484875 0.621649 0.048752
C12   C     C_R   0.711182 0.891847 0.397370 -0.177151
C13   C     C_R   0.021531 0.758077 0.101112 0.133927
C14   C     C_R   0.288839 0.891842 0.602503 -0.174384
C15   C     C_R   0.211576 0.391618 0.397480 -0.176786
C16   C     C_R   0.789054 0.391908 0.602532 -0.175091
C17   C     C_R   0.706328 0.878609 0.448999 -0.146530
C18   C     C_R   0.293567 0.878773 0.550847 -0.144302
C19   C     C_R   0.207170 0.378269 0.449155 -0.146124
C20   C     C_R   0.794062 0.378750 0.550901 -0.145877
C21   C     C_R   0.717072 0.961250 0.481144 -0.001371
C22   C     C_R   0.282777 0.961465 0.518880 0.004443
C23   C     C_R   0.218082 0.460910 0.481278 0.000649
C24   C     C_R   0.995586 0.759190 0.891280 0.126417
C25   C     C_R   0.783500 0.461452 0.518875 0.001667
C26   C     C_R   0.729995 0.056928 0.461546 -0.108650
C27   C     C_R   0.269793 0.057010 0.538641 -0.102124
C28   C     C_R   0.230766 0.556611 0.461623 -0.106515
C29   C     C_R   0.770606 0.557110 0.538584 -0.104799
C30   C     C_R   0.744104 0.066602 0.411536 0.124910
C31   C     C_R   0.255599 0.066384 0.588639 0.129747
C32   C     C_R   0.244444 0.566411 0.411547 0.126122
C33   C     C_R   0.756175 0.566618 0.588545 0.126738
C34   C     C_R   0.787290 0.970027 0.552918 0.178791
C35   C     C_R   0.489810 0.262766 0.058945 0.045667
C36   C     C_R   0.212507 0.970118 0.447190 0.177515
C37   C     C_R   0.287293 0.472051 0.553794 0.178694
C38   C     C_R   0.712865 0.469583 0.447424 0.178224
C39   C     C_R   0.721803 0.351217 0.320518 0.556456
C40   C     C_R   0.277960 0.351712 0.679769 0.555742
C41   C     C_R   0.221820 0.851317 0.320469 0.560748
C42   C     C_R   0.778137 0.851303 0.679544 0.560851
C43   C     C_R   0.799733 0.956089 0.603553 0.167324
C44   C     C_R   0.200005 0.955891 0.396581 0.167160
C45   C     C_R   0.298883 0.459384 0.604682 0.169213
C46   C     C_R   0.479398 0.259473 0.953572 0.046643
C47   C     C_R   0.700074 0.455144 0.396873 0.167260
C48   C     C_R   0.699511 0.892303 0.616467 -0.178351
C49   C     C_R   0.300331 0.892697 0.383539 -0.182367
C50   C     C_R   0.199382 0.391729 0.616461 -0.181687
C51   C     C_R   0.800486 0.392699 0.383438 -0.180292
C52   C     C_R   0.685772 0.911941 0.566549 -0.175762
C53   C     C_R   0.314057 0.912353 0.433462 -0.174784
C54   C     C_R   0.186142 0.411006 0.566420 -0.175844
C55   C     C_R   0.814444 0.412416 0.433322 -0.174696
C56   C     C_R   0.730153 0.945367 0.534146 -0.001033
C57   C     C_R   0.017628 0.760089 0.048479 0.046122
C58   C     C_R   0.269669 0.945655 0.465893 -0.001637
C59   C     C_R   0.230690 0.445455 0.534420 -0.001136
C60   C     C_R   0.770176 0.445502 0.465921 -0.001199
C61   C     C_R   0.757807 0.905214 0.634106 -0.006526
C62   C     C_R   0.242024 0.905306 0.365953 -0.008036
C63   C     C_R   0.257294 0.406348 0.634626 -0.009475
C64   C     C_R   0.742060 0.405011 0.366048 -0.007092
C65   C     C_R   0.555257 0.158404 0.321902 0.533345
C66   C     C_R   0.445792 0.158247 0.678573 0.545825
C67   C     C_R   0.054949 0.658398 0.321725 0.541778
C68   C     C_R   0.007004 0.760908 0.943165 0.041453
C69   C     C_R   0.945277 0.658310 0.678380 0.537005
C70   C     C_R   0.730506 0.006563 0.324701 0.559335
C71   C     C_R   0.269453 0.006408 0.675334 0.551409
C72   C     C_R   0.230521 0.506530 0.324707 0.556288
C73   C     C_R   0.769503 0.506512 0.675296 0.559944
C74   C     C_R   0.496068 0.075356 0.109896 -0.166915
C75   C     C_R   0.457330 0.072542 0.905164 -0.160848
C76   C     C_R   0.028321 0.571839 0.098266 -0.146496
C77   C     C_R   0.996978 0.573123 0.892687 -0.139756
C78   C     C_R   0.478510 0.076765 0.060124 0.009895
C79   C     C_R   0.480248 0.169506 0.033481 0.031854
C80   C     C_R   0.461686 0.075062 0.956801 -0.008688
C81   C     C_R   0.023009 0.573140 0.046797 0.004625
C82   C     C_R   0.010641 0.574033 0.943187 0.014262
C83   C     C_R   0.453858 0.985321 0.984447 -0.143817
C84   C     C_R   0.463189 0.985739 0.035727 -0.128101
C85   C     C_R   0.018715 0.481877 0.968599 -0.121540
C86   C     C_R   0.024349 0.481241 0.020090 -0.134117
C87   C     C_3   0.585740 0.832799 0.102198 -0.328652
C88   C     C_3   0.381327 0.753386 0.878022 -0.323357
C89   C     C_3   0.113863 0.263796 0.114678 -0.326891
C90   C     C_R   0.473173 0.168314 0.981242 0.030149
C91   C     C_3   0.907834 0.313344 0.894004 -0.332508
C92   C     C_3   0.856646 0.104439 0.525700 -0.301490
C93   C     C_3   0.143148 0.104544 0.474426 -0.301511
C94   C     C_3   0.356526 0.606750 0.526453 -0.302575
C95   C     C_3   0.643575 0.603913 0.474812 -0.301833
C96   C     C_3   0.908078 0.937827 0.612082 -0.246917
C97   C     C_3   0.091666 0.936255 0.388459 -0.246081
C98   C     C_3   0.407355 0.449619 0.615425 -0.249147
C99   C     C_3   0.591752 0.434194 0.389482 -0.245683
C100  C     C_3   0.836151 0.150133 0.388951 -0.268423
C101  C     C_R   0.018205 0.667166 0.021555 0.029310
C102  C     C_3   0.163178 0.148595 0.611230 -0.271257
C103  C     C_3   0.336386 0.650165 0.389046 -0.268683
C104  C     C_3   0.663874 0.649405 0.611080 -0.269865
C105  C     C_3   0.445369 0.422387 0.869222 -0.294513
C106  C     C_3   0.545885 0.425520 0.136017 -0.281660
C107  C     C_3   0.951328 0.923587 0.867552 -0.294573
C108  C     C_3   0.058862 0.924370 0.130748 -0.284344
C109  C     C_3   0.884704 0.018287 0.114040 -0.000696
C110  C     C_3   0.924512 0.053552 0.156800 -0.366117
C111  C     C_3   0.114555 0.993158 0.866458 -0.019659
C112  C     C_R   0.277874 0.347779 0.820801 0.533990
C113  C     C_R   0.012103 0.667573 0.969266 0.030329
C114  C     C_3   0.105311 0.998133 0.810053 -0.357853
C115  C     C_3   0.357222 0.604925 0.105015 0.016273
C116  C     C_3   0.397920 0.666548 0.139164 -0.359958
C117  C     C_3   0.613531 0.513333 0.881141 0.000576
C118  C     C_3   0.575983 0.548855 0.837247 -0.368250
C119  C     C_3   0.584411 0.898612 0.952605 -0.299805
C120  C     C_3   0.306358 0.140558 0.057934 -0.248940
C121  C     C_3   0.119341 0.233986 0.965461 -0.305689
C122  C     C_3   0.904136 0.303439 0.041125 -0.311799
C123  C     C_3   0.626900 0.789381 0.841289 0.000033
C124  C     C_R   0.489646 0.354123 0.031412 -0.143320
C125  C     C_3   0.597324 0.798790 0.790139 -0.365003
C126  C     C_3   0.354303 0.967149 0.158233 -0.013835
C127  C     C_3   0.383509 0.038011 0.196140 -0.370779
C128  C     C_3   0.128847 0.278706 0.843744 0.008182
C129  C     C_3   0.108103 0.314747 0.792531 -0.369713
C130  C     C_3   0.870550 0.292012 0.160595 0.004415
C131  C     C_3   0.885670 0.315875 0.214905 -0.346998
C132  C     C_R   0.487334 0.352070 0.979544 -0.149369
C133  C     C_R   0.013784 0.852489 0.021873 -0.143588
C134  C     C_R   0.011027 0.852942 0.970061 -0.151182
C135  C     C_R   0.736954 0.948178 0.130289 0.040146
C136  C     C_R   0.256883 0.949138 0.868833 0.024324
C137  C     C_R   0.242969 0.445518 0.131625 0.028036
C138  C     C_R   0.760910 0.443150 0.868146 0.039844
C139  C     C_R   0.791277 0.946438 0.105009 0.240272
C140  C     C_R   0.220950 0.845231 0.178607 0.573568
C141  C     C_R   0.209098 0.983407 0.898665 0.248843
C142  C     C_R   0.295387 0.465398 0.104406 0.239319
C143  C     C_R   0.705821 0.439753 0.892207 0.239762
C144  C     C_R   0.791214 0.928907 0.052929 -0.122704
C145  C     C_R   0.209096 0.963208 0.949477 -0.099066
C146  C     C_R   0.298305 0.436860 0.054005 -0.134592
C147  C     C_R   0.704000 0.418433 0.943805 -0.123772
C148  C     C_R   0.737291 0.926821 0.025252 -0.035713
C149  C     C_R   0.254371 0.905732 0.970956 -0.050162
C150  C     C_R   0.247184 0.404904 0.028075 -0.053183
C151  C     C_R   0.777975 0.849371 0.820162 0.558125
C152  C     C_R   0.756978 0.410377 0.972088 -0.038569
C153  C     C_R   0.684600 0.926474 0.052231 -0.114249
C154  C     C_R   0.297521 0.860099 0.941215 -0.113491
C155  C     C_R   0.196195 0.382818 0.055785 -0.113765
C156  C     C_R   0.810767 0.408228 0.946436 -0.109814
C157  C     C_R   0.550901 0.157704 0.179319 0.549140
C158  C     C_R   0.444212 0.157007 0.823785 0.550688
C159  C     C_R   0.054344 0.657254 0.177054 0.544612
C160  C     C_R   0.948429 0.657517 0.821143 0.549576
C161  C     C_R   0.684539 0.918997 0.104059 0.101777
C162  C     C_R   0.463943 0.161931 0.876562 0.004317
C163  C     C_R   0.298656 0.878693 0.889421 0.099373
C164  C     C_R   0.196404 0.389552 0.108096 0.096014
C165  C     C_R   0.812039 0.407996 0.894259 0.102821
C166  C     C_R   0.691024 0.883459 0.937381 0.171656
C167  C     C_R   0.280748 0.956991 0.058829 0.158026
C168  C     C_R   0.208732 0.334862 0.944216 0.185863
C169  C     C_R   0.800280 0.356705 0.057826 0.177975
C170  C     C_R   0.700261 0.876665 0.885320 0.294026
C171  C     C_R   0.272029 0.942033 0.110535 0.262692
C172  C     C_R   0.206098 0.344966 0.891823 0.318610
C173  C     C_R   0.513059 0.165940 0.134154 -0.013470
C174  C     C_R   0.796785 0.362417 0.110478 0.296555
C175  C     C_R   0.795812 0.956924 0.895072 -0.182233
C176  C     C_R   0.207905 0.796658 0.092083 -0.198007
C177  C     C_R   0.289348 0.461465 0.894679 -0.184133
C178  C     C_R   0.703591 0.452453 0.103457 -0.177020
C179  C     C_R   0.785795 0.971701 0.945406 -0.163837
C180  C     C_R   0.217702 0.808605 0.041657 -0.181771
C181  C     C_R   0.282835 0.470374 0.945967 -0.161035
C182  C     C_R   0.711088 0.461594 0.052398 -0.161311
C183  C     C_R   0.737175 0.925353 0.969003 0.011111
C184  C     C_R   0.983849 0.664417 0.867612 -0.004846
C185  C     C_R   0.253304 0.888464 0.024689 -0.016207
C186  C     C_R   0.246669 0.401093 0.972249 0.005084
C187  C     C_R   0.755991 0.406790 0.027960 0.011725
C188  C     C_R   0.756607 0.898188 0.866411 0.024483
C189  C     C_R   0.233715 0.864060 0.126448 0.010342
C190  C     C_R   0.255019 0.390971 0.868028 0.024516
C191  C     C_R   0.742961 0.393613 0.131947 0.026172
C192  C     C_R   0.537957 0.164508 0.374029 0.031082
C193  C     C_R   0.472572 0.163784 0.629098 0.028573
C194  C     C_R   0.034645 0.664641 0.373083 0.029362
C195  C     C_R   0.030214 0.663200 0.125776 -0.001919
C196  C     C_R   0.967696 0.664258 0.627596 0.029637
C197  C     C_R   0.500308 0.241182 0.392097 -0.157676
C198  C     C_R   0.499783 0.253139 0.611438 -0.146850
C199  C     C_R   0.998704 0.744801 0.390067 -0.154581
C200  C     C_R   0.001616 0.747288 0.610914 -0.154127
C201  C     C_R   0.490899 0.249871 0.443427 -0.127617
C202  C     C_R   0.514836 0.261044 0.561087 -0.127195
C203  C     C_R   0.986853 0.753875 0.440986 -0.127940
C204  C     C_R   0.014764 0.756236 0.560234 -0.128233
C205  C     C_R   0.731267 0.999316 0.179713 0.570959
C206  C     C_R   0.501699 0.261239 0.110790 0.131620
C207  C     C_R   0.268102 0.000434 0.820357 0.554655
C208  C     C_R   0.232009 0.499503 0.179784 0.553278
C209  C     C_R   0.768383 0.498554 0.819940 0.568219
C210  C     C_R   0.519405 0.182087 0.476324 0.027941
C211  C     C_R   0.503868 0.178521 0.528897 0.033078
C212  C     C_R   0.011086 0.682759 0.474510 0.028239
C213  C     C_R   0.994150 0.681767 0.526668 0.029529
C214  C     C_R   0.557567 0.106908 0.458075 -0.131320
C215  C     C_R   0.479259 0.088040 0.547114 -0.125287
C216  C     C_R   0.046883 0.603179 0.457403 -0.128752
Cr1   Cr    Cr6+3 0.756570 0.170940 0.251190 0.997860
Cr2   Cr    Cr6+3 0.374010 0.036240 0.749520 1.017543
Cr3   Cr    Cr6+3 0.125990 0.536240 0.250480 1.014650
Cr4   Cr    Cr6+3 0.874010 0.536240 0.749520 1.014431
Cr5   Cr    Cr6+3 0.243430 0.170940 0.748810 0.991130
Cr6   Cr    Cr6+3 0.256570 0.670940 0.251190 1.007698
Cr7   Cr    Cr6+3 0.743430 0.670940 0.748810 1.001855
Cr8   Cr    Cr6+3 0.623740 0.299110 0.249580 0.983519
Cr9   Cr    Cr6+3 0.376260 0.299110 0.750420 0.983119
Cr10  Cr    Cr6+3 0.123740 0.799110 0.249580 0.983861
Cr11  Cr    Cr6+3 0.876260 0.799110 0.750420 0.980384
Cr12  Cr    Cr6+3 0.625990 0.036240 0.250480 1.012283
H1    H     H_    0.446486 0.000265 0.887418 0.156324
H2    H     H_    0.329817 0.810822 0.959062 0.114530
H3    H     H_    0.898697 0.869933 0.588269 0.174492
H4    H     H_    0.145678 0.032411 0.343945 0.251994
H5    H     H_    0.070470 0.910278 0.353250 0.158822
H6    H     H_    0.059759 0.986446 0.408092 0.128875
H7    H     H_    0.101428 0.868593 0.412225 0.174375
H8    H     H_    0.348919 0.538913 0.659058 0.248800
H9    H     H_    0.427429 0.424136 0.651145 0.154606
H10   H     H_    0.438856 0.503065 0.597457 0.125089
H11   H     H_    0.400619 0.382153 0.590740 0.174447
H12   H     H_    0.644921 0.531129 0.344591 0.251457
H13   H     H_    0.155837 0.362067 0.036797 0.152527
H14   H     H_    0.570305 0.407720 0.354468 0.160132
H15   H     H_    0.559861 0.484157 0.409273 0.129362
H16   H     H_    0.602028 0.366834 0.413297 0.175563
H17   H     H_    0.759916 0.220773 0.416279 0.244394
H18   H     H_    0.847822 0.175205 0.350789 0.171905
H19   H     H_    0.852701 0.070670 0.394323 0.135234
H20   H     H_    0.859931 0.201037 0.415498 0.095302
H21   H     H_    0.239207 0.220239 0.584085 0.244695
H22   H     H_    0.151344 0.173310 0.649440 0.170560
H23   H     H_    0.146945 0.068941 0.605650 0.132608
H24   H     H_    0.851830 0.407152 0.966874 0.154593
H25   H     H_    0.139244 0.199317 0.584777 0.095361
H26   H     H_    0.259978 0.720635 0.416134 0.244136
H27   H     H_    0.348139 0.674976 0.350866 0.172942
H28   H     H_    0.353025 0.570803 0.394592 0.135063
H29   H     H_    0.360017 0.701335 0.415564 0.095189
H30   H     H_    0.739986 0.720591 0.583854 0.244016
H31   H     H_    0.652094 0.674394 0.649258 0.170792
H32   H     H_    0.647501 0.569810 0.605593 0.135343
H33   H     H_    0.640011 0.700132 0.584585 0.094959
H34   H     H_    0.512974 0.330469 0.839647 0.262721
H35   H     H_    0.478694 0.293921 0.366719 0.098494
H36   H     H_    0.433122 0.435976 0.829659 0.168783
H37   H     H_    0.462504 0.495412 0.884676 0.107442
H38   H     H_    0.405264 0.400004 0.890370 0.167487
H39   H     H_    0.481149 0.343934 0.175176 0.256842
H40   H     H_    0.567214 0.436224 0.173024 0.171756
H41   H     H_    0.528050 0.500777 0.124122 0.114153
H42   H     H_    0.579580 0.399669 0.108745 0.152538
H43   H     H_    0.013565 0.840099 0.826590 0.249472
H44   H     H_    0.929540 0.935879 0.830902 0.176942
H45   H     H_    0.969480 0.998398 0.879832 0.099359
H46   H     H_    0.508327 0.316863 0.636221 0.098903
H47   H     H_    0.918120 0.897134 0.895096 0.161609
H48   H     H_    0.990403 0.837864 0.162626 0.260132
H49   H     H_    0.071376 0.940604 0.170012 0.172195
H50   H     H_    0.042942 0.997257 0.114380 0.108230
H51   H     H_    0.098562 0.898595 0.109874 0.169912
H52   H     H_    0.863184 0.087174 0.097354 0.125080
H53   H     H_    0.912614 0.980132 0.085533 0.145445
H54   H     H_    0.946451 0.987785 0.174866 0.168072
H55   H     H_    0.958826 0.107236 0.142986 0.064147
H56   H     H_    0.897581 0.090897 0.185949 0.152294
H57   H     H_    0.980442 0.800154 0.364183 0.100107
H58   H     H_    0.076155 0.030803 0.884492 0.131701
H59   H     H_    0.114242 0.911487 0.878711 0.144243
H60   H     H_    0.134975 0.942529 0.791289 0.145294
H61   H     H_    0.058707 0.980660 0.799907 0.085863
H62   H     H_    0.114749 0.075958 0.795954 0.159107
H63   H     H_    0.316284 0.651119 0.098244 0.136305
H64   H     H_    0.380634 0.592826 0.069139 0.106173
H65   H     H_    0.439636 0.623633 0.146379 0.147578
H66   H     H_    0.409005 0.740699 0.121310 0.059714
H67   H     H_    0.375497 0.681882 0.175140 0.167880
H68   H     H_    0.017132 0.805162 0.636814 0.095425
H69   H     H_    0.635124 0.581909 0.898233 0.109015
H70   H     H_    0.584275 0.476392 0.909010 0.148654
H71   H     H_    0.552141 0.483954 0.819883 0.161451
H72   H     H_    0.543309 0.607040 0.849502 0.068983
H73   H     H_    0.605447 0.580776 0.808281 0.165764
H74   H     H_    0.642973 0.793674 0.987690 0.236608
H75   H     H_    0.547916 0.856623 0.971098 0.116180
H76   H     H_    0.571215 0.912026 0.913381 0.196784
H77   H     H_    0.589944 0.974876 0.970214 0.154657
H78   H     H_    0.333228 0.031837 0.005355 0.262260
H79   H     H_    0.470760 0.023689 0.522547 0.107070
H80   H     H_    0.306406 0.193128 0.025442 0.122969
H81   H     H_    0.341743 0.165813 0.084202 0.186757
H82   H     H_    0.262464 0.146578 0.076440 0.165494
H83   H     H_    0.204582 0.215188 0.996805 0.242465
H84   H     H_    0.102789 0.221222 0.003778 0.091813
H85   H     H_    0.107172 0.166120 0.942944 0.171353
H86   H     H_    0.097095 0.302561 0.950166 0.172854
H87   H     H_    0.827090 0.245313 0.005375 0.245543
H88   H     H_    0.924377 0.308703 0.003773 0.105987
H89   H     H_    0.925407 0.237647 0.060162 0.122339
H90   H     H_    0.579648 0.053997 0.483164 0.114970
H91   H     H_    0.914112 0.375448 0.061517 0.201205
H92   H     H_    0.592274 0.770404 0.868908 0.138022
H93   H     H_    0.659356 0.725507 0.840940 0.163867
H94   H     H_    0.631699 0.806604 0.760909 0.159198
H95   H     H_    0.569305 0.731429 0.781526 0.066190
H96   H     H_    0.568251 0.867411 0.789219 0.169358
H97   H     H_    0.383513 0.962117 0.125040 0.147953
H98   H     H_    0.350235 0.889941 0.175366 0.124076
H99   H     H_    0.355661 0.043383 0.230043 0.158520
H100  H     H_    0.427877 0.007774 0.206802 0.101476
H101  H     H_    0.945250 0.540476 0.517797 0.112088
H102  H     H_    0.388947 0.115559 0.179922 0.162105
H103  H     H_    0.089661 0.246959 0.863201 0.123952
H104  H     H_    0.161154 0.215668 0.839400 0.222360
H105  H     H_    0.072732 0.373292 0.796651 0.154310
H106  H     H_    0.145657 0.348773 0.771722 0.167005
H107  H     H_    0.089957 0.249380 0.770825 0.064527
H108  H     H_    0.912650 0.270766 0.142368 0.124552
H109  H     H_    0.840321 0.224899 0.158128 0.164638
H110  H     H_    0.846402 0.346508 0.234655 0.175528
H111  H     H_    0.901091 0.245699 0.234266 0.065966
H112  H     H_    0.500099 0.002461 0.128808 0.135271
H113  H     H_    0.065444 0.547573 0.483095 0.113734
H114  H     H_    0.921607 0.374022 0.216713 0.150054
H115  H     H_    0.442400 0.010868 0.608916 0.136254
H116  H     H_    0.597222 0.040034 0.394376 0.142314
H117  H     H_    0.920548 0.526162 0.605258 0.139231
H118  H     H_    0.087665 0.533051 0.395063 0.140137
H119  H     H_    0.460573 0.307309 0.457355 0.110528
H120  H     H_    0.534974 0.330665 0.547318 0.106325
H121  H     H_    0.958248 0.814658 0.454106 0.110235
H122  H     H_    0.041333 0.819878 0.547322 0.108603
H123  H     H_    0.700571 0.828960 0.372541 0.110957
H124  H     H_    0.991840 0.500076 0.873946 0.151524
H125  H     H_    0.299530 0.828933 0.627208 0.106989
H126  H     H_    0.200846 0.328736 0.372683 0.110002
H127  H     H_    0.799545 0.328986 0.627288 0.110245
H128  H     H_    0.442725 0.913918 0.966201 0.095260
H129  H     H_    0.459650 0.914489 0.056078 0.086870
H130  H     H_    0.019158 0.410084 0.948733 0.088761
H131  H     H_    0.028819 0.408683 0.039009 0.087650
H132  H     H_    0.696456 0.803970 0.463948 0.104632
H133  H     H_    0.303346 0.804268 0.535697 0.102762
H134  H     H_    0.197407 0.303618 0.464140 0.104154
H135  H     H_    0.034315 0.498632 0.116603 0.157513
H136  H     H_    0.803853 0.304124 0.535838 0.103907
H137  H     H_    0.641263 0.897217 0.552733 0.115627
H138  H     H_    0.358569 0.897739 0.447256 0.118722
H139  H     H_    0.141978 0.394957 0.552176 0.116339
H140  H     H_    0.859058 0.398078 0.446949 0.117120
H141  H     H_    0.665775 0.860107 0.640311 0.126341
H142  H     H_    0.334093 0.860670 0.359649 0.126542
H143  H     H_    0.165694 0.358354 0.639959 0.126350
H144  H     H_    0.834193 0.360916 0.359410 0.125266
H145  H     H_    0.737381 0.121004 0.486516 0.118731
H146  H     H_    0.835552 0.988540 0.878964 0.123963
H147  H     H_    0.262290 0.121094 0.513786 0.116473
H148  H     H_    0.238082 0.620791 0.486537 0.117907
H149  H     H_    0.763268 0.621170 0.513679 0.117296
H150  H     H_    0.491700 0.424096 0.960346 0.124891
H151  H     H_    0.494227 0.427823 0.049110 0.134269
H152  H     H_    0.009960 0.926380 0.951819 0.123882
H153  H     H_    0.013052 0.925626 0.040444 0.126123
H154  H     H_    0.833237 0.919384 0.034240 0.110883
H155  H     H_    0.174327 0.995087 0.972537 0.131663
H156  H     H_    0.339876 0.445997 0.034541 0.116545
H157  H     H_    0.179310 0.735065 0.104468 0.134205
H158  H     H_    0.661414 0.410468 0.961814 0.111051
H159  H     H_    0.818242 0.015867 0.966209 0.108865
H160  H     H_    0.195967 0.757192 0.015551 0.141973
H161  H     H_    0.309281 0.527462 0.965153 0.105543
H162  H     H_    0.679489 0.507768 0.031794 0.108685
H163  H     H_    0.642827 0.843780 0.162071 0.257981
H164  H     H_    0.550932 0.806156 0.128297 0.122475
H165  H     H_    0.603600 0.765464 0.081920 0.128621
H166  H     H_    0.564294 0.886457 0.075800 0.150311
H167  H     H_    0.323684 0.808228 0.823192 0.250890
H168  H     H_    0.322970 0.506434 0.876178 0.117736
H169  H     H_    0.410143 0.723611 0.847876 0.129247
H170  H     H_    0.356393 0.688283 0.894267 0.130377
H171  H     H_    0.410603 0.789006 0.906566 0.134062
H172  H     H_    0.164130 0.322070 0.172395 0.261784
H173  H     H_    0.084834 0.229266 0.143444 0.128587
H174  H     H_    0.142180 0.202558 0.098660 0.140410
H175  H     H_    0.084369 0.296616 0.085729 0.130956
H176  H     H_    0.852223 0.336825 0.834236 0.258851
H177  H     H_    0.942250 0.287013 0.867447 0.124636
H178  H     H_    0.887674 0.245435 0.912162 0.132734
H179  H     H_    0.665611 0.488591 0.120420 0.123528
H180  H     H_    0.930052 0.362387 0.921824 0.143245
H181  H     H_    0.834625 0.971449 0.484929 0.249885
H182  H     H_    0.840274 0.152136 0.494600 0.121738
H183  H     H_    0.905863 0.103288 0.524595 0.138555
H184  H     H_    0.842353 0.140855 0.561039 0.165908
H185  H     H_    0.165194 0.971784 0.515207 0.248710
H186  H     H_    0.159636 0.152572 0.505435 0.121195
H187  H     H_    0.093937 0.103288 0.475667 0.138747
H188  H     H_    0.157286 0.140690 0.439014 0.165781
H189  H     H_    0.335630 0.472506 0.486353 0.249375
H190  H     H_    0.642973 0.932843 0.033874 0.145877
H191  H     H_    0.340445 0.653324 0.494847 0.121555
H192  H     H_    0.405759 0.606190 0.525801 0.138036
H193  H     H_    0.341601 0.643943 0.561395 0.167435
H194  H     H_    0.665959 0.471393 0.515637 0.250298
H195  H     H_    0.660555 0.652251 0.505513 0.121852
H196  H     H_    0.594390 0.602663 0.476580 0.138320
H197  H     H_    0.657166 0.639718 0.439165 0.165727
H198  H     H_    0.853477 0.033300 0.656427 0.250988
H199  H     H_    0.929076 0.912275 0.647407 0.157409
H200  H     H_    0.939979 0.988265 0.592620 0.127796
N1    N     N_2   0.632719 0.883643 0.129959 -0.469161
N2    N     N_2   0.144968 0.993504 0.377350 -0.504082
N3    N     N_2   0.352060 0.502077 0.625162 -0.504863
N4    N     N_2   0.644720 0.491957 0.377927 -0.504385
N5    N     N_2   0.772241 0.157924 0.395683 -0.473668
N6    N     N_2   0.227072 0.157276 0.604598 -0.471855
N7    N     N_2   0.272447 0.657771 0.395613 -0.474419
N8    N     N_2   0.727779 0.657721 0.604415 -0.474267
N9    N     N_2   0.491022 0.344560 0.872528 -0.519683
N10   N     N_2   0.497663 0.352795 0.139672 -0.499434
N11   N     N_2   0.999170 0.850554 0.862597 -0.540027
N12   N     N_2   0.340591 0.828453 0.857658 -0.489921
N13   N     N_2   0.011545 0.849091 0.129128 -0.519672
N14   N     N_2   0.638341 0.838250 0.956267 -0.548874
N15   N     N_2   0.318712 0.037029 0.041600 -0.510790
N16   N     N_2   0.183257 0.245680 0.966161 -0.513266
N17   N     N_2   0.840820 0.285065 0.036613 -0.545559
N18   N     N_2   0.150322 0.343031 0.137129 -0.485750
N19   N     N_2   0.863015 0.371584 0.867634 -0.473761
N20   N     N_2   0.834227 0.000961 0.520572 -0.510137
N21   N     N_2   0.165605 0.001151 0.479573 -0.510567
N22   N     N_2   0.334613 0.502883 0.521812 -0.511620
N23   N     N_2   0.666115 0.500577 0.479966 -0.509896
N24   N     N_2   0.854533 0.994557 0.622938 -0.504267
O1    O     O_R   0.769900 0.064540 0.196060 -0.498035
O2    O     O_R   0.433710 0.069580 0.694600 -0.520838
O3    O     O_R   0.066290 0.569580 0.305400 -0.519235
O4    O     O_R   0.933710 0.569580 0.694600 -0.523196
O5    O     O_R   0.680760 0.993330 0.302620 -0.512013
O6    O     O_R   0.319240 0.993330 0.697380 -0.508808
O7    O     O_R   0.180760 0.493330 0.302620 -0.511220
O8    O     O_R   0.819240 0.493330 0.697380 -0.510577
O9    O     O_3   0.668770 0.168760 0.250420 -0.236199
O10   O     O_3   0.331230 0.168760 0.749580 -0.236379
O11   O     O_3   0.168770 0.668760 0.250420 -0.243693
O12   O     O_R   0.230100 0.064540 0.803940 -0.491903
O13   O     O_3   0.831230 0.668760 0.749580 -0.237560
O14   O     O_R   0.750800 0.274080 0.199250 -0.514007
O15   O     O_R   0.249200 0.274080 0.800750 -0.512745
O16   O     O_R   0.250800 0.774080 0.199250 -0.519813
O17   O     O_R   0.749200 0.774080 0.800750 -0.503827
O18   O     O_R   0.669990 0.371670 0.194150 -0.539254
O19   O     O_R   0.330010 0.371670 0.805850 -0.539178
O20   O     O_R   0.169990 0.871670 0.194150 -0.531120
O21   O     O_R   0.830010 0.871670 0.805850 -0.543029
O22   O     O_R   0.574600 0.238480 0.197800 -0.493950
O23   O     O_R   0.269900 0.564540 0.196060 -0.474581
O24   O     O_R   0.425400 0.238480 0.802200 -0.495907
O25   O     O_R   0.074600 0.738480 0.197800 -0.500667
O26   O     O_R   0.925400 0.738480 0.802200 -0.495052
O27   O     O_R   0.566130 0.068680 0.194240 -0.504704
O28   O     O_R   0.433870 0.068680 0.805760 -0.514321
O29   O     O_R   0.066130 0.568680 0.194240 -0.510668
O30   O     O_R   0.933870 0.568680 0.805760 -0.507597
O31   O     O_R   0.680610 0.992490 0.199570 -0.496490
O32   O     O_R   0.319390 0.992490 0.800430 -0.492066
O33   O     O_R   0.180610 0.492490 0.199570 -0.499041
O34   O     O_R   0.730100 0.564540 0.803940 -0.503367
O35   O     O_R   0.819390 0.492490 0.800430 -0.495613
O36   O     O_R   0.770060 0.065440 0.307230 -0.496787
O37   O     O_R   0.229940 0.065440 0.692770 -0.506398
O38   O     O_R   0.270060 0.565440 0.307230 -0.497216
O39   O     O_R   0.729940 0.565440 0.692770 -0.498447
O40   O     O_R   0.750960 0.274920 0.302300 -0.494921
O41   O     O_R   0.249040 0.274920 0.697700 -0.491244
O42   O     O_R   0.250960 0.774920 0.302300 -0.489352
O43   O     O_R   0.749040 0.774920 0.697700 -0.491858
O44   O     O_R   0.670160 0.372580 0.305320 -0.515969
O45   O     O_R   0.574760 0.239320 0.300850 -0.512452
O46   O     O_R   0.329840 0.372580 0.694680 -0.516760
O47   O     O_R   0.170160 0.872580 0.305320 -0.515613
O48   O     O_R   0.829840 0.872580 0.694680 -0.517015
O49   O     O_3   0.843136 0.948115 0.133172 -0.544104
O50   O     O_3   0.166183 0.048544 0.880085 -0.572224
O51   O     O_3   0.344178 0.509888 0.127720 -0.531180
O52   O     O_3   0.654943 0.441935 0.863013 -0.544583
O53   O     O_3   0.652713 0.884812 0.852590 -0.563711
O54   O     O_3   0.298018 0.006664 0.145188 -0.563465
O55   O     O_3   0.150581 0.363333 0.870973 -0.580462
O56   O     O_R   0.425240 0.239320 0.699150 -0.508854
O57   O     O_3   0.848359 0.380987 0.137548 -0.570082
O58   O     O_R   0.074760 0.739320 0.300850 -0.510578
O59   O     O_R   0.925240 0.739320 0.699150 -0.513472
O60   O     O_R   0.566290 0.069580 0.305400 -0.524035

loop_
_geom_bond_atom_site_label_1
_geom_bond_atom_site_label_2
_ccdc_geom_bond_type
C93   H188  S    
C21   C26   A    
C34   C56   A    
C126  C127  S    
C140  C189  S    
C24   C184  A    
C101  C113  A    
C120  H81   S    
C142  C146  A    
Cr4   O8    S    
C147  H158  S    
Cr4   O30   S    
C135  C139  A    
C66   O2    A    
C138  C165  A    
C35   C124  A    
Cr9   O56   S    
C138  C143  A    
C177  H168  S    
C87   H166  S    
C167  C185  A    
C120  N15   S    
C94   H192  S    
C88   H169  S    
C140  O16   A    
C89   H175  S    
C130  H109  S    
C158  O28   A    
Cr4   O35   S    
Cr5   O37   S    
C175  C188  A    
C146  C150  A    
C93   N21   S    
C152  C156  A    
C74   H112  S    
C169  C174  A    
C4    H116  S    
C25   C60   S    
C107  H47   S    
C81   C86   A    
C141  C145  A    
C174  C191  A    
C126  O54   S    
Cr3   O3    S    
H26   N7    S    
C149  C154  A    
C103  H28   S    
C57   C133  A    
H39   N10   S    
C52   H137  S    
C80   C83   A    
C165  N19   S    
C160  O30   A    
C205  O31   A    
C103  N7    S    
C71   O37   A    
C25   C29   A    
C151  C188  S    
C199  H57   S    
C70   O36   A    
C116  H65   S    
C4    C214  A    
C166  C183  A    
H34   N9    S    
C27   C31   A    
C5    H115  S    
C130  O57   S    
C28   C32   A    
C95   H195  S    
C169  C187  A    
C142  O51   S    
Cr11  O13   S    
C202  H120  S    
C47   C64   A    
C92   H182  S    
C98   H11   S    
C105  N9    S    
C17   C21   A    
Cr6   O11   S    
C92   N20   S    
C153  C161  A    
C104  H31   S    
C53   H138  S    
C71   O6    A    
C19   C23   A    
H21   N6    S    
C168  N16   S    
C76   C195  A    
C109  H53   S    
C11   C33   A    
C16   C20   A    
C178  C182  A    
C41   O47   A    
C98   H10   S    
C22   C27   A    
C75   C162  A    
C39   O40   A    
C36   C44   A    
C148  C153  A    
C37   C45   A    
C6    C194  A    
C109  H52   S    
C43   C61   A    
C36   N21   S    
C145  H155  S    
C49   C62   A    
C107  H44   S    
C205  O1    A    
C51   C64   A    
C96   H199  S    
C29   H149  S    
C22   C58   S    
C136  C207  S    
C53   C58   A    
C3    C213  A    
C82   C85   A    
C88   H171  S    
C118  H72   S    
C102  H25   S    
C127  H100  S    
C70   O5    A    
C130  C131  S    
C100  H19   S    
C210  C214  A    
C84   H129  S    
C114  H60   S    
C176  C189  A    
C77   C82   A    
Cr3   O33   S    
C121  H84   S    
C49   C53   A    
C100  N5    S    
Cr1   O40   S    
C102  H22   S    
H189  N22   S    
C49   H142  S    
C51   C55   A    
C180  H160  S    
C107  H45   S    
C204  H122  S    
C182  H162  S    
C108  N13   S    
C48   C52   A    
Cr8   O18   S    
C212  C213  S    
C203  H121  S    
C115  H64   S    
C7    C196  A    
Cr2   O10   S    
Cr6   O42   S    
Cr1   O9    S    
C43   N24   S    
H181  N20   S    
C97   H7    S    
C137  C142  A    
C116  H67   S    
C29   C33   A    
C161  N1    S    
C202  C211  A    
C128  C129  S    
C2    C162  A    
C141  O50   S    
C92   H184  S    
C98   H9    S    
C81   C101  A    
C85   C86   A    
C23   C59   S    
C95   H197  S    
Cr4   O13   S    
Cr7   O39   S    
C125  H94   S    
H163  N1    S    
C46   C132  A    
C110  H56   S    
C86   H131  S    
C15   H126  S    
C105  H37   S    
C115  C116  S    
C5    C215  A    
C124  C132  A    
C75   H1    S    
C133  H153  S    
C99   H16   S    
H4    N2    S    
C97   N2    S    
C1    O14   A    
C79   C90   A    
C128  H103  S    
C198  C202  A    
C91   H178  S    
C95   N23   S    
C16   H127  S    
Cr2   O28   S    
C173  C206  A    
C27   H147  S    
C119  H76   S    
C115  O51   S    
C8    C12   A    
C153  H190  S    
C37   N22   S    
H48   N13   S    
C18   H133  S    
C166  N14   S    
C121  N16   S    
C50   C63   A    
C135  C161  A    
Cr10  O47   S    
C208  O23   A    
C87   N1    S    
H78   N15   S    
C42   O48   A    
C54   H139  S    
C54   C59   A    
Cr7   O17   S    
Cr10  O11   S    
C114  H62   S    
C168  C186  A    
C216  H113  S    
C140  O20   A    
C102  H23   S    
C96   N24   S    
H194  N23   S    
C158  O24   A    
C146  H156  S    
C121  H86   S    
C48   H141  S    
C55   H140  S    
C172  C190  A    
C35   C206  A    
C83   C84   A    
C26   H145  S    
C200  C204  A    
C95   H196  S    
C23   C28   A    
H74   N14   S    
C131  H114  S    
C171  O54   S    
C37   C59   A    
C38   C60   A    
C26   C30   A    
C150  C155  A    
C28   H148  S    
C13   C195  A    
C108  H49   S    
C108  H51   S    
C65   O60   A    
C129  H105  S    
C209  O35   A    
C93   H187  S    
C106  N10   S    
C177  C190  A    
C119  H77   S    
C125  H96   S    
C18   C22   A    
C120  H82   S    
Cr3   O7    S    
C34   C43   A    
C82   C113  A    
C150  C186  S    
C181  C186  A    
C32   N7    S    
C166  C170  A    
C110  H54   S    
C57   C101  A    
C8    C70   S    
C99   H14   S    
C117  C118  S    
C33   N8    S    
C87   H165  S    
C148  C183  S    
C177  C181  A    
C97   H6    S    
C126  H97   S    
C88   H170  S    
C39   O44   A    
C111  H58   S    
C124  H151  S    
C89   H174  S    
C73   O8    A    
Cr9   O24   S    
C100  H18   S    
C112  C190  S    
C176  C180  A    
C6    C216  A    
C106  H41   S    
Cr5   O41   S    
Cr11  O59   S    
Cr9   O46   S    
C2    N9    S    
Cr11  O21   S    
C107  N11   S    
C137  C208  S    
C7    H117  S    
Cr5   O15   S    
C42   O43   A    
C149  C185  S    
C40   O41   A    
Cr9   O10   S    
C103  H27   S    
C4    C192  A    
C174  O57   S    
C167  N15   S    
Cr3   O29   S    
C15   C19   A    
C39   C64   S    
C116  H66   S    
C50   C54   A    
C40   C63   S    
H185  N21   S    
H17   N5    S    
C76   H135  S    
C3    C7    A    
C152  C187  S    
C123  C125  S    
C20   C25   A    
C193  C198  A    
C139  O49   S    
C181  H161  S    
C14   H125  S    
C104  H32   S    
C96   H3    S    
C179  H159  S    
Cr6   O38   S    
C94   N22   S    
C12   C17   A    
Cr12  O31   S    
C67   C194  S    
Cr12  O5    S    
C51   H144  S    
C196  C200  A    
C68   C113  A    
C135  C205  S    
H176  N19   S    
C34   N20   S    
C119  N14   S    
Cr7   O43   S    
C55   C60   A    
C199  C203  A    
C104  N8    S    
C41   C62   S    
C111  O50   S    
C157  O22   A    
H12   N4    S    
C30   N5    S    
C72   O38   A    
C159  O29   A    
C19   H134  S    
C207  O32   A    
Cr10  O58   S    
C171  C189  A    
C96   H200  S    
C1    O18   A    
Cr10  O20   S    
Cr3   O11   S    
C117  H70   S    
C175  H146  S    
C40   O46   A    
C118  H73   S    
C127  H99   S    
C159  C195  S    
C9    C14   A    
Cr2   O2    S    
C137  C164  A    
Cr1   O1    S    
C11   C16   A    
C123  H93   S    
C200  H68   S    
C192  C197  A    
C129  H106  S    
Cr8   O9    S    
C155  H13   S    
C117  H69   S    
Cr6   O23   S    
C44   N2    S    
C123  O53   S    
C45   N3    S    
C11   C73   S    
C133  C134  A    
C127  H102  S    
Cr8   O45   S    
H87   N17   S    
C104  H33   S    
C66   C193  S    
C38   N23   S    
C5    C193  A    
C112  O19   A    
C123  H92   S    
Cr12  O60   S    
C106  H40   S    
C99   N4    S    
C9    C71   S    
C21   C56   S    
C167  C171  A    
C156  H24   S    
Cr6   O16   S    
C46   C90   A    
C47   N4    S    
Cr7   O34   S    
C10   C15   A    
C8    C30   A    
C131  H110  S    
C68   C134  A    
C109  O49   S    
C197  H35   S    
C109  C110  S    
H198  N24   S    
H172  N18   S    
C156  C165  A    
C105  H36   S    
C164  N18   S    
C94   H191  S    
Cr2   O32   S    
C111  C114  S    
C41   O42   A    
C99   H15   S    
C66   O56   A    
C128  O55   S    
C13   N13   S    
C24   C68   A    
Cr10  O25   S    
C168  C172  A    
C13   C57   A    
C128  H104  S    
C91   H177  S    
C111  H59   S    
C119  H75   S    
C159  O25   A    
C91   N19   S    
C178  H179  S    
C145  C149  A    
C170  O53   S    
C157  C173  S    
C136  C163  A    
C211  C215  A    
C14   C18   A    
C160  O26   A    
C144  C148  A    
Cr11  O26   S    
C2    C46   A    
C143  C147  A    
Cr8   O44   S    
C69   O59   A    
Cr1   O14   S    
C118  H71   S    
C72   O7    A    
C100  H20   S    
Cr5   O10   S    
C36   C58   A    
C83   H128  S    
C102  N6    S    
C117  O52   S    
C130  H108  S    
C121  H85   S    
C77   C184  A    
C94   H193  S    
C122  N17   S    
C67   O58   A    
C35   C79   A    
Cr12  O27   S    
C144  H154  S    
C87   H164  S    
C212  C216  A    
C206  N10   S    
H43   N11   S    
C197  C201  A    
C75   C80   A    
C77   H124  S    
C74   C78   A    
C134  H152  S    
C136  C141  A    
C122  H91   S    
C154  H2    S    
C80   C90   A    
C98   N3    S    
C103  H29   S    
H30   N8    S    
C108  H50   S    
C92   H183  S    
C179  C183  A    
C209  O34   A    
C93   H186  S    
C3    H101  S    
C176  H157  S    
C125  H95   S    
C154  C163  A    
C74   C173  A    
C151  O17   A    
C157  O27   A    
C158  C162  S    
C78   C79   A    
C175  C179  A    
C110  H55   S    
C44   C62   A    
C105  H38   S    
H83   N16   S    
C204  C213  A    
C45   C63   A    
C69   C196  S    
C85   H130  S    
C73   O39   A    
C20   H136  S    
Cr12  O9    S    
C112  O15   A    
C10   C32   A    
C139  C144  A    
C194  C199  A    
C65   C192  S    
C169  N17   S    
C97   H5    S    
C126  H98   S    
C120  H80   S    
C89   H173  S    
C42   C61   S    
C38   C47   A    
C17   H132  S    
C106  H42   S    
C67   O3    A    
Cr1   O36   S    
Cr8   O22   S    
C203  C212  A    
C88   N12   S    
C170  C188  A    
C1    C191  S    
C201  C210  A    
C143  O52   S    
C201  H119  S    
C50   H143  S    
Cr9   O19   S    
C163  N12   S    
C114  H61   S    
C172  O55   S    
Cr4   O4    S    
Cr5   O12   S    
Cr7   O13   S    
Cr2   O6    S    
C76   C81   A    
C69   O4    A    
C89   N18   S    
C151  O21   A    
C12   H123  S    
C198  H46   S    
C155  C164  A    
C138  C209  S    
C122  H88   S    
C208  O33   A    
C147  C152  A    
C129  H107  S    
C132  H150  S    
C24   N11   S    
C115  H63   S    
C178  C191  A    
C48   C61   A    
C91   H180  S    
C182  C187  A    
C131  H111  S    
C214  H90   S    
C180  C185  A    
C9    C31   A    
C31   N6    S    
C215  H79   S    
C207  O12   A    
H8    N3    S    
C78   C84   A    
C122  H89   S    
C210  C211  S    
Cr11  O48   S    
C6    H118  S    
C65   O45   A    
C160  C184  S    
H167  N12   S    
C52   C56   A    
C10   C72   S    
