data_mof_unit_7662.cif
_audit_creation_date              2012-12-11T15:13:52-0500
_audit_creation_method            fapswitch 2.2
_symmetry_space_group_name_H-M    P1
_symmetry_Int_Tables_number       1
_space_group_crystal_system       triclinic
_cell_length_a                    6.943242
_cell_length_b                    13.436329
_cell_length_c                    20.142861
_cell_angle_alpha                 104.136922
_cell_angle_beta                  90.18007
_cell_angle_gamma                 90.421913
_cell_volume                      1822.17762482

loop_
_atom_site_label
_atom_site_type_symbol
_atom_type_description
_atom_site_fract_x
_atom_site_fract_y
_atom_site_fract_z
_atom_type_partial_charge
O1    O     O_R   0.506780 0.600060 0.449950 -0.538000
O2    O     O_R   0.179840 0.597110 0.589410 -0.543473
O3    O     O_R   0.004570 0.399940 0.550050 -0.537755
C1    C     C_R   0.348807 0.619670 0.616693 0.676023
O4    O     O_R   0.177380 0.612160 0.452890 -0.540578
O5    O     O_R   0.002100 0.415100 0.412560 -0.540807
C2    C     C_R   0.346475 0.639736 0.436735 0.694675
O6    O     O_R   0.509250 0.584900 0.587440 -0.540626
O7    O     O_3   0.337570 0.435330 0.486930 -0.368976
V1    V     V_3+5 0.064650 0.512000 0.502430 1.412788
O8    O     O_R   0.672090 0.402890 0.410590 -0.543199
C3    C     C_R   0.840430 0.380997 0.383072 0.676687
O9    O     O_R   0.674540 0.387840 0.547110 -0.540748
C4    C     C_R   0.843218 0.361055 0.563774 0.696804
V2    V     V_3+5 0.564040 0.488000 0.497570 1.412240
O10   O     O_3   0.840990 0.564670 0.513070 -0.369431
C5    C     C_R   0.893357 0.107411 0.608548 -0.161798
H1    H     H_    0.887923 0.156831 0.515019 0.101632
H2    H     H_    0.921610 0.982136 0.691231 0.117468
C6    C     C_R   0.852399 0.283501 0.603335 -0.031620
C7    C     C_R   0.829303 0.319362 0.932696 -0.180364
C8    C     C_R   0.808620 0.395505 0.897430 -0.123828
C9    C     C_R   0.817192 0.371386 0.826201 -0.164207
C10   C     C_R   0.847299 0.269160 0.788045 0.076315
C11   C     C_R   0.867473 0.191299 0.824623 0.069189
C12   C     C_R   0.856610 0.241446 0.714942 0.072001
C13   C     C_R   0.883520 0.136756 0.680303 0.145140
C14   C     C_R   0.901336 0.062016 0.717340 -0.216518
C15   C     C_R   0.894090 0.088669 0.788287 -0.205572
C16   C     C_R   0.841287 0.313921 0.674742 -0.218312
C17   C     C_R   0.878353 0.180477 0.570321 -0.177300
C18   C     C_R   0.858630 0.217594 0.897071 -0.072230
H3    H     H_    0.823110 0.394738 0.697056 0.091320
H4    H     H_    0.798940 0.434686 0.802798 0.102932
H5    H     H_    0.785282 0.474095 0.925518 0.121393
H6    H     H_    0.909326 0.027658 0.814435 0.120974
C19   C     C_3   0.676974 0.220687 0.228333 -0.116008
C20   C     C_3   0.773922 0.199331 0.292791 -0.141236
H7    H     H_    0.705825 0.158281 0.328361 0.098698
H8    H     H_    0.528667 0.196591 0.210217 0.107250
C21   C     C_3   0.849206 0.310742 0.312447 -0.006219
C22   C     C_3   0.752344 0.332901 0.248789 -0.138666
C23   C     C_3   0.938901 0.299853 0.207432 -0.145651
C24   C     C_3   0.035843 0.278461 0.271876 -0.119010
C25   C     C_3   0.960462 0.166249 0.251402 -0.138950
C26   C     C_3   0.863622 0.188482 0.187758 -0.005814
H9    H     H_    0.666201 0.401962 0.248155 0.099867
H10   H     H_    0.007038 0.340889 0.171857 0.097873
H11   H     H_    0.184200 0.302385 0.290007 0.108786
H12   H     H_    0.046597 0.097169 0.251996 0.110234
C27   C     C_3   0.539274 0.733736 0.727815 -0.125591
C28   C     C_3   0.444278 0.840793 0.748550 -0.141022
H13   H     H_    0.516076 0.914824 0.748319 0.112838
H14   H     H_    0.689616 0.718665 0.709731 0.107571
C29   C     C_3   0.357258 0.812655 0.811881 -0.002113
C30   C     C_3   0.452592 0.706555 0.791965 -0.136783
C31   C     C_3   0.269735 0.662699 0.750398 -0.141765
C32   C     C_3   0.174592 0.769722 0.771038 -0.121753
C33   C     C_3   0.261508 0.796933 0.706859 -0.136299
C34   C     C_3   0.356565 0.690632 0.687053 -0.004175
H15   H     H_    0.534355 0.671518 0.827700 0.097813
H16   H     H_    0.197717 0.588482 0.749765 0.102849
H17   H     H_    0.024275 0.784833 0.789144 0.105536
H18   H     H_    0.183293 0.833810 0.671188 0.096794
C35   C     C_R   0.385125 0.894205 0.391092 -0.161519
H19   H     H_    0.380003 0.845743 0.485069 0.101626
H20   H     H_    0.402983 0.019094 0.307527 0.116367
H21   H     H_    0.398907 0.974554 0.417465 0.112115
C36   C     C_R   0.356446 0.717326 0.396958 -0.033143
C37   C     C_R   0.337111 0.675030 0.065595 0.078195
C38   C     C_R   0.328637 0.600196 0.103495 -0.125941
C39   C     C_R   0.336795 0.626615 0.174461 -0.203009
C40   C     C_R   0.353862 0.729780 0.211734 0.079726
C41   C     C_R   0.364604 0.807099 0.174411 0.053969
C42   C     C_R   0.360467 0.758479 0.284922 0.080129
C43   C     C_R   0.378378 0.863951 0.319227 0.143569
C44   C     C_R   0.389358 0.938487 0.281703 -0.219200
C45   C     C_R   0.382584 0.910801 0.210629 -0.191804
C46   C     C_R   0.349553 0.686146 0.325520 -0.215192
C47   C     C_R   0.374311 0.821246 0.429702 -0.178435
C48   C     C_R   0.356590 0.779463 0.101561 -0.119281
H22   H     H_    0.335691 0.604844 0.303671 0.090764
H23   H     H_    0.329082 0.563342 0.198392 0.110216
H24   H     H_    0.315376 0.519413 0.079076 0.108644
H25   H     H_    0.391394 0.972025 0.184383 0.119027
O11   O     O_R   0.203580 0.914920 0.912610 -0.542091
O12   O     O_R   0.535710 0.887810 0.047120 -0.539846
O13   O     O_R   0.710730 0.084950 0.087430 -0.540902
C49   C     C_R   0.366636 0.859736 0.063022 0.685569
O14   O     O_R   0.533010 0.902850 0.910600 -0.543929
O15   O     O_R   0.708010 0.100090 0.949930 -0.536610
C50   C     C_R   0.364318 0.881692 0.882861 0.677406
O16   O     O_R   0.206300 0.899780 0.050100 -0.538366
O17   O     O_3   0.375170 0.064580 0.013100 -0.368401
V3    V     V_3+5 0.648200 0.988020 0.997570 1.408423
O18   O     O_R   0.038030 0.112330 0.952840 -0.540900
C51   C     C_R   0.869122 0.139332 0.936435 0.688393
O19   O     O_R   0.040730 0.097300 0.089360 -0.543045
C52   C     C_R   0.872426 0.118707 0.117013 0.680566
V4    V     V_3+5 0.148780 0.012220 0.002360 1.407195
O20   O     O_3   0.871930 0.935430 0.986900 -0.370425
C53   C     C_3   0.325881 0.645621 0.987379 -0.371618
C54   C     C_3   0.292046 0.530509 0.954687 -0.312725
C55   C     C_3   0.275183 0.508071 0.877015 -0.757008
H26   H     H_    0.157976 0.554215 0.862181 0.222089
H27   H     H_    0.413623 0.525155 0.854718 0.220640
H28   H     H_    0.241157 0.425450 0.856065 0.234347
H29   H     H_    0.414135 0.485230 0.967348 0.196082
H30   H     H_    0.156242 0.504853 0.974690 0.198995
H31   H     H_    0.205870 0.688966 0.971262 0.171406
H32   H     H_    0.462102 0.670054 0.966905 0.162544
H33   H     H_    0.913925 0.027762 0.581980 0.111739
H34   H     H_    0.820763 0.339696 0.988082 0.096355

loop_
_geom_bond_atom_site_label_1
_geom_bond_atom_site_label_2
_ccdc_geom_bond_type
C24   H11   S    
C26   C52   S    
C42   C43   A    
C21   C22   S    
H20   C44   S    
C1    O6    A    
C55   H27   S    
O14   V3    S    
C6    C16   A    
C44   C45   A    
C18   C51   S    
C8    H5    S    
C15   H6    S    
C33   H18   S    
C19   C20   S    
C35   C43   A    
C14   C15   A    
C10   C12   A    
C19   H8    S    
O5    C3    A    
C20   H7    S    
V2    O10   S    
C30   C31   S    
C27   C30   S    
C40   C41   A    
C19   C22   S    
C37   C48   A    
C20   C25   S    
O8    V2    S    
O12   V3    S    
C9    C10   A    
C37   C38   A    
O1    V2    S    
O11   V4    S    
C23   H10   S    
C28   C29   S    
C48   C49   S    
C9    H4    S    
C11   C18   A    
O13   V3    S    
C33   C34   S    
C35   C47   A    
O9    C4    A    
C40   C42   A    
C53   H32   S    
C53   C54   S    
O13   C52   A    
C55   H26   S    
C43   C44   A    
C11   C15   A    
C7    C18   A    
C27   C28   S    
C5    C13   A    
C4    C6    S    
C31   H16   S    
C10   C11   A    
C20   C21   S    
C7    H34   S    
O4    C2    A    
C31   C34   S    
C32   C33   S    
C25   C26   S    
O2    C1    A    
C23   C24   S    
C2    C36   S    
C29   C50   S    
C28   C33   S    
O14   C50   A    
O17   V4    S    
C35   H21   S    
O18   C51   A    
C1    C34   S    
C29   C30   S    
C12   C13   A    
C30   H15   S    
O15   C51   A    
H2    C14   S    
O16   V4    S    
C54   H29   S    
O3    C4    A    
C45   H25   S    
C12   C16   A    
O6    V2    S    
O19   V4    S    
O12   C49   A    
C5    C17   A    
C21   C24   S    
C36   C46   A    
C22   C23   S    
C41   C48   A    
O2    V1    S    
C5    H33   S    
C54   C55   S    
C28   H13   S    
C3    C21   S    
C38   H24   S    
O7    V1    S    
C32   H17   S    
C16   H3    S    
O1    C2    A    
C24   C25   S    
C39   C40   A    
O5    V1    S    
C46   H22   S    
O8    C3    A    
C37   C53   S    
H1    C17   S    
H19   C47   S    
C54   H30   S    
C27   H14   S    
O9    V2    S    
O7    V2    S    
O4    V1    S    
O3    V1    S    
O11   C50   A    
C31   C32   S    
C25   H12   S    
O18   V4    S    
V4    O20   S    
C22   H9    S    
C49   O16   A    
O17   V3    S    
C23   C26   S    
C39   H23   S    
C53   H31   S    
O15   V3    S    
C38   C39   A    
O19   C52   A    
C41   C45   A    
C29   C32   S    
C13   C14   A    
C8    C9    A    
C36   C47   A    
V1    O10   S    
C27   C34   S    
C19   C26   S    
C7    C8    A    
C42   C46   A    
C55   H28   S    
V3    O20   S    
C6    C17   A    
