data_mof_unit_39149.cif
_audit_creation_date              2012-12-11T14:19:13-0500
_audit_creation_method            fapswitch 2.2
_symmetry_space_group_name_H-M    P1
_symmetry_Int_Tables_number       1
_space_group_crystal_system       triclinic
_cell_length_a                    19.438508
_cell_length_b                    7.230226
_cell_length_c                    17.738912
_cell_angle_alpha                 90.000039
_cell_angle_beta                  107.865906
_cell_angle_gamma                 90.0
_cell_volume                      2372.88692832

loop_
_atom_site_label
_atom_site_type_symbol
_atom_type_description
_atom_site_fract_x
_atom_site_fract_y
_atom_site_fract_z
_atom_type_partial_charge
O1    O     O_R   0.414820 0.494320 0.416790 -0.546816
O2    O     O_R   0.585180 0.994320 0.583210 -0.546816
O3    O     O_R   0.560270 0.819500 0.430140 -0.542112
O4    O     O_R   0.439730 0.319500 0.569860 -0.542112
C1    C     C_R   0.583007 0.655259 0.416807 0.725375
C2    C     C_R   0.416993 0.155259 0.583193 0.725375
O5    O     O_R   0.413840 0.823740 0.407440 -0.528514
O6    O     O_R   0.586160 0.323740 0.592560 -0.528514
O7    O     O_R   0.437710 0.998590 0.560350 -0.532999
O8    O     O_R   0.562290 0.498590 0.439650 -0.532998
C3    C     C_R   0.387828 0.654520 0.384855 0.750320
C4    C     C_R   0.612172 0.154520 0.615145 0.750320
O9    O     O_3   0.508000 0.662290 0.550200 -0.379418
O10   O     O_3   0.492000 0.162290 0.449800 -0.379418
V1    V     V_3+5 0.498520 0.935380 0.490690 1.477719
V2    V     V_3+5 0.501480 0.435380 0.509310 1.477719
C5    C     C_2   0.768779 0.257786 0.807295 0.013396
C6    C     C_2   0.231221 0.757786 0.192705 0.013396
C7    C     C_2   0.818885 0.119570 0.818632 -0.286169
C8    C     C_2   0.181114 0.619570 0.181368 -0.286170
H1    H     H_    0.813086 0.014503 0.773480 0.118930
H2    H     H_    0.186914 0.514503 0.226520 0.118931
C9    C     C_2   0.708291 0.278643 0.731654 -0.177218
C10   C     C_2   0.291709 0.778643 0.268347 -0.177217
C11   C     C_2   0.677430 0.135957 0.684932 -0.266307
C12   C     C_2   0.322570 0.635957 0.315068 -0.266307
H3    H     H_    0.684511 0.415287 0.717628 0.139370
H4    H     H_    0.315489 0.915287 0.282372 0.139370
H5    H     H_    0.697581 0.996792 0.700808 0.132802
H6    H     H_    0.302419 0.496792 0.299191 0.132802
C13   C     C_R   0.312102 0.001112 0.616546 -0.043099
C14   C     C_R   0.687897 0.501112 0.383454 -0.043099
C15   C     C_R   0.364331 0.144882 0.629041 -0.148178
C16   C     C_R   0.635669 0.644882 0.370959 -0.148178
C17   C     C_R   0.367100 0.279509 0.686853 -0.169328
C18   C     C_R   0.632899 0.779509 0.313147 -0.169328
C19   C     C_R   0.320773 0.271550 0.733743 0.086069
C20   C     C_R   0.679227 0.771550 0.266257 0.086069
C21   C     C_R   0.269605 0.127964 0.722839 0.074377
C22   C     C_R   0.730395 0.627964 0.277161 0.074376
C23   C     C_R   0.264882 0.992821 0.663848 0.020325
C24   C     C_R   0.735117 0.492821 0.336152 0.020326
C25   C     C_R   0.325661 0.405822 0.791862 -0.222939
C26   C     C_R   0.674339 0.905822 0.208138 -0.222938
C27   C     C_R   0.281994 0.397864 0.841607 -0.019346
C28   C     C_R   0.718006 0.897863 0.158393 -0.019346
C29   C     C_R   0.229257 0.255622 0.830612 0.038144
C30   C     C_R   0.770743 0.755622 0.169388 0.038145
C31   C     C_R   0.222297 0.122029 0.769966 0.051214
C32   C     C_R   0.777703 0.622029 0.230034 0.051214
C33   C     C_R   0.167020 0.985533 0.754980 0.020365
C34   C     C_R   0.832980 0.485534 0.245020 0.020364
C35   C     C_R   0.166136 0.842692 0.699413 -0.014360
C36   C     C_R   0.833864 0.342692 0.300588 -0.014358
C37   C     C_R   0.213183 0.851611 0.653628 -0.172917
C38   C     C_R   0.786817 0.351611 0.346372 -0.172919
C39   C     C_R   0.182237 0.245748 0.877133 -0.155412
C40   C     C_R   0.817763 0.745748 0.122868 -0.155410
C41   C     C_R   0.125306 0.118336 0.860484 -0.154913
C42   C     C_R   0.874695 0.618336 0.139516 -0.154913
C43   C     C_R   0.113440 0.999595 0.794299 -0.027418
C44   C     C_R   0.886560 0.499595 0.205701 -0.027422
H7    H     H_    0.406737 0.389680 0.696550 0.146961
H8    H     H_    0.593263 0.889680 0.303450 0.146961
H9    H     H_    0.365166 0.515991 0.799809 0.153798
H10   H     H_    0.634834 0.015990 0.200190 0.153798
H11   H     H_    0.187364 0.341331 0.925291 0.178360
H12   H     H_    0.812636 0.841331 0.074709 0.178359
H13   H     H_    0.210044 0.742482 0.611009 0.177990
H14   H     H_    0.789956 0.242482 0.388991 0.177989
O11   O     O_R   0.937810 0.773680 0.060480 -0.547228
O12   O     O_R   0.062190 0.273680 0.939520 -0.547227
O13   O     O_R   0.086190 0.439740 0.092580 -0.547575
O14   O     O_R   0.913810 0.939740 0.907420 -0.547576
C45   C     C_R   0.113772 0.608652 0.113173 0.769004
C46   C     C_R   0.886228 0.108651 0.886827 0.769003
O15   O     O_R   0.939760 0.444210 0.069890 -0.496753
O16   O     O_R   0.060240 0.944210 0.930110 -0.496754
O17   O     O_R   0.914790 0.269640 0.916760 -0.523967
O18   O     O_R   0.085210 0.769640 0.083240 -0.523967
C47   C     C_R   0.921419 0.612504 0.087227 0.729816
C48   C     C_R   0.078581 0.112504 0.912773 0.729814
O19   O     O_3   0.992050 0.601530 0.949880 -0.370195
O20   O     O_3   0.007950 0.101530 0.050120 -0.370195
V3    V     V_3+5 0.001480 0.328340 0.009300 1.563443
V4    V     V_3+5 0.998520 0.828340 0.990700 1.563442
C49   C     C_2   0.769381 0.396760 0.869289 0.423935
H15   H     H_    0.747508 0.533920 0.852000 0.021812
O21   O     O_2   0.789586 0.356542 0.939541 -0.518230
C50   C     C_2   0.230619 0.896760 0.130711 0.423936
H16   H     H_    0.252492 0.033920 0.148000 0.021811
O22   O     O_2   0.210414 0.856542 0.060459 -0.518229
C51   C     C_2   0.038864 0.930910 0.754305 0.753388
O23   O     O_2   0.007082 0.983934 0.687163 -0.530737
O24   O     O_R   0.005689 0.803720 0.791308 -0.631108
H17   H     H_    0.955302 0.768417 0.757114 0.294573
C52   C     C_2   0.961136 0.430911 0.245696 0.753391
O25   O     O_2   0.992916 0.483928 0.312838 -0.530737
O26   O     O_R   0.994313 0.303726 0.208691 -0.631110
H18   H     H_    0.044699 0.268422 0.242886 0.294573
C53   C     C_2   0.122787 0.670821 0.692998 0.808749
O27   O     O_2   0.094862 0.599691 0.628228 -0.513930
O28   O     O_R   0.116275 0.586201 0.761305 -0.658272
H19   H     H_    0.085358 0.470501 0.749117 0.310070
C54   C     C_2   0.877214 0.170823 0.307003 0.808752
O29   O     O_2   0.905140 0.099697 0.371773 -0.513929
O30   O     O_R   0.883725 0.086200 0.238696 -0.658274
H20   H     H_    0.914643 0.970501 0.250885 0.310069
C55   C     C_2   0.304828 0.864566 0.552048 0.768253
O31   O     O_2   0.285525 0.915836 0.483032 -0.552679
O32   O     O_R   0.321125 0.678485 0.570612 -0.666288
H21   H     H_    0.314451 0.599101 0.521776 0.293192
C56   C     C_2   0.695172 0.364566 0.447952 0.768253
O33   O     O_2   0.714475 0.415837 0.516968 -0.552679
O34   O     O_R   0.678875 0.178485 0.429388 -0.666288
H22   H     H_    0.685549 0.099101 0.478224 0.293192
C57   C     C_2   0.292590 0.544726 0.902542 0.798017
O35   O     O_2   0.298844 0.505015 0.971323 -0.552547
O36   O     O_R   0.298799 0.728945 0.881499 -0.659587
H23   H     H_    0.306001 0.817128 0.927721 0.316794
C58   C     C_2   0.707409 0.044725 0.097457 0.798015
O37   O     O_2   0.701156 0.005013 0.028676 -0.552547
O38   O     O_R   0.701200 0.228944 0.118500 -0.659586
H24   H     H_    0.693998 0.317127 0.072278 0.316794

loop_
_geom_bond_atom_site_label_1
_geom_bond_atom_site_label_2
_ccdc_geom_bond_type
C49   H15   S    
O4    V2    S    
C51   O23   D    
C26   H10   S    
O24   H17   S    
O1    C3    A    
C46   O17   A    
O2    C4    A    
C2    O7    A    
O12   V3    S    
O38   H24   S    
C29   C31   A    
O5    C3    A    
C54   O30   S    
C53   O27   D    
O14   C46   A    
C6    C10   S    
C7    C46   S    
C7    H1    S    
C10   C12   D    
C57   O36   S    
C43   C51   S    
C39   C41   A    
C40   C42   A    
O34   H22   S    
O11   V4    S    
C42   C44   A    
O6    V2    S    
C27   C29   A    
C23   C37   A    
O18   V4    S    
C24   C38   A    
O32   H21   S    
C26   C28   A    
C31   C33   A    
C33   C43   A    
C32   C34   A    
O30   H20   S    
C41   C48   S    
C28   C58   S    
C9    H3    S    
C14   C56   S    
C45   O18   A    
C16   C18   A    
C25   H9    S    
O16   V4    S    
C30   C32   A    
O15   V3    S    
C53   O28   S    
O13   C45   A    
C39   H11   S    
C52   O26   S    
C34   C36   A    
C52   O25   D    
C36   C38   A    
C35   C37   A    
C11   H5    S    
C28   C30   A    
C41   C43   A    
C6    C50   S    
O20   V3    S    
C21   C23   A    
C35   C53   S    
C5    C7    D    
C3    C12   S    
C8    C45   S    
C33   C35   A    
C14   C16   A    
C19   C25   A    
C20   C26   A    
C29   C39   A    
C44   C52   S    
C42   C47   S    
O16   C48   A    
C50   O22   D    
O26   H18   S    
O15   C47   A    
O6    C4    A    
C1    C16   S    
C13   C15   A    
C13   C55   S    
O1    V2    S    
C5    C9    S    
O14   V4    S    
O2    V1    S    
C25   C27   A    
O13   V3    S    
C58   O37   D    
C37   H13   S    
C40   H12   S    
C21   C31   A    
C8    H2    S    
C12   H6    S    
C38   H14   S    
C49   O21   D    
O4    C2    A    
C18   C20   A    
O17   V3    S    
O3    V1    S    
C56   O33   D    
C27   C57   S    
C13   C23   A    
C36   C54   S    
C17   C19   A    
C5    C49   S    
C10   H4    S    
C22   C24   A    
O3    C1    A    
C17   H7    S    
O36   H23   S    
C30   C40   A    
C54   O29   D    
C57   O35   D    
C2    C15   S    
C4    C11   S    
C55   O32   S    
O7    V1    S    
C1    O8    A    
C19   C21   A    
C34   C44   A    
C55   O31   D    
C20   C22   A    
C50   H16   S    
C22   C32   A    
O5    V1    S    
C15   C17   A    
C6    C8    D    
C9    C11   D    
C58   O38   S    
O19   V4    S    
C51   O24   S    
O9    V2    S    
O28   H19   S    
C14   C24   A    
O10   V1    S    
O8    V2    S    
O11   C47   A    
C18   H8    S    
O12   C48   A    
C56   O34   S    
