data_mof_unit_55294.cif
_audit_creation_date              2012-12-10T18:11:46-0500
_audit_creation_method            fapswitch 2.2
_symmetry_space_group_name_H-M    P1
_symmetry_Int_Tables_number       1
_space_group_crystal_system       triclinic
_cell_length_a                    10.463339
_cell_length_b                    12.714987
_cell_length_c                    13.02835
_cell_angle_alpha                 81.379227
_cell_angle_beta                  91.937661
_cell_angle_gamma                 102.30038
_cell_volume                      1674.38167757

loop_
_atom_site_label
_atom_site_type_symbol
_atom_type_description
_atom_site_fract_x
_atom_site_fract_y
_atom_site_fract_z
_atom_type_partial_charge
C1    C     C_R   0.489088 0.438732 0.691363 0.826433
C2    C     C_R   0.507383 0.448254 0.975122 0.104212
C3    C     C_R   0.551850 0.464240 0.872312 0.029761
C4    C     C_R   0.741902 0.500733 0.500673 0.851401
C5    C     C_R   0.556570 0.529631 0.037512 0.027950
C6    C     C_R   0.665781 0.614373 0.004362 0.005749
C7    C     C_R   0.721341 0.619238 0.906714 0.371119
C8    C     C_R   0.663594 0.545550 0.841371 -0.257403
C9    C     C_R   0.497640 0.529520 0.131603 -0.268094
C10   C     C_R   0.666170 0.681272 0.169823 0.366262
C11   C     C_R   0.481901 0.399205 0.802135 -0.086806
C12   C     C_3   0.057581 0.572580 0.421250 -0.137453
C13   C     C_R   0.250700 0.077918 0.427524 0.322197
C14   C     C_R   0.671218 0.801770 0.617709 0.075438
C15   C     C_R   0.706147 0.904431 0.647624 -0.181163
C16   C     C_R   0.520107 0.561309 0.308958 0.932544
C17   C     C_R   0.635482 0.983097 0.609724 -0.178784
C18   C     C_R   0.530933 0.959998 0.539985 0.002636
C19   C     C_R   0.492877 0.852491 0.516643 0.168863
C20   C     C_R   0.459739 0.039173 0.494848 -0.053771
C21   C     C_R   0.329312 0.002822 0.461806 -0.012472
C22   C     C_R   0.285875 0.893667 0.451799 -0.224558
C23   C     C_3   0.986936 0.600186 0.512567 -0.105667
C24   C     C_R   0.375559 0.826889 0.458773 0.355092
C25   C     C_R   0.513871 0.152157 0.475185 0.258735
C26   C     C_R   0.304973 0.187644 0.421779 -0.089991
C27   C     C_R   0.257887 0.499084 0.499624 0.892068
C28   C     C_3   0.941349 0.426616 0.579205 -0.192401
C29   C     C_3   0.053538 0.524939 0.590772 -0.170195
C30   C     C_3   0.121800 0.497548 0.499414 -0.001612
C31   C     C_3   0.012256 0.399102 0.487903 -0.142287
C32   C     C_3   0.945552 0.474297 0.409789 -0.164898
C33   C     C_3   0.659326 0.194662 0.464436 -0.785050
C34   C     C_3   0.877547 0.501853 0.501034 0.020098
C35   C     C_R   0.717568 0.690862 0.070623 -0.173701
C36   C     C_R   0.556635 0.597948 0.200790 -0.120522
C37   C     C_R   0.389437 0.304907 0.838517 -0.186892
C38   C     C_R   0.359936 0.279414 0.943551 -0.121617
C39   C     C_R   0.415484 0.351446 0.011318 -0.158645
Cl1   Cl    Cl    0.084618 0.039300 0.392777 -0.599428
Cl2   Cl    Cl    0.360927 0.759973 0.350089 -0.590337
Cl3   Cl    Cl    0.748706 0.769644 0.254166 -0.530171
Cl4   Cl    Cl    0.861376 0.717423 0.861410 -0.665946
H1    H     H_    0.102152 0.545255 0.664478 0.162452
H2    H     H_    0.889024 0.367598 0.643544 0.142104
H3    H     H_    0.660568 0.060536 0.638007 0.160619
H4    H     H_    0.787139 0.922763 0.700506 0.194255
H5    H     H_    0.026299 0.317141 0.477746 0.170816
H6    H     H_    0.896714 0.454041 0.336133 0.153871
H7    H     H_    0.106581 0.631120 0.355450 0.200749
H8    H     H_    0.972871 0.682180 0.522590 0.180127
H9    H     H_    0.801467 0.755510 0.047989 0.229282
H10   H     H_    0.679827 0.258648 0.395639 0.254839
H11   H     H_    0.700654 0.227084 0.535650 0.230246
H12   H     H_    0.407929 0.472476 0.155625 0.164820
H13   H     H_    0.710654 0.131028 0.448345 0.241531
H14   H     H_    0.336583 0.253205 0.785334 0.165403
H15   H     H_    0.387626 0.328067 0.091854 0.144036
H16   H     H_    0.289395 0.206092 0.971873 0.167942
H17   H     H_    0.708322 0.551266 0.766427 0.174760
H18   H     H_    0.244183 0.246159 0.399814 0.178855
H19   H     H_    0.192287 0.866809 0.415482 0.234124
H20   H     H_    0.726191 0.740437 0.646461 0.160708
N1    N     N_R   0.432930 0.222190 0.444670 -0.130809
N2    N     N_R   0.566370 0.776980 0.554790 -0.122424
O1    O     O_R   0.467970 0.366730 0.627150 -0.607518
O2    O     O_R   0.510820 0.544830 0.662520 -0.618455
O3    O     O_R   0.664630 0.410960 0.482340 -0.629073
O4    O     O_R   0.707470 0.589060 0.517710 -0.616660
O5    O     O_R   0.489180 0.455170 0.337480 -0.629064
O6    O     O_R   0.532030 0.633270 0.372850 -0.496467
O7    O     O_R   0.292530 0.410940 0.482290 -0.640914
O8    O     O_R   0.335370 0.589040 0.517660 -0.588787
Zn1   Zn    Zn3+2 0.471390 0.381080 0.476380 0.936698
Zn2   Zn    Zn3+2 0.528610 0.618920 0.523620 1.021235

loop_
_geom_bond_atom_site_label_1
_geom_bond_atom_site_label_2
_ccdc_geom_bond_type
C10   Cl3   S    
C1    C11   S    
C15   H4    S    
C7    C8    A    
C12   C23   S    
C37   C38   A    
C23   C29   S    
C28   C29   S    
C26   H18   S    
C2    C3    A    
C5    C6    A    
C20   C25   A    
O3    Zn1   S    
O1    Zn1   S    
C6    C35   A    
C18   C19   A    
C11   C37   A    
C26   N1    A    
C13   Cl1   S    
C2    C39   A    
O5    Zn1   S    
C9    C36   A    
O4    Zn2   S    
C10   C35   A    
C9    H12   S    
C7    Cl4   S    
C33   H13   S    
C28   C34   S    
C21   C22   A    
C12   C32   S    
C27   C30   S    
C24   Cl2   S    
O8    Zn2   S    
C16   O6    A    
C4    O4    A    
C1    O1    A    
C33   H10   S    
C38   C39   A    
C4    C34   S    
C28   H2    S    
C16   O5    A    
C17   H3    S    
O7    Zn1   S    
C3    C8    A    
C4    O3    A    
C39   H15   S    
C25   N1    A    
C32   C34   S    
C5    C9    A    
C29   C30   S    
C22   H19   S    
C23   H8    S    
C31   C32   S    
C23   C34   S    
C17   C18   A    
C13   C21   A    
C31   H5    S    
C29   H1    S    
C22   C24   A    
C13   C26   A    
C2    C5    A    
O2    Zn2   S    
C33   H11   S    
C15   C17   A    
C12   C30   S    
C28   C31   S    
C12   H7    S    
C6    C7    A    
N2    Zn2   S    
C19   C24   A    
C16   C36   S    
O6    Zn2   S    
C30   C31   S    
C14   H20   S    
C1    O2    A    
C14   N2    A    
C19   N2    A    
C18   C20   A    
C37   H14   S    
C32   H6    S    
C3    C11   A    
C38   H16   S    
C20   C21   A    
C35   H9    S    
N1    Zn1   S    
C14   C15   A    
C10   C36   A    
C27   O8    A    
C8    H17   S    
C27   O7    A    
C25   C33   S    
