data_mof_unit_58434.cif
_audit_creation_date              2012-12-10T20:27:13-0500
_audit_creation_method            fapswitch 2.2
_symmetry_space_group_name_H-M    P1
_symmetry_Int_Tables_number       1
_space_group_crystal_system       triclinic
_cell_length_a                    10.797578
_cell_length_b                    10.665174
_cell_length_c                    9.876579
_cell_angle_alpha                 89.912042
_cell_angle_beta                  102.716403
_cell_angle_gamma                 90.686159
_cell_volume                      1109.38944896

loop_
_atom_site_label
_atom_site_type_symbol
_atom_type_description
_atom_site_fract_x
_atom_site_fract_y
_atom_site_fract_z
_atom_type_partial_charge
Br1   Br    Br    0.663339 0.719571 0.192408 -0.385328
Br2   Br    Br    0.150344 0.680250 0.654589 -0.455298
Br3   Br    Br    0.419475 0.868749 0.879552 -0.455087
C1    C     C_R   0.495248 0.259869 0.498779 0.877796
C2    C     C_R   0.568579 0.586792 0.086312 0.370739
C3    C     C_R   0.569291 0.585300 0.943235 -0.094187
C4    C     C_R   0.260052 0.505653 0.443560 0.941164
C5    C     C_R   0.441858 0.404949 0.915135 0.188340
C6    C     C_3   0.305056 0.368000 0.876608 -0.459528
C7    C     C_3   0.305164 0.368070 0.030512 -0.473786
C8    C     C_R   0.493921 0.740041 0.498579 0.908769
C9    C     C_R   0.741030 0.504963 0.556350 0.972470
C10   C     C_2   0.124954 0.516075 0.413831 -0.367893
C11   C     C_2   0.066941 0.573551 0.502618 0.162056
C12   C     C_R   0.471452 0.128473 0.492320 -0.107152
C13   C     C_2   0.876803 0.528076 0.584187 -0.492116
C14   C     C_2   0.932022 0.556621 0.478839 0.642442
C15   C     C_R   0.458430 0.063849 0.610781 0.072136
C16   C     C_R   0.455235 0.064417 0.365521 -0.198694
C17   C     C_R   0.453722 0.934742 0.365596 -0.143718
C18   C     C_R   0.468340 0.870852 0.492413 -0.152222
C19   C     C_R   0.454681 0.935856 0.610825 0.163417
C20   C     C_3   0.526642 0.929698 0.758772 0.115214
C21   C     C_3   0.533524 0.071964 0.756714 -0.500193
C22   C     C_R   0.442031 0.404791 0.057560 0.148241
F1    F     F_    0.867477 0.555319 0.343862 -0.624329
H1    H     H_    0.631362 0.109192 0.763520 0.191145
H2    H     H_    0.451604 0.885996 0.268996 0.219847
H3    H     H_    0.620502 0.883829 0.772155 0.131717
H4    H     H_    0.480168 0.118768 0.826261 0.232183
H5    H     H_    0.622890 0.655547 0.900512 0.177175
H6    H     H_    0.244556 0.442063 0.817630 0.249990
H7    H     H_    0.290826 0.273060 0.829057 0.205984
H8    H     H_    0.244966 0.442463 0.060368 0.233221
H9    H     H_    0.290920 0.273162 0.071631 0.207180
H10   H     H_    0.931498 0.524681 0.690580 0.157413
H11   H     H_    0.071426 0.467456 0.322332 0.178915
H12   H     H_    0.453978 0.113109 0.268872 0.183287
N1    N     N_R   0.499160 0.499140 0.142600 -0.140073
N2    N     N_R   0.499160 0.499180 0.856960 -0.117879
O1    O     O_R   0.500020 0.316790 0.614700 -0.619934
O2    O     O_R   0.500000 0.316760 0.385350 -0.628248
O3    O     O_R   0.317820 0.500020 0.571850 -0.575573
O4    O     O_R   0.317800 0.499980 0.342510 -0.624136
O5    O     O_R   0.500000 0.683240 0.614650 -0.602412
O6    O     O_R   0.499980 0.683210 0.385300 -0.587145
O7    O     O_R   0.682200 0.500020 0.657490 -0.629296
O8    O     O_R   0.682180 0.499980 0.428150 -0.513546
Zn1   Zn    Zn3+2 0.500010 0.500020 0.653140 0.991693
Zn2   Zn    Zn3+2 0.499990 0.499980 0.346860 1.025242

loop_
_geom_bond_atom_site_label_1
_geom_bond_atom_site_label_2
_ccdc_geom_bond_type
C5    C6    S    
C12   C15   A    
C12   C16   A    
C20   C21   S    
C7    H9    S    
C16   H12   S    
C4    O3    A    
C17   H2    S    
C6    C7    S    
O6    Zn2   S    
C10   H11   S    
C16   C17   A    
C21   H1    S    
O5    Zn1   S    
C9    O8    A    
N1    Zn2   S    
C1    C12   S    
O8    Zn2   S    
C3    H5    S    
C7    H8    S    
C18   C19   A    
C22   N1    A    
C6    H7    S    
C5    C22   A    
C11   C14   S    
C1    O2    A    
O2    Zn2   S    
C9    O7    A    
Br1   C2    S    
C14   F1    S    
C20   H3    S    
C7    C22   S    
O1    Zn1   S    
C21   H4    S    
C2    N1    A    
C2    C3    A    
Br2   C11   S    
C10   C11   D    
C15   C21   S    
C8    O5    A    
C1    O1    A    
N2    Zn1   S    
C4    C10   S    
C3    N2    A    
C17   C18   A    
O7    Zn1   S    
O4    Zn2   S    
C19   C20   S    
O3    Zn1   S    
C8    O6    A    
C5    N2    A    
C6    H6    S    
C4    O4    A    
C15   C19   A    
Br3   C20   S    
C8    C18   S    
C13   H10   S    
C9    C13   S    
C13   C14   D    
