data_mof_unit_65271.cif
_audit_creation_date              2012-12-10T19:14:02-0500
_audit_creation_method            fapswitch 2.2
_symmetry_space_group_name_H-M    P1
_symmetry_Int_Tables_number       1
_space_group_crystal_system       triclinic
_cell_length_a                    12.977316
_cell_length_b                    16.003989
_cell_length_c                    14.764389
_cell_angle_alpha                 89.916399
_cell_angle_beta                  96.208032
_cell_angle_gamma                 89.946947
_cell_volume                      3048.41157962

loop_
_atom_site_label
_atom_site_type_symbol
_atom_type_description
_atom_site_fract_x
_atom_site_fract_y
_atom_site_fract_z
_atom_type_partial_charge
C1    C     C_R   0.499979 0.340909 0.500021 0.827740
C2    C     C_R   0.500021 0.659091 0.499979 0.827740
C3    C     C_R   0.593769 0.956404 0.521357 0.168783
C4    C     C_R   0.406232 0.043596 0.478642 0.168781
C5    C     C_1   0.500438 0.823016 0.500461 0.136316
C6    C     C_1   0.499562 0.176984 0.499538 0.136313
C7    C     C_1   0.499744 0.251942 0.499977 -0.108607
C8    C     C_1   0.500256 0.748058 0.500023 -0.108606
C9    C     C_R   0.592948 0.508165 0.960912 -0.116879
C10   C     C_R   0.407052 0.491835 0.039088 -0.116879
C11   C     C_R   0.499983 0.500045 0.902864 0.026328
C12   C     C_R   0.500017 0.499955 0.097136 0.026328
C13   C     C_R   0.407034 0.491886 0.943286 -0.130780
C14   C     C_R   0.592966 0.508114 0.056714 -0.130780
C15   C     C_1   0.499974 0.500040 0.802722 0.178739
C16   C     C_1   0.500026 0.499959 0.197278 0.178740
C17   C     C_R   0.300270 0.496316 0.483069 0.856414
C18   C     C_R   0.699730 0.503684 0.516930 0.856413
C19   C     C_R   0.812149 0.510926 0.526765 -0.178534
C20   C     C_R   0.187851 0.489073 0.473235 -0.178534
C21   C     C_R   0.026913 0.427282 0.405634 0.254945
C22   C     C_R   0.973087 0.572718 0.594366 0.254945
C23   C     C_R   0.134962 0.434950 0.409020 0.232412
C24   C     C_R   0.865038 0.565050 0.590980 0.232412
C25   C     C_R   0.134208 0.534110 0.533798 -0.230497
C26   C     C_R   0.865792 0.465890 0.466202 -0.230497
C27   C     C_R   0.027077 0.526955 0.532427 0.010941
C28   C     C_R   0.972923 0.473045 0.467574 0.010941
C29   C     C_R   0.406155 0.955991 0.481620 0.401567
C30   C     C_R   0.593846 0.044009 0.518379 0.401565
C31   C     C_R   0.500329 0.912636 0.501291 -0.169952
C32   C     C_R   0.499671 0.087364 0.498708 -0.169951
Cu1   Cu    Cu3+1 0.500030 0.500000 0.589220 1.040361
Cu2   Cu    Cu3+1 0.499970 0.500000 0.410780 1.040361
H1    H     H_    0.822059 0.425189 0.417907 0.205172
H2    H     H_    0.177941 0.574811 0.582093 0.205172
H3    H     H_    0.665882 0.514478 0.099319 0.155185
H4    H     H_    0.334118 0.485522 0.900681 0.155185
H5    H     H_    0.665848 0.514570 0.932129 0.161383
H6    H     H_    0.334152 0.485430 0.067871 0.161383
N1    N     N_1   0.500030 0.499980 0.276710 -0.138010
N2    N     N_1   0.499970 0.500020 0.723290 -0.138009
O1    O     O_R   0.500050 0.380310 0.575330 -0.571627
O2    O     O_R   0.499950 0.619690 0.424670 -0.571628
O3    O     O_R   0.500000 0.380310 0.424640 -0.556362
O4    O     O_R   0.500000 0.619690 0.575360 -0.556362
O5    O     O_R   0.349020 0.499990 0.563110 -0.583469
O6    O     O_R   0.650980 0.500010 0.436890 -0.583469
O7    O     O_R   0.348970 0.499990 0.412410 -0.544052
O8    O     O_R   0.651030 0.500010 0.587590 -0.544053
Br1   Br    Br    0.789938 0.633696 0.669307 -0.364919
Br2   Br    Br    0.210062 0.366304 0.330693 -0.364918
Br3   Br    Br    0.955154 0.352917 0.316779 -0.422697
Br4   Br    Br    0.044846 0.647083 0.683221 -0.422697
Br5   Br    Br    0.277853 0.102378 0.446406 -0.369135
Br6   Br    Br    0.722148 0.897622 0.553593 -0.369132
O9    O     O_3   0.314620 0.912722 0.459706 -0.534329
C33   C     C_3   0.270104 0.895790 0.540823 -0.170841
H7    H     H_    0.252461 0.954384 0.576659 0.184229
H8    H     H_    0.320870 0.854629 0.587247 0.140631
H9    H     H_    0.195843 0.862328 0.523165 0.209544
O10   O     O_3   0.685381 0.087278 0.540296 -0.534329
C34   C     C_3   0.729897 0.104214 0.459180 -0.170840
H10   H     H_    0.679134 0.145380 0.412761 0.140632
H11   H     H_    0.747535 0.045621 0.423339 0.184225
H12   H     H_    0.804161 0.137671 0.476842 0.209545

loop_
_geom_bond_atom_site_label_1
_geom_bond_atom_site_label_2
_ccdc_geom_bond_type
C3    C30   A    
C6    C32   S    
C9    C14   A    
C34   H11   S    
C6    C7    T    
C21   Br3   S    
C11   C13   A    
C3    Br6   S    
Cu2   O6    S    
C26   C28   A    
C4    C29   A    
C20   C23   A    
C3    C31   A    
C33   H9    S    
C30   O10   S    
C19   C24   A    
C13   H4    S    
C34   H12   S    
C22   Br4   S    
Cu2   O3    S    
C2    O4    A    
C14   H3    S    
C30   C32   A    
Cu1   O4    S    
C9    C11   A    
C1    O3    A    
O9    C33   S    
C4    C32   A    
Cu2   N1    S    
C10   C12   A    
C24   Br1   S    
C23   Br2   S    
Cu1   N2    S    
C10   H6    S    
C21   C28   A    
C12   C14   A    
Cu1   Cu2   S    
C22   C27   A    
C21   C23   A    
C4    Br5   S    
Cu1   O5    S    
C22   C24   A    
C5    C8    T    
C25   C27   A    
C20   C25   A    
C25   H2    S    
C33   H8    S    
C34   H10   S    
Cu1   O1    S    
C17   O5    A    
C26   H1    S    
C9    H5    S    
C17   C20   S    
Cu2   O2    S    
C2    O2    A    
C18   O8    A    
C29   C31   A    
C18   C19   S    
C17   O7    A    
C27   C28   A    
C19   C26   A    
Cu2   O7    S    
Cu1   O8    S    
C33   H7    S    
C1    C7    S    
C11   C15   S    
C16   N1    T    
C1    O1    A    
C2    C8    S    
O10   C34   S    
C12   C16   S    
C15   N2    T    
C29   O9    S    
C5    C31   S    
C10   C13   A    
C18   O6    A    
