data_mof_unit_26619.cif
_audit_creation_date              2013-03-05T15:59:35-0500
_audit_creation_method            fapswitch 2.2
_symmetry_space_group_name_H-M    P1
_symmetry_Int_Tables_number       1
_space_group_crystal_system       triclinic
_cell_length_a                    12.661702
_cell_length_b                    12.982423
_cell_length_c                    15.679375
_cell_angle_alpha                 90.819595
_cell_angle_beta                  101.627749
_cell_angle_gamma                 82.020854
_cell_volume                      2499.78680361

loop_
_atom_site_label
_atom_site_type_symbol
_atom_site_description
_atom_site_fract_x
_atom_site_fract_y
_atom_site_fract_z
_atom_type_partial_charge
O1    O     O_R   0.366730 0.627160 0.478790 -0.579334
O2    O     O_R   0.544830 0.662520 0.507160 -0.615182
C1    C     C_R   0.438494 0.691889 0.485308 0.856757
O3    O     O_R   0.410960 0.482330 0.609040 -0.618646
O4    O     O_R   0.589060 0.517690 0.637410 -0.600809
C2    C     C_R   0.500270 0.500278 0.661564 0.910227
Zn1   Zn    Zn3+2 0.381080 0.476390 0.481050 0.958464
Zn2   Zn    Zn3+2 0.618920 0.523610 0.518950 0.937730
O5    O     O_R   0.455170 0.337480 0.492840 -0.626446
O6    O     O_R   0.633270 0.372840 0.521210 -0.629289
O7    O     O_R   0.410940 0.482310 0.362590 -0.613492
O8    O     O_R   0.589040 0.517670 0.390960 -0.631622
C3    C     C_R   0.561088 0.308153 0.508218 0.859955
C4    C     C_R   0.499679 0.500034 0.338468 0.873520
C5    C     C_3   0.430308 0.581549 0.017743 -0.179081
C6    C     C_3   0.530721 0.592637 0.977794 -0.204296
H1    H     H_    0.554186 0.666423 0.957514 0.160608
H2    H     H_    0.371127 0.646522 0.033931 0.156356
C7    C     C_1   0.501027 0.500913 0.750797 -0.170876
C8    C     C_1   0.499153 0.500551 0.249374 -0.145163
C9    C     C_3   0.402418 0.491111 0.955611 -0.131280
C10   C     C_3   0.502777 0.501958 0.917593 0.189815
C11   C     C_3   0.474439 0.411386 0.022821 -0.189251
C12   C     C_3   0.502183 0.501792 0.083439 0.126302
C13   C     C_3   0.574953 0.422036 0.982917 -0.211865
C14   C     C_3   0.601442 0.512534 0.044573 0.021795
C15   C     C_1   0.501924 0.501509 0.826419 -0.041599
C16   C     C_1   0.499976 0.501170 0.174092 -0.002286
H3    H     H_    0.634359 0.357210 0.966793 0.155611
H4    H     H_    0.451253 0.337494 0.043136 0.150290
H5    H     H_    0.320650 0.482303 0.916756 0.146586
C17   C     C_R   0.723880 0.054892 0.460226 0.145447
H6    H     H_    0.761112 0.211266 0.489213 0.151322
C18   C     C_R   0.597597 0.197731 0.499671 -0.083418
C19   C     C_R   0.289736 0.847985 0.467222 -0.083944
C20   C     C_R   0.260033 0.956580 0.455249 -0.033113
C21   C     C_R   0.340877 0.018225 0.452383 -0.254965
C22   C     C_R   0.449050 0.973685 0.453304 0.075270
C23   C     C_R   0.471677 0.866906 0.443545 0.040008
C24   C     C_R   0.535290 0.032996 0.463087 0.042700
C25   C     C_R   0.637234 0.991846 0.441796 0.071803
C26   C     C_R   0.645002 0.891002 0.403551 0.105567
C27   C     C_R   0.565011 0.828214 0.410881 -0.169136
C28   C     C_R   0.521925 0.131233 0.498621 -0.234759
C29   C     C_R   0.699658 0.159713 0.482775 -0.229600
C30   C     C_R   0.398166 0.802696 0.463498 -0.203251
H7    H     H_    0.450254 0.158861 0.524410 0.162334
H8    H     H_    0.317088 0.101323 0.443955 0.183051
H9    H     H_    0.571715 0.750173 0.386193 0.185607
C31   C     C_R   0.080720 0.382963 0.351267 -0.274456
H10   H     H_    0.244935 0.380947 0.334377 0.146664
H11   H     H_    0.873348 0.347685 0.328050 0.169830
H12   H     H_    0.056010 0.342851 0.291001 0.157916
N1    N     N_R   0.222180 0.444680 0.455580 -0.101699
C32   C     C_R   0.800255 0.628219 0.604770 -0.043370
C33   C     C_R   0.904122 0.658468 0.624378 -0.073261
C34   C     C_R   0.983208 0.610202 0.580625 -0.286986
C35   C     C_R   0.960381 0.529451 0.521529 -0.027452
C36   C     C_R   0.852944 0.506246 0.500748 0.242286
C37   C     C_R   0.039832 0.474688 0.479302 -0.031412
C38   C     C_R   0.005874 0.418998 0.403116 0.158234
C39   C     C_R   0.899052 0.396926 0.382548 -0.264988
C40   C     C_R   0.825709 0.434374 0.434827 -0.187489
C41   C     C_R   0.152594 0.467901 0.511970 0.234393
C42   C     C_R   0.187901 0.402722 0.376508 0.014611
N2    N     N_R   0.776980 0.554790 0.543960 -0.140044
H13   H     H_    0.736601 0.664063 0.636805 0.182422
H14   H     H_    0.062350 0.636148 0.592369 0.216948
H15   H     H_    0.748180 0.407285 0.421415 0.207169
C43   C     C_2   0.208184 0.784796 0.485843 0.985590
O9    O     O_2   0.185672 0.786900 0.558130 -0.637506
O10   O     O_R   0.155194 0.725484 0.419876 -0.759513
H16   H     H_    0.099239 0.687841 0.439712 0.329887
C44   C     C_2   0.146015 0.009037 0.445036 0.911093
O11   O     O_2   0.069972 0.962331 0.414522 -0.647572
O12   O     O_R   0.125929 0.114081 0.466249 -0.821941
H17   H     H_    0.045845 0.143236 0.451940 0.332332
C45   C     C_3   0.194194 0.456711 0.609730 -0.385671
C46   C     C_3   0.256573 0.348090 0.634676 -0.763701
H18   H     H_    0.199207 0.289483 0.623505 0.254100
H19   H     H_    0.319789 0.325468 0.595757 0.285093
H20   H     H_    0.296059 0.345958 0.704752 0.233748
H21   H     H_    0.240094 0.520857 0.634863 0.236850
H22   H     H_    0.126790 0.462855 0.645741 0.199003
C47   C     C_2   0.930244 0.739324 0.690056 0.904800
O13   O     O_2   0.860280 0.781906 0.727380 -0.632539
O14   O     O_R   0.035114 0.767387 0.709409 -0.777643
H23   H     H_    0.042568 0.823850 0.754700 0.352087
C48   C     C_2   0.713502 0.524534 0.093706 0.889475
O15   O     O_2   0.785206 0.533276 0.053614 -0.613000
O16   O     O_R   0.735651 0.525559 0.184669 -0.819600
H24   H     H_    0.814075 0.534286 0.210066 0.347081
C49   C     C_3   0.730157 0.853411 0.349370 -0.422248
C50   C     C_3   0.701629 0.768024 0.283539 -0.813139
H25   H     H_    0.707558 0.692156 0.317298 0.276032
H26   H     H_    0.618695 0.789163 0.243270 0.257802
H27   H     H_    0.760738 0.758383 0.239450 0.267520
H28   H     H_    0.740228 0.920397 0.309904 0.215847
H29   H     H_    0.808643 0.823381 0.392624 0.237330
C51   C     C_3   0.843652 0.013892 0.468563 -0.421350
C52   C     C_3   0.883132 0.935418 0.543776 -0.728802
H30   H     H_    0.877339 0.974391 0.606529 0.263508
H31   H     H_    0.833873 0.870465 0.536801 0.237914
H32   H     H_    0.969426 0.902903 0.545747 0.295155
H33   H     H_    0.862787 0.982370 0.407064 0.235266
H34   H     H_    0.893657 0.078148 0.483270 0.212975

loop_
_geom_bond_atom_site_label_1
_geom_bond_atom_site_label_2
_geom_bond_distance
_ccdc_geom_bond_type
C5    H2    1.110173 S    
O14   H23   1.013822 S    
Zn2   N2    2.055939 S    
C49   C50   1.533905 S    
C26   C49   1.527643 S    
H6    C29   1.083778 S    
C25   C26   1.431366 A    
C19   C20   1.412874 A    
C32   C33   1.398309 A    
C33   C47   1.483212 S    
N1    C42   1.360726 A    
C47   O13   1.223351 D    
C14   C48   1.499417 S    
Zn1   O7    1.973307 S    
C2    C7    1.397141 S    
C9    H5    1.110292 S    
C51   H33   1.100611 S    
C21   C22   1.408157 A    
C44   O12   1.399960 S    
C20   C21   1.391876 A    
C12   C14   1.526495 S    
C36   N2    1.365120 A    
H10   C42   1.080769 S    
O4    C2    1.305004 A    
O7    C4    1.305386 A    
C35   C37   1.418552 A    
C5    C6    1.550469 S    
C33   C34   1.398719 A    
C17   C29   1.408902 A    
O5    C3    1.316119 A    
C45   H21   1.104185 S    
C40   H15   1.068660 S    
C19   C43   1.479191 S    
C6    H1    1.110306 S    
C10   C13   1.533177 S    
C17   C25   1.439366 A    
C43   O9    1.222212 D    
C48   O16   1.397234 S    
C7    C15   1.183392 T    
C49   H29   1.108078 S    
C28   H7    1.081232 S    
C52   H31   1.108118 S    
C9    C10   1.532087 S    
C13   H3    1.110314 S    
C38   C39   1.394500 A    
O3    Zn1   1.968238 S    
C52   H30   1.110869 S    
C47   O14   1.398816 S    
C6    C14   1.540870 S    
C31   H12   1.083486 S    
C44   O11   1.221358 D    
C11   H4    1.110183 S    
C4    C8    1.395710 S    
C18   C28   1.373494 A    
O12   H17   1.012893 S    
O3    C2    1.305194 A    
O16   H24   1.013884 S    
C46   H19   1.107164 S    
C45   C46   1.532131 S    
C27   H9    1.077820 S    
C23   C27   1.408188 A    
C8    C16   1.182671 T    
C50   H27   1.110740 S    
C35   C36   1.407032 A    
C17   C51   1.515987 S    
C37   C38   1.410358 A    
O1    C1    1.309344 A    
C39   C40   1.393119 A    
O4    Zn2   1.973306 S    
C24   C28   1.386846 A    
Zn2   O8    1.968237 S    
C18   C29   1.393165 A    
C21   H8    1.081598 S    
C50   H26   1.111009 S    
C20   C44   1.486796 S    
C23   C30   1.413985 A    
C5    C12   1.533764 S    
O8    C4    1.304286 A    
C52   H32   1.109814 S    
C10   C15   1.427355 S    
C9    C11   1.547621 S    
C26   C27   1.407937 A    
C34   H14   1.081239 S    
C32   N2    1.357724 A    
Zn1   O5    1.906929 S    
C24   C25   1.428328 A    
C6    C10   1.533382 S    
O1    Zn1   1.940665 S    
C41   C45   1.519119 S    
O2    Zn2   1.906929 S    
C12   C16   1.427430 S    
O10   H16   1.013309 S    
O6    C3    1.309653 A    
C46   H20   1.110655 S    
C32   H13   1.082035 S    
C51   H34   1.110057 S    
C1    C30   1.478791 S    
C36   C40   1.405671 A    
C37   C41   1.407190 A    
O2    C1    1.323178 A    
C13   C14   1.540654 S    
C3    C18   1.456778 S    
H11   C39   1.083864 S    
C22   C24   1.404033 A    
C34   C35   1.410501 A    
C22   C23   1.388705 A    
N1    C41   1.371711 A    
C51   C52   1.527696 S    
C11   C13   1.550038 S    
C50   H25   1.110998 S    
C31   C42   1.393337 A    
C11   C12   1.533720 S    
C46   H18   1.111531 S    
C45   H22   1.107976 S    
C5    C9    1.547902 S    
Zn2   O6    1.940665 S    
C31   C38   1.398020 A    
C43   O10   1.397783 S    
Zn1   N1    2.068389 S    
C48   O15   1.221890 D    
C19   C30   1.428718 A    
C49   H28   1.110595 S    
