data_mof_unit_40782.cif
_audit_creation_date              2012-12-10T17:36:20-0500
_audit_creation_method            fapswitch 2.2
_symmetry_space_group_name_H-M    P1
_symmetry_Int_Tables_number       1
_space_group_crystal_system       triclinic
_cell_length_a                    12.347308
_cell_length_b                    13.152167
_cell_length_c                    15.822125
_cell_angle_alpha                 78.069704
_cell_angle_beta                  100.370849
_cell_angle_gamma                 116.624876
_cell_volume                      2236.09753912

loop_
_atom_site_label
_atom_site_type_symbol
_atom_type_description
_atom_site_fract_x
_atom_site_fract_y
_atom_site_fract_z
_atom_type_partial_charge
C1    C     C_R   0.855010 0.286644 0.506933 0.771199
C2    C     C_3   0.939709 0.368998 0.065635 0.063827
C3    C     C_3   0.998192 0.496627 0.083538 0.208050
C4    C     C_3   0.130269 0.557474 0.054529 -0.111839
C5    C     C_3   0.121348 0.566791 0.954068 -0.444173
C6    C     C_1   0.999736 0.497837 0.175918 -0.067579
C7    C     C_1   0.991845 0.493168 0.824394 -0.061321
C8    C     C_1   0.995048 0.496544 0.748716 -0.208803
C9    C     C_R   0.276974 0.024360 0.388413 -0.203306
C10   C     C_R   0.228489 0.835218 0.470294 -0.046786
C11   C     C_R   0.814435 0.083972 0.559750 -0.200440
C12   C     C_R   0.998773 0.499403 0.659303 0.832142
C13   C     C_R   0.735440 0.968585 0.575185 -0.153632
C14   C     C_R   0.612624 0.931347 0.545770 -0.181077
C15   C     C_R   0.566599 0.009262 0.496673 0.078325
C16   C     C_R   0.650424 0.124299 0.471865 0.084793
C17   C     C_R   0.440373 0.976622 0.470655 0.071427
C18   C     C_R   0.401340 0.055293 0.413889 0.170585
C19   C     C_R   0.486931 0.162938 0.381611 -0.250964
C20   C     C_R   0.609711 0.196242 0.408846 -0.202274
C21   C     C_R   0.351336 0.868352 0.500217 -0.249987
C22   C     C_R   0.190849 0.914508 0.416187 -0.210705
C23   C     C_R   0.145074 0.713508 0.487540 0.787214
C24   C     C_R   0.772920 0.163429 0.510159 -0.101381
C25   C     C_R   0.361171 0.359882 0.660730 0.161830
C26   C     C_R   0.752997 0.646155 0.382193 0.281150
C27   C     C_R   0.661969 0.685509 0.371540 -0.240191
C28   C     C_R   0.566520 0.632628 0.422088 -0.262246
C29   C     C_R   0.556888 0.537137 0.483436 0.003721
C30   C     C_R   0.657516 0.508053 0.502856 0.276436
C31   C     C_R   0.451093 0.474515 0.528984 -0.084687
C32   C     C_R   0.458448 0.405794 0.608413 0.118104
C33   C     C_R   0.559410 0.379708 0.630483 -0.268413
C34   C     C_R   0.000636 0.499909 0.340726 0.819656
C35   C     C_R   0.653086 0.424501 0.576103 -0.191279
C36   C     C_R   0.334579 0.469739 0.494193 0.210642
C37   C     C_R   0.258544 0.382384 0.630832 -0.050586
C38   C     C_3   0.951997 0.366020 0.968563 -0.146178
C39   C     C_3   0.900309 0.539688 0.932367 -0.058062
C40   C     C_3   0.921726 0.558917 0.028948 -0.414907
C41   C     C_1   0.000829 0.498776 0.251469 -0.198025
C42   C     C_3   0.989686 0.491035 0.916834 0.220509
Cu1   Cu    Cu3+1 0.098280 0.475420 0.519630 0.916775
Cu2   Cu    Cu3+1 0.901720 0.524580 0.480370 0.910967
H1    H     H_    0.030919 0.344963 0.972172 0.133194
H2    H     H_    0.993734 0.325426 0.108123 0.119781
H3    H     H_    0.095886 0.890507 0.392872 0.154394
H4    H     H_    0.458882 0.221871 0.335075 0.142925
H5    H     H_    0.246685 0.084192 0.345238 0.138398
H6    H     H_    0.375036 0.807052 0.546284 0.149406
H7    H     H_    0.907881 0.111329 0.588430 0.152069
H8    H     H_    0.556986 0.840585 0.560924 0.130036
H9    H     H_    0.768952 0.907978 0.612553 0.144948
H10   H     H_    0.672002 0.278099 0.377891 0.178328
H11   H     H_    0.186512 0.351675 0.672491 0.143110
H12   H     H_    0.563981 0.320080 0.688026 0.181671
H13   H     H_    0.497791 0.665121 0.411208 0.156566
H14   H     H_    0.660044 0.754879 0.322000 0.147182
H15   H     H_    0.720154 0.391859 0.594810 0.203671
H16   H     H_    0.805797 0.471942 0.923494 0.138066
H17   H     H_    0.832220 0.526713 0.054788 0.166681
H18   H     H_    0.969289 0.651808 0.035245 0.158806
H19   H     H_    0.187264 0.539257 0.937613 0.150012
H20   H     H_    0.148715 0.657440 0.922860 0.181806
H21   H     H_    0.176211 0.500497 0.084152 0.133938
N1    N     N_R   0.246300 0.438200 0.549400 -0.196301
N2    N     N_R   0.754300 0.561180 0.451130 -0.220055
O1    O     O_R   0.972520 0.318130 0.524690 -0.588482
O2    O     O_R   0.806530 0.359650 0.491530 -0.599560
O3    O     O_R   0.083030 0.479240 0.637150 -0.581633
O4    O     O_R   0.917040 0.520750 0.603990 -0.586602
O5    O     O_R   0.193470 0.640350 0.508470 -0.573884
O6    O     O_R   0.027480 0.681870 0.475310 -0.598021
O7    O     O_R   0.082960 0.479250 0.396010 -0.582229
O8    O     O_R   0.916970 0.520760 0.362850 -0.603424
N3    N     N_2   0.814210 0.311413 0.088199 -0.416144
H22   H     H_    0.746224 0.317596 0.041928 0.249428
C43   C     C_3   0.780996 0.207508 0.150549 -0.717046
H23   H     H_    0.686580 0.178399 0.166298 0.230045
H24   H     H_    0.842974 0.224304 0.211482 0.238960
H25   H     H_    0.786138 0.138443 0.123614 0.217714
C44   C     C_3   0.211034 0.676277 0.085574 -0.372710
C45   C     C_3   0.345365 0.719371 0.071244 -0.360731
C46   C     C_3   0.424429 0.832857 0.106354 -0.861570
H26   H     H_    0.393729 0.899862 0.072990 0.253713
H27   H     H_    0.419587 0.821787 0.177325 0.252067
H28   H     H_    0.520653 0.862002 0.094761 0.238535
H29   H     H_    0.379228 0.654609 0.105000 0.213063
H30   H     H_    0.355011 0.732337 0.000871 0.220471
H31   H     H_    0.177676 0.741035 0.051067 0.200017
H32   H     H_    0.206912 0.669694 0.156118 0.203257
C47   C     C_3   0.841385 0.269895 0.923234 -0.387029
C48   C     C_3   0.880801 0.212504 0.866581 -0.374864
C49   C     C_3   0.772565 0.137038 0.809600 -0.838722
H33   H     H_    0.702220 0.069456 0.850400 0.252524
H34   H     H_    0.732025 0.190092 0.763864 0.250103
H35   H     H_    0.803451 0.094901 0.771204 0.242783
H36   H     H_    0.950019 0.277200 0.824040 0.227636
H37   H     H_    0.922642 0.158372 0.909355 0.207838
H38   H     H_    0.787649 0.199494 0.971790 0.219628
H39   H     H_    0.779049 0.305366 0.883361 0.197341
N4    N     N_2   0.365905 0.292935 0.743269 -0.433227
H40   H     H_    0.281559 0.232559 0.760894 0.243138
C50   C     C_3   0.437378 0.359750 0.812131 -0.735128
H41   H     H_    0.395783 0.414819 0.823096 0.223937
H42   H     H_    0.532134 0.414563 0.795857 0.230891
H43   H     H_    0.440545 0.301023 0.873052 0.223894
C51   C     C_3   0.298808 0.457642 0.398202 -0.366051
C52   C     C_3   0.206223 0.333777 0.386554 -0.288628
C53   C     C_3   0.177081 0.317173 0.291052 -0.915832
H44   H     H_    0.143443 0.379799 0.252877 0.263743
H45   H     H_    0.259750 0.328967 0.264171 0.245685
H46   H     H_    0.105775 0.228920 0.284664 0.241081
H47   H     H_    0.245167 0.273236 0.421689 0.200438
H48   H     H_    0.120608 0.309876 0.414698 0.254965
H49   H     H_    0.270826 0.524913 0.362461 0.207475
H50   H     H_    0.377410 0.471684 0.365362 0.183403
C54   C     C_3   0.840952 0.691753 0.312274 -0.360633
C55   C     C_3   0.847953 0.801244 0.250375 -0.451457
C56   C     C_3   0.948266 0.843207 0.190304 -0.861905
H51   H     H_    0.038624 0.865965 0.228607 0.251972
H52   H     H_    0.931282 0.775512 0.151124 0.252558
H53   H     H_    0.949760 0.920817 0.145522 0.243291
H54   H     H_    0.760361 0.783177 0.208873 0.224865
H55   H     H_    0.867461 0.870763 0.288523 0.227810
H56   H     H_    0.934042 0.712359 0.342261 0.245006
H57   H     H_    0.812709 0.623213 0.271296 0.208409
C57   C     C_3   0.905178 0.649158 0.868770 -0.400465
C58   C     C_3   0.805320 0.619335 0.792034 -0.352614
C59   C     C_3   0.824622 0.723101 0.722056 -0.831036
H58   H     H_    0.825391 0.794514 0.749691 0.240308
H59   H     H_    0.912138 0.752356 0.694461 0.257408
H60   H     H_    0.749409 0.698978 0.668950 0.245247
H61   H     H_    0.802900 0.548967 0.762212 0.235313
H62   H     H_    0.715338 0.589427 0.816193 0.204193
H63   H     H_    0.890728 0.707445 0.902780 0.193047
H64   H     H_    0.996058 0.698689 0.844184 0.209279

loop_
_geom_bond_atom_site_label_1
_geom_bond_atom_site_label_2
_ccdc_geom_bond_type
C5    C42   S    
Cu1   O5    S    
C36   C51   S    
C19   C20   A    
C46   H28   S    
C57   H64   S    
C3    C6    S    
C57   C58   S    
C50   H42   S    
C7    C8    T    
C28   H13   S    
C2    H2    S    
C26   C27   A    
C48   C49   S    
C30   C35   A    
C26   N2    A    
C28   C29   A    
C46   H27   S    
C38   C42   S    
C57   H63   S    
C4    H21   S    
C43   H24   S    
C9    C22   A    
C15   C16   A    
C38   C47   S    
C11   C24   A    
C1    O1    A    
C40   H18   S    
C51   C52   S    
C5    H19   S    
Cu2   O4    S    
C35   H15   S    
C18   C19   A    
C7    C42   S    
C53   H44   S    
C50   H41   S    
C38   H1    S    
C53   H45   S    
C25   C37   A    
C58   H62   S    
C14   H8    S    
C45   C46   S    
Cu1   O1    S    
C6    C41   T    
C48   H37   S    
C31   C36   A    
C30   N2    A    
C56   H53   S    
C16   C20   A    
C34   O8    A    
C49   H34   S    
C33   H12   S    
C45   H29   S    
C16   C24   A    
C13   C14   A    
C54   C55   S    
N4    H40   S    
C34   C41   S    
C23   O6    A    
C51   H50   S    
C21   H6    S    
C56   H52   S    
C39   C42   S    
C13   H9    S    
C10   C21   A    
C45   H30   S    
C9    H5    S    
C46   H26   S    
C20   H10   S    
C39   C40   S    
C52   H48   S    
C43   H23   S    
C49   H35   S    
C55   H54   S    
C10   C22   A    
C1    O2    A    
C44   H32   S    
C5    H20   S    
Cu2   O8    S    
C59   H59   S    
Cu1   Cu2   S    
C29   C30   A    
C2    C38   S    
C31   C32   A    
C8    C12   S    
C37   N1    A    
C17   C18   A    
Cu2   O2    S    
N3    H22   S    
N4    C50   S    
C53   H46   S    
C47   H39   S    
C34   O7    A    
C52   H47   S    
C12   O4    A    
C3    C40   S    
Cu1   O3    S    
C59   H60   S    
C54   H57   S    
C3    C4    S    
C55   H55   S    
C2    N3    S    
C56   H51   S    
C47   H38   S    
C58   C59   S    
C15   C17   A    
C12   O3    A    
C39   C57   S    
C19   H4    S    
C23   O5    A    
C26   C54   S    
N3    C43   S    
C4    C5    S    
C27   H14   S    
C55   C56   S    
C10   C23   S    
C44   H31   S    
C32   C33   A    
C51   H49   S    
C2    C3    S    
C29   C31   A    
C52   C53   S    
C11   C13   A    
C43   H25   S    
Cu1   O7    S    
Cu1   N1    S    
C39   H16   S    
C47   C48   S    
C33   C35   A    
C59   H58   S    
C36   N1    A    
Cu2   O6    S    
C25   N4    S    
C22   H3    S    
C11   H7    S    
C40   H17   S    
C58   H61   S    
C37   H11   S    
C9    C18   A    
C4    C44   S    
C1    C24   S    
C44   C45   S    
C27   C28   A    
C14   C15   A    
Cu2   N2    S    
C54   H56   S    
C48   H36   S    
C49   H33   S    
C50   H43   S    
C25   C32   A    
C17   C21   A    
