data_mof_unit_35550.cif
_audit_creation_date              2012-12-10T18:10:56-0500
_audit_creation_method            fapswitch 2.2
_symmetry_space_group_name_H-M    P1
_symmetry_Int_Tables_number       1
_space_group_crystal_system       triclinic
_cell_length_a                    12.616347
_cell_length_b                    13.111979
_cell_length_c                    15.728161
_cell_angle_alpha                 90.651823
_cell_angle_beta                  102.884507
_cell_angle_gamma                 81.994862
_cell_volume                      2511.08827825

loop_
_atom_site_label
_atom_site_type_symbol
_atom_type_description
_atom_site_fract_x
_atom_site_fract_y
_atom_site_fract_z
_atom_type_partial_charge
C1    C     C_R   0.438517 0.691352 0.487309 0.849602
C2    C     C_R   0.598209 0.199915 0.502588 -0.155015
C3    C     C_R   0.300014 0.839460 0.501475 -0.168750
C4    C     C_R   0.501167 0.500185 0.661554 0.914165
C5    C     C_R   0.271443 0.944778 0.508964 -0.172220
C6    C     C_R   0.345152 0.011639 0.500390 -0.156868
C7    C     C_R   0.447722 0.973868 0.481008 0.096369
C8    C     C_R   0.466496 0.870082 0.457696 0.086247
C9    C     C_R   0.530820 0.036081 0.480940 -0.043798
C10   C     C_R   0.617744 0.001194 0.438977 0.123222
C11   C     C_R   0.625744 0.902928 0.404437 -0.188007
C12   C     C_3   0.386660 0.551378 0.028024 -0.386442
C13   C     C_R   0.551989 0.837500 0.414662 -0.188130
C14   C     C_R   0.532358 0.131094 0.522969 0.452853
C15   C     C_R   0.682254 0.166577 0.459588 -0.285681
C16   C     C_R   0.561375 0.308754 0.509172 0.907885
C17   C     C_R   0.398956 0.801414 0.478198 -0.122035
C18   C     C_R   0.090610 0.341156 0.382766 0.437559
C19   C     C_R   0.797006 0.635100 0.597327 -0.085414
C20   C     C_R   0.899290 0.668695 0.614330 0.438430
C21   C     C_R   0.982067 0.616656 0.577725 -0.312525
C22   C     C_R   0.961624 0.532419 0.522323 -0.019010
C23   C     C_3   0.498403 0.498968 0.082335 0.343232
C24   C     C_R   0.854936 0.503736 0.505342 0.221288
C25   C     C_R   0.041668 0.477108 0.481865 -0.038486
C26   C     C_R   0.012598 0.396415 0.423580 0.063744
C27   C     C_R   0.906283 0.371325 0.407453 -0.243084
C28   C     C_R   0.498905 0.499658 0.338460 0.876891
C29   C     C_R   0.829217 0.423985 0.447986 -0.200003
C30   C     C_R   0.150151 0.498372 0.496984 -0.067080
C31   C     C_R   0.195778 0.368965 0.399078 -0.092881
C32   C     C_3   0.388947 0.551884 0.930287 -0.376193
C33   C     C_3   0.592648 0.559433 0.969641 -0.383815
C34   C     C_3   0.520559 0.387081 0.051404 -0.391740
C35   C     C_3   0.590363 0.558932 0.067387 -0.391962
C36   C     C_1   0.496690 0.498899 0.249019 -0.171306
C37   C     C_3   0.502266 0.499807 0.917793 0.335441
C38   C     C_3   0.529337 0.124636 0.666141 -0.297325
C39   C     C_3   0.116761 0.169307 0.355903 -0.329793
C40   C     C_3   0.522858 0.387577 0.953650 -0.393864
C41   C     C_1   0.496638 0.498674 0.173578 -0.117434
C42   C     C_1   0.503935 0.500252 0.826531 -0.110970
C43   C     C_1   0.503654 0.500408 0.751049 -0.164222
C44   C     C_R   0.694582 0.065909 0.430808 -0.168265
H1    H     H_    0.369012 0.631936 0.049521 0.175569
H2    H     H_    0.193745 0.974443 0.524620 0.163660
H3    H     H_    0.372347 0.632693 0.904630 0.181995
H4    H     H_    0.560776 0.762043 0.386356 0.163937
H5    H     H_    0.257090 0.330352 0.366919 0.149976
H6    H     H_    0.882010 0.310187 0.363568 0.193245
H7    H     H_    0.180549 0.556208 0.541293 0.145250
H8    H     H_    0.731917 0.674234 0.625317 0.193412
H9    H     H_    0.060230 0.644728 0.592455 0.181824
H10   H     H_    0.749427 0.401115 0.432561 0.204954
H11   H     H_    0.674854 0.523328 0.961298 0.179870
H12   H     H_    0.322646 0.510315 0.893158 0.181773
H13   H     H_    0.579492 0.640354 0.944621 0.176634
H14   H     H_    0.576175 0.639632 0.089529 0.171226
H15   H     H_    0.671510 0.522619 0.106210 0.178420
H16   H     H_    0.458854 0.343203 0.916906 0.172828
H17   H     H_    0.603908 0.348600 0.945061 0.173214
H18   H     H_    0.455444 0.342491 0.061820 0.172815
H19   H     H_    0.605427 0.161275 0.685537 0.158031
H20   H     H_    0.549837 0.039160 0.669205 0.183997
H21   H     H_    0.478407 0.146916 0.714253 0.193143
H22   H     H_    0.081497 0.108891 0.313152 0.204004
H23   H     H_    0.319314 0.509529 0.038055 0.178770
H24   H     H_    0.105872 0.154018 0.422768 0.158332
H25   H     H_    0.205396 0.162081 0.355273 0.163072
H26   H     H_    0.825382 0.920714 0.700261 0.381790
H27   H     H_    0.600513 0.347874 0.089978 0.173438
H28   H     H_    0.734727 0.219222 0.444659 0.167345
H29   H     H_    0.690307 0.875886 0.370870 0.144926
H30   H     H_    0.760073 0.040624 0.397732 0.151242
H31   H     H_    0.246018 0.787753 0.515700 0.167986
H32   H     H_    0.318317 0.092761 0.505628 0.190976
N1    N     N_R   0.222200 0.444690 0.455710 -0.127165
N2    N     N_R   0.776960 0.554780 0.543830 -0.161383
O1    O     O_R   0.366740 0.627160 0.478850 -0.616530
O2    O     O_3   0.061128 0.266366 0.322564 -0.611660
O3    O     O_2   0.953247 0.742392 0.774002 -0.297442
O4    O     O_2   0.013245 0.826719 0.657978 -0.313830
O5    O     O_3   0.806255 0.861805 0.662740 -0.574042
O6    O     O_R   0.544830 0.662520 0.507140 -0.610274
O7    O     O_R   0.410920 0.482310 0.608710 -0.600737
O8    O     O_R   0.589010 0.517670 0.637000 -0.607556
O9    O     O_R   0.455170 0.337480 0.492860 -0.574756
O10   O     O_R   0.633260 0.372840 0.521150 -0.642166
O11   O     O_R   0.410990 0.482330 0.363000 -0.610325
O12   O     O_R   0.589080 0.517690 0.391290 -0.635826
O13   O     O_3   0.468551 0.159490 0.582712 -0.623400
S1    S     S_3+6 0.922113 0.776737 0.679817 0.003959
Zn1   Zn    Zn3+2 0.381090 0.476390 0.481110 0.963579
Zn2   Zn    Zn3+2 0.618910 0.523610 0.518890 0.937293

loop_
_geom_bond_atom_site_label_1
_geom_bond_atom_site_label_2
_ccdc_geom_bond_type
C33   H11   S    
C30   H7    S    
C8    C13   A    
C40   H16   S    
C27   C29   A    
C39   H24   S    
C19   C20   A    
C18   C26   A    
C7    C8    A    
C1    O6    A    
O5    S1    S    
C20   S1    S    
C12   C23   S    
C26   C27   A    
C35   H14   S    
C34   C40   S    
C32   H3    S    
C15   C44   A    
O1    Zn1   S    
C37   C40   S    
C5    C6    A    
C4    O8    A    
C29   H10   S    
C34   H18   S    
O4    S1    D    
C35   H15   S    
C37   C42   S    
C24   C29   A    
O8    Zn2   S    
C30   N1    A    
O7    Zn1   S    
C19   H8    S    
C22   C25   A    
C16   O9    A    
C31   N1    A    
C28   O11   A    
C2    C16   S    
C9    C10   A    
C27   H6    S    
C21   C22   A    
C12   C32   S    
O3    S1    D    
C36   C41   T    
C31   H5    S    
O12   Zn2   S    
C38   H20   S    
C12   H23   S    
O10   Zn2   S    
C10   C44   A    
H26   O5    S    
C11   H29   S    
C4    O7    A    
C25   C26   A    
C38   O13   S    
C33   C37   S    
C40   H17   S    
C19   N2    A    
C9    C14   A    
C15   H28   S    
C38   H21   S    
C23   C34   S    
C39   H25   S    
O6    Zn2   S    
C32   C37   S    
C44   H30   S    
C2    C15   A    
C24   N2    A    
C23   C35   S    
C1    O1    A    
C39   H22   S    
C22   C24   A    
C42   C43   T    
C3    H31   S    
C38   H19   S    
C25   C30   A    
C7    C9    A    
C33   H13   S    
C12   H1    S    
C3    C5    A    
C13   H4    S    
C6    H32   S    
C6    C7    A    
C4    C43   S    
C5    H2    S    
C1    C17   S    
C8    C17   A    
C23   C41   S    
C39   O2    S    
C21   H9    S    
C11   C13   A    
N2    Zn2   S    
O9    Zn1   S    
N1    Zn1   S    
C33   C35   S    
C3    C17   A    
O11   Zn1   S    
C2    C14   A    
C14   O13   S    
C10   C11   A    
C20   C21   A    
C28   C36   S    
C18   O2    S    
C16   O10   A    
C28   O12   A    
C18   C31   A    
C34   H27   S    
C32   H12   S    
