data_mof_unit_30125.cif
_audit_creation_date              2012-12-10T19:03:41-0500
_audit_creation_method            fapswitch 2.2
_symmetry_space_group_name_H-M    P1
_symmetry_Int_Tables_number       1
_space_group_crystal_system       triclinic
_cell_length_a                    15.868172
_cell_length_b                    10.822334
_cell_length_c                    9.633056
_cell_angle_alpha                 91.154127
_cell_angle_beta                  89.867266
_cell_angle_gamma                 90.912659
_cell_volume                      1653.74231315

loop_
_atom_site_label
_atom_site_type_symbol
_atom_type_description
_atom_site_fract_x
_atom_site_fract_y
_atom_site_fract_z
_atom_type_partial_charge
C1    C     C_R   0.500660 0.262781 0.498653 0.855440
C2    C     C_3   0.948443 0.395060 0.577684 -0.606721
C3    C     C_3   0.916496 0.500217 0.485736 -0.136957
C4    C     C_3   0.950522 0.624695 0.551407 0.176779
C5    C     C_3   0.048677 0.634772 0.534802 0.617579
C6    C     C_1   0.824240 0.499333 0.491492 0.135081
C7    C     C_1   0.175473 0.502288 0.496520 0.188520
C8    C     C_1   0.250992 0.500838 0.499679 -0.040770
C9    C     C_R   0.547759 0.065888 0.589904 0.002467
C10   C     C_R   0.498764 0.129441 0.496310 -0.147947
C11   C     C_R   0.440325 0.063867 0.412961 -0.136406
C12   C     C_R   0.340501 0.499840 0.500133 0.766485
C13   C     C_R   0.434647 0.934609 0.417235 0.410901
C14   C     C_R   0.490123 0.870685 0.505449 -0.160068
C15   C     C_R   0.541817 0.938608 0.596826 0.019219
C16   C     C_3   0.633957 0.925150 0.620395 -0.414069
C17   C     C_3   0.642073 0.063967 0.606297 0.623287
C18   C     C_R   0.567492 0.544664 0.075196 0.181557
C19   C     C_R   0.436403 0.446371 0.074320 -0.021807
C20   C     C_R   0.436304 0.444286 0.926896 0.493438
C21   C     C_R   0.569252 0.542770 0.928211 0.023218
C22   C     C_3   0.610134 0.670852 0.933559 0.658441
C23   C     C_R   0.497205 0.737215 0.501243 0.791013
C24   C     C_3   0.604404 0.670118 0.092422 0.078064
C25   C     C_R   0.659414 0.500394 0.499405 0.926454
C26   C     C_3   0.046689 0.398385 0.588782 0.566727
C27   C     C_3   0.050480 0.471975 0.338945 0.092731
C28   C     C_3   0.951174 0.484687 0.332070 0.612506
C29   C     C_1   0.748870 0.499484 0.496541 0.057236
C30   C     C_3   0.082990 0.503716 0.491100 -0.155178
Cu1   Cu    Cu3+1 0.500000 0.499980 0.640670 1.058563
Cu2   Cu    Cu3+1 0.500000 0.500020 0.359330 1.027579
H1    H     H_    0.925240 0.304288 0.537407 0.281558
H2    H     H_    0.918514 0.402605 0.681771 0.212802
H3    H     H_    0.398670 0.113070 0.345117 0.175600
H4    H     H_    0.647403 0.894686 0.726732 0.291428
H5    H     H_    0.664883 0.869725 0.536798 0.214267
H6    H     H_    0.384533 0.403429 0.129386 0.172321
H7    H     H_    0.559561 0.737542 0.139073 0.131932
H8    H     H_    0.064521 0.372944 0.320756 0.174474
H9    H     H_    0.933954 0.624943 0.664024 0.143677
N1    N     N_R   0.500530 0.500930 0.147930 -0.245419
N2    N     N_R   0.500530 0.500890 0.852020 -0.256135
O1    O     O_R   0.500000 0.319640 0.618810 -0.587527
O2    O     O_R   0.500010 0.319680 0.381230 -0.558964
O3    O     O_R   0.379430 0.499990 0.618840 -0.553897
O4    O     O_R   0.379440 0.500030 0.381260 -0.593202
O5    O     O_R   0.499990 0.680320 0.618770 -0.526261
O6    O     O_R   0.500000 0.680360 0.381190 -0.590033
O7    O     O_R   0.620560 0.499970 0.618740 -0.512838
O8    O     O_R   0.620570 0.500010 0.381160 -0.531128
S1    S     S_3+6 0.077058 0.416293 0.770485 0.124958
O9    O     O_2   0.057348 0.297820 0.843629 -0.229365
O10   O     O_2   0.170023 0.442197 0.783479 -0.153253
O11   O     O_3   0.024754 0.531349 0.850836 -0.413899
H10   H     H_    0.969249 0.496136 0.877056 0.378868
O12   O     O_3   0.910814 0.726394 0.491991 -0.631672
H11   H     H_    0.921946 0.798856 0.554518 0.357515
O13   O     O_3   0.375198 0.875806 0.333687 -0.678930
H12   H     H_    0.364833 0.791108 0.367311 0.333624
S2    S     S_3+6 0.679126 0.140499 0.762169 0.063558
O14   O     O_2   0.617675 0.118495 0.878497 -0.278261
O15   O     O_2   0.763428 0.089899 0.800507 -0.225126
O16   O     O_3   0.689345 0.292922 0.736912 -0.508743
H13   H     H_    0.705179 0.328570 0.828841 0.395630
S3    S     S_3+6 0.701180 0.104532 0.453881 0.063935
O17   O     O_2   0.690740 0.238844 0.424580 -0.277097
O18   O     O_2   0.792865 0.078989 0.476895 -0.202944
O19   O     O_3   0.666160 0.019864 0.316773 -0.553058
H14   H     H_    0.701348 0.047001 0.237624 0.417938
O20   O     O_3   0.078588 0.283985 0.541059 -0.709787
H15   H     H_    0.051820 0.216985 0.595470 0.379610
O21   O     O_3   0.369384 0.384596 0.863515 -0.666129
H16   H     H_    0.391424 0.340539 0.781164 0.364871
S4    S     S_3+6 0.717432 0.676673 0.870930 0.080151
O22   O     O_2   0.762668 0.784778 0.939282 -0.214299
O23   O     O_2   0.761866 0.559660 0.905743 -0.266961
O24   O     O_3   0.720366 0.695301 0.698928 -0.583765
H17   H     H_    0.777548 0.728671 0.679511 0.370980
O25   O     O_3   0.560419 0.762679 0.875099 -0.715603
H18   H     H_    0.501947 0.753718 0.911000 0.308281
O26   O     O_3   0.681857 0.665358 0.161869 -0.630450
H19   H     H_    0.694284 0.750788 0.196021 0.370968
S5    S     S_3+6 0.109688 0.541934 0.195439 0.153064
O27   O     O_2   0.057814 0.628225 0.112046 -0.054678
O28   O     O_2   0.186942 0.612725 0.242866 -0.304239
O29   O     O_3   0.141264 0.426185 0.089780 -0.381884
H20   H     H_    0.186302 0.384701 0.141501 0.342000
S6    S     S_3+6 0.906545 0.350973 0.237944 0.060788
O30   O     O_2   0.930869 0.231550 0.302678 -0.240889
O31   O     O_2   0.812104 0.358079 0.232319 -0.245366
O32   O     O_3   0.943891 0.351409 0.074921 -0.450296
H21   H     H_    0.910425 0.286937 0.024403 0.401659
O33   O     O_3   0.930244 0.590806 0.258260 -0.562719
H22   H     H_    0.868187 0.591418 0.245868 0.380222
O34   O     O_3   0.085400 0.675983 0.660870 -0.671164
H23   H     H_    0.064241 0.760343 0.681073 0.353993
O35   O     O_3   0.068292 0.721267 0.431335 -0.602992
H24   H     H_    0.128188 0.747141 0.443355 0.364932

loop_
_geom_bond_atom_site_label_1
_geom_bond_atom_site_label_2
_ccdc_geom_bond_type
S3    O18   D    
O11   H10   S    
C18   C21   A    
O21   H16   S    
C19   C20   A    
S5    O29   S    
O29   H20   S    
C3    C6    S    
C5    O34   S    
C7    C8    T    
C17   S3    S    
Cu1   N2    S    
C18   C24   S    
C3    C28   S    
S5    O28   D    
O19   H14   S    
C18   N1    A    
C23   O6    A    
S3    O19   S    
C4    H9    S    
C15   C16   S    
C24   H7    S    
C28   O33   S    
Cu2   O2    S    
S2    O15   D    
C24   O26   S    
C25   O7    A    
C17   S2    S    
C21   N2    A    
C16   C17   S    
Cu1   O3    S    
C4    O12   S    
C28   S6    S    
S6    O31   D    
C9    C10   A    
C19   N1    A    
C16   H5    S    
C2    H2    S    
S3    O17   D    
O13   H12   S    
C7    C30   S    
C21   C22   S    
C27   C30   S    
C26   O20   S    
S2    O14   D    
C22   S4    S    
C12   O4    A    
S1    O10   D    
C25   C29   S    
Cu1   O1    S    
S5    O27   D    
C12   O3    A    
O24   H17   S    
C4    C5    S    
O26   H19   S    
C14   C23   S    
S2    O16   S    
S4    O22   D    
C25   O8    A    
Cu2   O8    S    
C19   H6    S    
C26   S1    S    
C1    O1    A    
Cu1   Cu2   S    
C27   H8    S    
C8    C12   S    
O34   H23   S    
C2    C26   S    
S6    O32   S    
S4    O23   D    
C2    H1    S    
C9    C17   S    
C26   C30   S    
Cu1   O5    S    
Cu2   O4    S    
C22   C24   S    
Cu1   O7    S    
C3    C4    S    
C20   N2    A    
S1    O9    D    
C5    C30   S    
C27   S5    S    
C23   O5    A    
C1    C10   S    
O25   H18   S    
S1    O11   S    
C13   O13   S    
O16   H13   S    
C11   H3    S    
C2    C3    S    
C9    C15   A    
C22   O25   S    
O20   H15   S    
C16   H4    S    
C11   C13   A    
C1    O2    A    
O12   H11   S    
O32   H21   S    
C20   O21   S    
O33   H22   S    
S4    O24   S    
Cu2   O6    S    
C10   C11   A    
C6    C29   T    
C5    O35   S    
O35   H24   S    
C27   C28   S    
Cu2   N1    S    
C14   C15   A    
S6    O30   D    
C13   C14   A    
