data_mof_unit_29582.cif
_audit_creation_date              2012-12-11T17:07:34-0500
_audit_creation_method            fapswitch 2.2
_symmetry_space_group_name_H-M    P1
_symmetry_Int_Tables_number       1
_space_group_crystal_system       triclinic
_cell_length_a                    6.96668
_cell_length_b                    14.514221
_cell_length_c                    16.138349
_cell_angle_alpha                 90.091908
_cell_angle_beta                  89.86068
_cell_angle_gamma                 90.208355
_cell_volume                      1631.82652837

loop_
_atom_site_label
_atom_site_type_symbol
_atom_type_description
_atom_site_fract_x
_atom_site_fract_y
_atom_site_fract_z
_atom_type_partial_charge
O1    O     O_R   0.505720 0.583900 0.413310 -0.538963
O2    O     O_R   0.175940 0.594920 0.586080 -0.539349
O3    O     O_R   0.005640 0.416100 0.586690 -0.527856
C1    C     C_R   0.345499 0.617880 0.614118 0.700775
O4    O     O_R   0.176000 0.594930 0.413930 -0.542234
O5    O     O_R   0.005700 0.416110 0.413310 -0.545561
C2    C     C_R   0.344978 0.616843 0.385125 0.690831
O6    O     O_R   0.505660 0.583890 0.586690 -0.540917
O7    O     O_3   0.339200 0.441330 0.500000 -0.367994
V1    V     V_3+5 0.064350 0.510880 0.500000 1.383414
O8    O     O_R   0.675980 0.405080 0.413920 -0.538990
C3    C     C_R   0.844301 0.385506 0.383289 0.694218
O9    O     O_R   0.675920 0.405070 0.586070 -0.544906
C4    C     C_R   0.843529 0.381661 0.614010 0.709256
V2    V     V_3+5 0.564340 0.489120 0.500000 1.388336
O10   O     O_3   0.839360 0.558670 0.500000 -0.372335
C5    C     C_R   0.615970 0.399639 0.765503 -0.157549
C6    C     C_R   0.521976 0.416433 0.840204 -0.133603
C7    C     C_R   0.553513 0.359832 0.907707 -0.121824
C8    C     C_R   0.674956 0.284566 0.900138 -0.125033
C9    C     C_R   0.766140 0.263218 0.823742 0.072713
C10   C     C_R   0.743039 0.324029 0.755440 0.065767
C11   C     C_R   0.882604 0.184054 0.816006 -0.181929
C12   C     C_R   0.980545 0.166214 0.740397 0.040593
C13   C     C_R   0.954433 0.225025 0.670145 0.065628
C14   C     C_R   0.846206 0.308614 0.679872 -0.186468
C15   C     C_R   0.100314 0.087802 0.732632 -0.153932
C16   C     C_R   0.196489 0.068286 0.659720 -0.178639
C17   C     C_R   0.162311 0.120477 0.590070 -0.109982
C18   C     C_R   0.033044 0.194189 0.592447 0.169973
H1    H     H_    0.426533 0.474837 0.845994 0.114769
H2    H     H_    0.483869 0.374320 0.966329 0.107692
H3    H     H_    0.697745 0.244328 0.955518 0.106774
H4    H     H_    0.122205 0.039326 0.782072 0.128827
H5    H     H_    0.290263 0.009049 0.656036 0.125498
C19   C     C_R   0.717042 0.190317 0.234559 0.059394
C20   C     C_R   0.881249 0.183356 0.184770 -0.095374
C21   C     C_R   0.035042 0.243201 0.202481 -0.187826
H6    H     H_    0.160024 0.243429 0.162965 0.142525
C22   C     C_R   0.022607 0.308036 0.267373 -0.202985
C23   C     C_R   0.856067 0.316345 0.315600 -0.092828
C24   C     C_R   0.702666 0.257818 0.296452 0.093832
C25   C     C_3   0.506156 0.284172 0.268285 -0.024637
C26   C     C_3   0.518011 0.206597 0.205288 -0.396414
H7    H     H_    0.397570 0.272164 0.317588 0.142908
H8    H     H_    0.422666 0.147306 0.220332 0.148691
C27   C     C_R   0.509209 0.685007 0.740057 0.096919
C28   C     C_R   0.356815 0.685684 0.683052 -0.141776
C29   C     C_R   0.209255 0.750248 0.696407 -0.186013
H9    H     H_    0.089462 0.753640 0.654080 0.135980
C30   C     C_R   0.217572 0.813216 0.762888 -0.181266
H10   H     H_    0.103680 0.863083 0.769808 0.123732
C31   C     C_R   0.376702 0.815449 0.816646 -0.106957
C32   C     C_R   0.518986 0.749150 0.804554 0.060516
C33   C     C_3   0.729471 0.763108 0.794992 -0.394898
C34   C     C_3   0.721237 0.692990 0.724915 -0.028836
H11   H     H_    0.809682 0.740403 0.850822 0.179692
H12   H     H_    0.765081 0.833810 0.773330 0.145889
H13   H     H_    0.755840 0.722514 0.663088 0.140319
C35   C     C_R   0.502190 0.751660 0.312843 0.053253
C36   C     C_R   0.352903 0.687010 0.318282 -0.103635
C37   C     C_R   0.204310 0.694111 0.259394 -0.174201
H14   H     H_    0.083880 0.646960 0.261624 0.121079
C38   C     C_R   0.216178 0.757904 0.193504 -0.180740
H15   H     H_    0.103997 0.758272 0.147276 0.128763
C39   C     C_R   0.376454 0.816858 0.184734 -0.136707
C40   C     C_R   0.513126 0.815146 0.248296 0.103150
C41   C     C_3   0.726946 0.809293 0.244910 -0.028170
C42   C     C_3   0.714496 0.739577 0.315630 -0.387621
H16   H     H_    0.776410 0.763777 0.375310 0.176118
H17   H     H_    0.757554 0.668873 0.296991 0.147764
O11   O     O_R   0.229140 0.916090 0.913340 -0.544340
O12   O     O_R   0.558860 0.905090 0.086080 -0.541564
O13   O     O_R   0.729100 0.083920 0.086690 -0.540319
C43   C     C_R   0.389621 0.883048 0.114800 0.702598
O14   O     O_R   0.558860 0.905090 0.913930 -0.538826
O15   O     O_R   0.729100 0.083920 0.913310 -0.535830
C44   C     C_R   0.389870 0.884145 0.884460 0.696470
O16   O     O_R   0.229140 0.916080 0.086720 -0.536668
O17   O     O_3   0.395570 0.058660 0.000020 -0.368832
V3    V     V_3+5 0.670450 0.989140 0.000000 1.393636
O18   O     O_R   0.058810 0.094980 0.913910 -0.541447
C45   C     C_R   0.890809 0.116378 0.885172 0.694411
O19   O     O_R   0.058810 0.094980 0.086060 -0.542361
C46   C     C_R   0.890062 0.117274 0.114574 0.680462
V4    V     V_3+5 0.170450 0.010950 0.999970 1.395754
O20   O     O_3   0.895460 0.941370 0.999990 -0.371426
H18   H     H_    0.228524 0.099505 0.532201 0.115294
H19   H     H_    0.137934 0.356071 0.277526 0.146560
C47   C     C_3   0.499326 0.380061 0.227301 -0.772783
H20   H     H_    0.375385 0.384809 0.184542 0.196052
H21   H     H_    0.484870 0.434309 0.275390 0.210751
H22   H     H_    0.630941 0.393821 0.190168 0.217972
H23   H     H_    0.512286 0.229017 0.139389 0.177157
C48   C     C_3   0.829973 0.604417 0.744609 -0.735322
H24   H     H_    0.820953 0.557010 0.690996 0.213960
H25   H     H_    0.983391 0.619400 0.756154 0.217531
H26   H     H_    0.771398 0.570833 0.801048 0.207494
H27   H     H_    0.585003 0.447669 0.716857 0.136542
C49   C     C_3   0.824207 0.900237 0.268821 -0.742073
H28   H     H_    0.979370 0.888617 0.279831 0.218336
H29   H     H_    0.808723 0.950527 0.217607 0.210833
H30   H     H_    0.759497 0.929951 0.325906 0.203122
H31   H     H_    0.779500 0.779389 0.185672 0.140337
C50   C     C_3   0.967843 0.226640 0.509045 -0.784539
H32   H     H_    0.962899 0.168505 0.464121 0.187611
H33   H     H_    0.819417 0.253407 0.510490 0.193550
H34   H     H_    0.074231 0.276844 0.485685 0.233258

loop_
_geom_bond_atom_site_label_1
_geom_bond_atom_site_label_2
_ccdc_geom_bond_type
C34   C48   S    
C33   C34   S    
C23   C24   A    
C19   C24   A    
C7    C8    A    
C12   C15   A    
C1    O6    A    
C48   H26   S    
C31   C32   A    
C50   H33   S    
C16   C17   A    
C37   H14   S    
C11   C45   S    
C20   C46   S    
C19   C20   A    
C20   C21   A    
O19   V4    S    
O5    C3    A    
C21   H6    S    
O15   C45   A    
V2    O10   S    
C6    C7    A    
C42   H17   S    
C2    C36   S    
C17   H18   S    
C37   C38   A    
O8    V2    S    
O19   C46   A    
C48   H24   S    
C35   C40   A    
C41   C42   S    
C29   C30   A    
O17   V4    S    
C11   C12   A    
O1    V2    S    
C22   H19   S    
O7    V1    S    
C39   C40   A    
O9    C4    A    
O12   C43   A    
C42   H16   S    
C7    H2    S    
O12   V3    S    
C26   H8    S    
C15   H4    S    
C9    C11   A    
C50   H34   S    
C25   C47   S    
C30   H10   S    
C12   C13   A    
C16   H5    S    
O4    C2    A    
V4    O20   S    
C13   C14   A    
O18   V4    S    
C49   H30   S    
C40   C41   S    
C35   C36   A    
C30   C31   A    
C38   C39   A    
O2    C1    A    
C25   C26   S    
C41   C49   S    
C17   C18   A    
C5    H27   S    
C47   H21   S    
C27   C28   A    
O15   V3    S    
C49   H29   S    
C5    C6    A    
C4    C14   S    
C25   H7    S    
V3    O20   S    
O3    C4    A    
C27   C32   A    
C8    H3    S    
C28   C29   A    
C29   H9    S    
O6    V2    S    
C33   H11   S    
C18   C50   S    
C19   C26   S    
C24   C25   S    
O13   V3    S    
O2    V1    S    
C47   H22   S    
C1    C28   S    
C13   C18   A    
C32   C33   S    
C22   C23   A    
O1    C2    A    
C41   H31   S    
O14   C44   A    
O17   V3    S    
O14   V3    S    
O5    V1    S    
O11   V4    S    
O8    C3    A    
C48   H25   S    
C3    C23   S    
C50   H32   S    
C5    C10   A    
C34   H13   S    
C38   H15   S    
O9    V2    S    
C31   C44   S    
O7    V2    S    
O4    V1    S    
O3    V1    S    
V1    O10   S    
C21   C22   A    
C47   H20   S    
C35   C42   S    
C39   C43   S    
C49   H28   S    
O13   C46   A    
C36   C37   A    
C26   H23   S    
C8    C9    A    
O18   C45   A    
C10   C14   A    
C33   H12   S    
O11   C44   A    
C15   C16   A    
C6    H1    S    
C9    C10   A    
C43   O16   A    
O16   V4    S    
C27   C34   S    
