data_mof_unit_21650.cif
_audit_creation_date              2012-10-26T19:07:23-0400
_audit_creation_method            fapswitch 2.2
_symmetry_space_group_name_H-M    P1
_symmetry_Int_Tables_number       1
_space_group_crystal_system       triclinic
_cell_length_a                    15.010952
_cell_length_b                    13.795225
_cell_length_c                    10.612777
_cell_angle_alpha                 89.765156
_cell_angle_beta                  89.061069
_cell_angle_gamma                 90.142244
_cell_volume                      2197.36744426

loop_
_atom_site_label
_atom_site_type_symbol
_atom_type_description
_atom_site_fract_x
_atom_site_fract_y
_atom_site_fract_z
_atom_type_partial_charge
C1    C     C_R   0.329344 0.499795 0.501161 0.567342
C2    C     C_R   0.958697 0.520694 0.269504 0.266988
C3    C     C_R   0.462787 0.794328 0.600015 0.395959
C4    C     C_R   0.544372 0.206822 0.406355 0.414582
C5    C     C_R   0.537149 0.795195 0.400094 0.395784
C6    C     C_R   0.455434 0.206062 0.593558 0.411063
C7    C     C_R   0.528170 0.898105 0.392014 0.002114
C8    C     C_R   0.467445 0.103591 0.605174 -0.014208
C9    C     C_R   0.471439 0.897288 0.607858 0.001127
C10   C     C_R   0.532359 0.104398 0.394674 -0.014028
C11   C     C_R   0.499713 0.949172 0.499869 -0.142393
C12   C     C_R   0.670683 0.499926 0.498932 0.570486
C13   C     C_R   0.499765 0.052189 0.499859 -0.143279
C14   C     C_R   0.547813 0.950881 0.279693 0.230695
C15   C     C_R   0.452426 0.052838 0.719164 0.209623
C16   C     C_R   0.452204 0.949315 0.720285 0.231994
C17   C     C_R   0.548067 0.054411 0.280864 0.210599
C18   C     C_R   0.499964 0.500240 0.259304 0.563128
C19   C     C_R   0.499865 0.499771 0.740676 0.562059
C20   C     C_3   0.501042 0.592325 0.039931 -0.090382
C21   C     C_3   0.498486 0.407744 0.959977 -0.094470
C22   C     C_3   0.573598 0.544777 0.955882 -0.102967
C23   C     C_R   0.952994 0.498824 0.498987 -0.077713
C24   C     C_3   0.425940 0.455292 0.044052 -0.104345
C25   C     C_3   0.427167 0.546757 0.959269 -0.111695
C26   C     C_3   0.572365 0.453301 0.040606 -0.114505
C27   C     C_3   0.499739 0.499294 0.877535 0.033183
C28   C     C_3   0.499828 0.500763 0.122402 0.030712
C29   C     C_R   0.814629 0.501405 0.380695 0.176424
C30   C     C_R   0.185646 0.487858 0.619319 0.179793
C31   C     C_R   0.766908 0.499035 0.496304 0.003362
C32   C     C_R   0.233154 0.498904 0.504234 0.000758
C33   C     C_R   0.810104 0.496922 0.611670 0.192279
C34   C     C_R   0.047073 0.497241 0.501560 -0.077752
C35   C     C_R   0.189942 0.504781 0.389117 0.192180
C36   C     C_R   0.903587 0.491278 0.613292 -0.032065
C37   C     C_R   0.096390 0.506995 0.387379 -0.029876
C38   C     C_3   0.326001 0.735571 0.665116 0.044318
C39   C     C_3   0.267412 0.802644 0.745342 -0.275788
C40   C     C_3   0.168755 0.779442 0.728820 -0.487104
C41   C     C_3   0.689688 0.225629 0.325983 0.017323
C42   C     C_3   0.729368 0.209788 0.458045 -0.300988
C43   C     C_3   0.830579 0.200086 0.450333 -0.475445
C44   C     C_3   0.675306 0.739767 0.339032 0.045467
C45   C     C_R   0.908402 0.507203 0.382151 0.085038
C46   C     C_3   0.733606 0.810726 0.262941 -0.275182
C47   C     C_3   0.832420 0.790883 0.282894 -0.484910
C48   C     C_3   0.310558 0.222360 0.676216 0.023243
C49   C     C_3   0.268613 0.210157 0.545216 -0.301438
C50   C     C_3   0.168612 0.191122 0.557042 -0.480533
C51   C     C_R   0.091643 0.486057 0.618127 0.084317
C52   C     C_R   0.948018 0.475590 0.726572 -0.137178
C53   C     C_R   0.051684 0.521756 0.274023 -0.133728
C54   C     C_R   0.041010 0.473031 0.730739 0.268660
Cu1   Cu    Cu3+1 0.500000 0.597420 0.500000 1.037321
Cu2   Cu    Cu3+1 0.500000 0.402580 0.500000 1.059797
H1    H     H_    0.367858 0.584949 0.922655 0.153910
H2    H     H_    0.294089 0.478101 0.721988 0.311566
H3    H     H_    0.788597 0.540607 0.782606 0.320460
H4    H     H_    0.214306 0.465311 0.217347 0.318979
H5    H     H_    0.037747 0.448585 0.912650 0.305626
H6    H     H_    0.961288 0.544909 0.087579 0.304156
H7    H     H_    0.305999 0.660228 0.689050 0.172667
H8    H     H_    0.311276 0.747656 0.563336 0.124785
H9    H     H_    0.284037 0.793732 0.846390 0.205080
H10   H     H_    0.279231 0.879127 0.716646 0.160199
H11   H     H_    0.150179 0.787994 0.628490 0.149056
H12   H     H_    0.631651 0.414910 0.076870 0.160091
H13   H     H_    0.127798 0.829857 0.786736 0.151399
H14   H     H_    0.153992 0.703982 0.759888 0.185834
H15   H     H_    0.730401 0.281586 0.276007 0.173202
H16   H     H_    0.697531 0.158540 0.269802 0.166609
H17   H     H_    0.712921 0.270786 0.521371 0.212801
H18   H     H_    0.701429 0.142466 0.501006 0.138939
H19   H     H_    0.849605 0.138664 0.388198 0.146100
H20   H     H_    0.856928 0.186305 0.545895 0.159261
H21   H     H_    0.861089 0.268059 0.412975 0.164215
H22   H     H_    0.697311 0.665767 0.313531 0.192619
H23   H     H_    0.502128 0.667988 0.075156 0.200656
H24   H     H_    0.688131 0.749557 0.441678 0.119149
H25   H     H_    0.719281 0.803442 0.161008 0.205591
H26   H     H_    0.719266 0.886083 0.293156 0.158519
H27   H     H_    0.848711 0.797608 0.384226 0.144614
H28   H     H_    0.873072 0.844217 0.228247 0.150136
H29   H     H_    0.849874 0.716880 0.250095 0.206886
H30   H     H_    0.270037 0.275794 0.730024 0.191791
H31   H     H_    0.304383 0.153441 0.729643 0.164050
H32   H     H_    0.278817 0.275931 0.487000 0.204382
H33   H     H_    0.299828 0.148072 0.495034 0.141858
H34   H     H_    0.497354 0.332115 0.924591 0.191753
H35   H     H_    0.155664 0.124540 0.613723 0.147944
H36   H     H_    0.140469 0.180999 0.461866 0.153812
H37   H     H_    0.134650 0.253648 0.602575 0.170402
H38   H     H_    0.604613 0.938442 0.114778 0.320389
H39   H     H_    0.469575 0.067383 0.899085 0.331558
H40   H     H_    0.395973 0.935823 0.885586 0.320260
H41   H     H_    0.532133 0.070293 0.100755 0.331380
H42   H     H_    0.633933 0.581441 0.916752 0.156844
H43   H     H_    0.365610 0.418655 0.083244 0.153343
H44   H     H_    0.910822 0.463125 0.813304 0.129736
H45   H     H_    0.088537 0.535602 0.187368 0.128495
H46   H     H_    0.708108 0.481924 0.277341 0.309124
N1    N     N_R   0.500000 0.743810 0.500000 -0.263569
N2    N     N_R   0.500000 0.256190 0.500000 -0.245612
O1    O     O_R   0.370260 0.582280 0.500030 -0.513847
O2    O     O_3   0.228693 0.479453 0.733550 -0.658569
O3    O     O_3   0.758559 0.498573 0.720837 -0.707161
O4    O     O_3   0.241532 0.508795 0.280073 -0.704788
O5    O     O_3   0.082841 0.457082 0.844169 -0.638618
O6    O     O_3   0.916419 0.535299 0.156110 -0.645892
O7    O     O_3   0.417450 0.744972 0.695139 -0.490391
O8    O     O_3   0.599937 0.259237 0.325409 -0.496125
O9    O     O_3   0.584151 0.746864 0.306511 -0.500005
O10   O     O_3   0.399890 0.257816 0.674509 -0.499869
O11   O     O_3   0.563414 0.900293 0.169502 -0.670740
O12   O     O_R   0.629740 0.417720 0.499970 -0.491826
O13   O     O_3   0.445464 0.106055 0.828893 -0.700347
O14   O     O_3   0.436939 0.898101 0.830669 -0.665210
O15   O     O_3   0.556179 0.108345 0.171269 -0.693021
O16   O     O_R   0.629740 0.582280 0.499970 -0.522191
O17   O     O_R   0.370260 0.417720 0.500030 -0.498460
O18   O     O_R   0.499980 0.582260 0.316850 -0.461598
O19   O     O_R   0.500020 0.417740 0.683150 -0.463470
O20   O     O_R   0.500020 0.582260 0.683150 -0.460849
O21   O     O_R   0.499980 0.417740 0.316850 -0.462122
O22   O     O_3   0.771964 0.497750 0.265877 -0.661695

loop_
_geom_bond_atom_site_label_1
_geom_bond_atom_site_label_2
_ccdc_geom_bond_type
C30   C51   A    
C5    N1    A    
C8    C13   A    
C23   C45   A    
C34   C37   A    
C41   C42   S    
C33   O3    S    
Cu1   Cu2   S    
H5    O5    S    
H39   O13   S    
C7    C11   A    
C19   O19   A    
C34   C51   A    
C40   H14   S    
Cu1   O1    S    
C22   H42   S    
C47   H29   S    
H40   O14   S    
C35   C37   A    
C9    C16   A    
C18   O21   A    
C38   C39   S    
C20   C25   S    
C10   C17   A    
C15   C16   A    
C24   H43   S    
Cu1   N1    S    
C33   C36   A    
C6    O10   S    
C35   O4    S    
C46   H26   S    
C7    C14   A    
C3    O7    S    
C41   O8    S    
C31   C33   A    
C47   H27   S    
C19   C27   S    
H4    O4    S    
C41   H15   S    
C37   C53   A    
C4    O8    S    
Cu1   O18   S    
C10   C13   A    
C12   O16   A    
C29   O22   S    
C30   O2    S    
C39   H9    S    
C49   H32   S    
C25   H1    S    
C21   C26   S    
C52   C54   A    
C38   H8    S    
Cu1   O16   S    
C2    C45   A    
C43   H19   S    
C19   O20   A    
C42   H18   S    
C40   H13   S    
Cu2   O19   S    
C44   H24   S    
C18   C28   S    
C24   C25   S    
Cu2   N2    S    
C53   H45   S    
C39   C40   S    
C5    C7    A    
C6    C8    A    
C20   C28   S    
Cu2   O21   S    
C40   H11   S    
C1    C32   S    
H3    O3    S    
C15   O13   S    
C54   O5    S    
C29   C45   A    
H2    O2    S    
H41   O15   S    
C32   C35   A    
C3    C9    A    
C16   O14   S    
C46   H25   S    
H6    O6    S    
C23   C34   A    
Cu2   O12   S    
C48   H31   S    
C47   H28   S    
C9    C11   A    
C18   O18   A    
C41   H16   S    
C50   H36   S    
C48   C49   S    
C20   C22   S    
C44   O9    S    
C23   C36   A    
C8    C15   A    
C6    N2    A    
C22   C27   S    
C12   C31   S    
C22   C26   S    
C39   H10   S    
C48   H30   S    
C43   H21   S    
C42   C43   S    
C4    C10   A    
C48   O10   S    
C38   H7    S    
C3    N1    A    
C43   H20   S    
C46   C47   S    
C2    O6    S    
C42   H17   S    
C20   H23   S    
C5    O9    S    
C24   C28   S    
C49   H33   S    
H46   O22   S    
C2    C53   A    
C36   C52   A    
H38   O11   S    
C50   H37   S    
C25   C27   S    
C26   C28   S    
C51   C54   A    
C26   H12   S    
Cu2   O17   S    
C44   H22   S    
C29   C31   A    
C30   C32   A    
C11   C13   A    
C4    N2    A    
C52   H44   S    
C21   C27   S    
C1    O17   A    
C21   H34   S    
C17   O15   S    
C50   H35   S    
C49   C50   S    
Cu1   O20   S    
C21   C24   S    
C38   O7    S    
C44   C46   S    
C14   O11   S    
C1    O1    A    
C12   O12   A    
C14   C17   A    
