data_mof_unit_26065.cif
_audit_creation_date              2012-12-10T19:46:01-0500
_audit_creation_method            fapswitch 2.2
_symmetry_space_group_name_H-M    P1
_symmetry_Int_Tables_number       1
_space_group_crystal_system       triclinic
_cell_length_a                    10.549373
_cell_length_b                    14.907267
_cell_length_c                    14.176078
_cell_angle_alpha                 90.636796
_cell_angle_beta                  102.833303
_cell_angle_gamma                 89.821341
_cell_volume                      2173.53962188

loop_
_atom_site_label
_atom_site_type_symbol
_atom_type_description
_atom_site_fract_x
_atom_site_fract_y
_atom_site_fract_z
_atom_type_partial_charge
C1    C     C_R   0.497211 0.327442 0.498824 0.937163
C2    C     C_R   0.422361 0.441635 0.781575 -0.154715
C3    C     C_R   0.618485 0.512895 0.125354 0.437260
C4    C     C_R   0.424921 0.437076 0.881176 0.436479
C5    C     C_R   0.502843 0.500444 0.053342 0.000407
C6    C     C_R   0.501471 0.499033 0.946467 0.011318
C7    C     C_R   0.257984 0.506923 0.461144 0.926162
C8    C     C_R   0.742126 0.505350 0.539326 0.968797
C9    C     C_2   0.121156 0.530915 0.443037 -0.439691
C10   C     C_2   0.879796 0.525262 0.559842 -0.462510
C11   C     C_2   0.072105 0.572308 0.512396 0.391345
C12   C     C_R   0.496194 0.672675 0.499824 0.933067
C13   C     C_2   0.930676 0.573687 0.497730 0.389443
C14   C     C_R   0.380646 0.099137 0.542776 -0.273422
C15   C     C_R   0.384916 0.900063 0.408729 -0.273587
C16   C     C_R   0.397562 0.191289 0.547741 0.459911
C17   C     C_R   0.404481 0.807869 0.411443 0.449845
C18   C     C_R   0.477811 0.231482 0.492730 -0.270191
C19   C     C_R   0.477371 0.769016 0.497147 -0.292599
C20   C     C_R   0.530406 0.180764 0.425966 0.468388
C21   C     C_R   0.528040 0.821885 0.580077 0.467066
C22   C     C_R   0.511195 0.088155 0.421858 -0.294514
C23   C     C_R   0.438316 0.048386 0.480805 0.022798
C24   C     C_R   0.512259 0.914787 0.573133 -0.301041
C25   C     C_3   0.881725 0.695759 0.395812 0.072223
C26   C     C_3   0.794161 0.758139 0.439713 -0.354820
C27   C     C_3   0.818601 0.856514 0.421320 -0.963777
C28   C     C_3   0.123317 0.676527 0.638498 0.064563
C29   C     C_3   0.209915 0.746960 0.606685 -0.337796
C30   C     C_3   0.183005 0.840579 0.642148 -0.983740
C31   C     C_3   0.797828 0.440895 0.100955 -0.334615
C32   C     C_3   0.426561 0.296020 0.938757 -0.339668
C33   C     C_3   0.213688 0.264157 0.561234 -0.290033
C34   C     C_R   0.440933 0.952546 0.488446 0.030901
C35   C     C_3   0.394437 0.769467 0.253359 -0.249906
C36   C     C_3   0.581161 0.195962 0.276211 -0.331497
C37   C     C_3   0.577327 0.820775 0.748390 -0.285548
C38   C     C_3   0.268333 0.362523 0.208408 0.082696
C39   C     C_3   0.154335 0.332472 0.250697 -0.313353
C40   C     C_3   0.148636 0.230451 0.256581 -1.007696
C41   C     C_3   0.797698 0.592070 0.818189 0.101398
C42   C     C_3   0.862697 0.677931 0.865306 -0.358034
C43   C     C_3   0.004282 0.661144 0.915599 -0.946549
C44   C     C_R   0.387543 0.486699 0.085005 -0.398579
C45   C     C_R   0.578430 0.559464 0.908169 -0.422286
C46   C     C_R   0.388817 0.481702 0.184193 0.570606
C47   C     C_R   0.582711 0.555397 0.809371 0.579476
C48   C     C_R   0.613141 0.515223 0.223923 -0.209244
H1    H     H_    0.940867 0.500010 0.626366 0.133348
H2    H     H_    0.360538 0.396438 0.731519 0.209159
H3    H     H_    0.859881 0.706024 0.316333 0.179634
H4    H     H_    0.985631 0.714279 0.422526 0.130062
H5    H     H_    0.691355 0.742210 0.406493 0.231262
H6    H     H_    0.810840 0.747232 0.518913 0.222333
H7    H     H_    0.921154 0.874628 0.453732 0.271221
H8    H     H_    0.753739 0.899475 0.454550 0.272792
H9    H     H_    0.797641 0.869443 0.342351 0.259678
H10   H     H_    0.147710 0.674378 0.718767 0.165381
H11   H     H_    0.019346 0.696661 0.617638 0.122232
H12   H     H_    0.059393 0.514624 0.372778 0.155412
H13   H     H_    0.313146 0.729501 0.636925 0.250576
H14   H     H_    0.193429 0.747106 0.526552 0.215548
H15   H     H_    0.079826 0.859336 0.613386 0.272900
H16   H     H_    0.245943 0.890119 0.616667 0.269305
H17   H     H_    0.204267 0.842879 0.722471 0.261792
H18   H     H_    0.738646 0.394164 0.046962 0.152389
H19   H     H_    0.818341 0.410729 0.174291 0.163326
H20   H     H_    0.892216 0.450474 0.080179 0.198511
H21   H     H_    0.511137 0.310400 0.999498 0.147189
H22   H     H_    0.460033 0.267228 0.875649 0.183263
H23   H     H_    0.325405 0.066944 0.588904 0.166108
H24   H     H_    0.366350 0.244504 0.963935 0.187823
H25   H     H_    0.214221 0.304347 0.495626 0.138824
H26   H     H_    0.169025 0.306222 0.610191 0.194433
H27   H     H_    0.152009 0.203401 0.541542 0.163827
H28   H     H_    0.358185 0.716510 0.198460 0.191642
H29   H     H_    0.502534 0.765140 0.271317 0.149855
H30   H     H_    0.362251 0.835144 0.220025 0.137119
H31   H     H_    0.616152 0.248857 0.233748 0.180995
H32   H     H_    0.474511 0.188772 0.246821 0.139407
H33   H     H_    0.632298 0.132783 0.265256 0.165372
H34   H     H_    0.327425 0.931090 0.344463 0.158516
H35   H     H_    0.640862 0.880119 0.770150 0.146503
H36   H     H_    0.602225 0.771743 0.807742 0.207292
H37   H     H_    0.473240 0.838882 0.741834 0.151156
H38   H     H_    0.358928 0.331761 0.251446 0.162943
H39   H     H_    0.252068 0.337710 0.132210 0.135391
H40   H     H_    0.164573 0.361063 0.324561 0.216938
H41   H     H_    0.061998 0.357531 0.204805 0.212092
H42   H     H_    0.137735 0.199688 0.183499 0.266597
H43   H     H_    0.064032 0.210895 0.286439 0.271559
H44   H     H_    0.238511 0.204443 0.304997 0.264226
H45   H     H_    0.559263 0.046256 0.377498 0.159184
H46   H     H_    0.848711 0.570199 0.761346 0.163843
H47   H     H_    0.811924 0.537207 0.872671 0.125467
H48   H     H_    0.858891 0.729775 0.808966 0.242560
H49   H     H_    0.809615 0.703755 0.919441 0.215924
H50   H     H_    0.009969 0.612162 0.974912 0.282084
H51   H     H_    0.049656 0.725034 0.946971 0.262964
H52   H     H_    0.059502 0.634690 0.863108 0.254994
H53   H     H_    0.558457 0.958514 0.632209 0.161381
H54   H     H_    0.295929 0.477960 0.033395 0.223275
H55   H     H_    0.636105 0.609448 0.954331 0.212372
H56   H     H_    0.701425 0.526638 0.277568 0.232896
N1    N     N_R   0.500000 0.499980 0.252470 -0.149466
N2    N     N_R   0.500000 0.500020 0.747530 -0.146375
O1    O     O_R   0.500010 0.369070 0.579480 -0.592392
O2    O     O_3   0.149672 0.590572 0.603877 -0.624776
O3    O     O_3   0.736784 0.525113 0.100811 -0.607927
O4    O     O_3   0.349784 0.373196 0.912747 -0.612030
O5    O     O_3   0.340868 0.241129 0.610193 -0.599087
O6    O     O_3   0.341469 0.754236 0.334871 -0.587315
O7    O     O_3   0.612205 0.221868 0.374835 -0.583001
O8    O     O_3   0.601368 0.781524 0.662715 -0.565273
O9    O     O_3   0.276566 0.457199 0.211766 -0.613088
O10   O     O_3   0.666069 0.609894 0.772979 -0.589106
O11   O     O_R   0.499990 0.630930 0.420520 -0.588064
O12   O     O_R   0.500010 0.369060 0.420520 -0.597919
O13   O     O_R   0.499990 0.630940 0.579480 -0.546635
O14   O     O_R   0.317810 0.500010 0.549800 -0.559344
O15   O     O_R   0.682190 0.499990 0.450200 -0.566679
O16   O     O_R   0.317810 0.500000 0.390840 -0.562658
O17   O     O_R   0.682190 0.500000 0.609160 -0.612034
O18   O     O_3   0.853447 0.605147 0.411785 -0.649004
Zn1   Zn    Zn3+2 0.500000 0.500010 0.606140 1.017423
Zn2   Zn    Zn3+2 0.500000 0.499990 0.393860 1.009975

loop_
_geom_bond_atom_site_label_1
_geom_bond_atom_site_label_2
_ccdc_geom_bond_type
C31   H18   S    
C26   H5    S    
C6    C45   A    
C30   H16   S    
C14   H23   S    
C43   H50   S    
C32   H24   S    
C41   H47   S    
C31   H19   S    
N2    Zn1   S    
C1    C18   S    
C32   O4    S    
N1    Zn2   S    
C38   H38   S    
C42   H48   S    
C37   H37   S    
C28   C29   S    
C19   C21   A    
C43   H51   S    
C20   O7    S    
C27   H7    S    
C8    O15   A    
O17   Zn1   S    
C48   H56   S    
C46   N1    A    
C3    C48   A    
C15   C17   A    
C24   H53   S    
C41   C42   S    
C2    H2    S    
C33   H27   S    
C48   N1    A    
C10   C13   D    
C37   H36   S    
C33   O5    S    
C45   H55   S    
O11   Zn2   S    
C15   C34   A    
C23   C34   S    
C30   H15   S    
C36   H32   S    
C31   H20   S    
C39   H40   S    
C36   O7    S    
C26   H6    S    
C44   C46   A    
C15   H34   S    
C45   C47   A    
C47   O10   S    
C29   H13   S    
C35   H28   S    
C38   C39   S    
C43   H52   S    
O1    Zn1   S    
C4    C6    A    
C27   H9    S    
C42   H49   S    
C39   C40   S    
C13   O18   S    
C44   H54   S    
O14   Zn1   S    
C3    O3    S    
C32   H22   S    
C37   O8    S    
C46   O9    S    
C25   C26   S    
C2    N2    A    
C24   C34   A    
C14   C23   A    
O16   Zn2   S    
C2    C4    A    
C25   H3    S    
C29   C30   S    
C12   O13   A    
C41   H46   S    
C36   H33   S    
C47   N2    A    
C31   O3    S    
C16   C18   A    
C40   H44   S    
C9    C11   D    
C1    O1    A    
O13   Zn1   S    
C33   H25   S    
C5    C44   A    
C20   C22   A    
C26   C27   S    
C22   H45   S    
C14   C16   A    
C42   C43   S    
C41   O10   S    
C17   O6    S    
C28   H11   S    
C7    C9    S    
C4    O4    S    
C29   H14   S    
C27   H8    S    
C7    O14   A    
C21   O8    S    
C3    C5    A    
C36   H31   S    
C8    O17   A    
C32   H21   S    
C28   H10   S    
O12   Zn2   S    
C35   H30   S    
C38   H39   S    
C9    H12   S    
C25   H4    S    
O15   Zn2   S    
C38   O9    S    
C11   C13   S    
C5    C6    S    
C28   O2    S    
C12   C19   S    
C17   C19   A    
C35   H29   S    
C18   C20   A    
C1    O12   A    
C40   H43   S    
C25   O18   S    
C30   H17   S    
C12   O11   A    
C33   H26   S    
C8    C10   S    
C21   C24   A    
C11   O2    S    
C22   C23   A    
C37   H35   S    
C7    O16   A    
C40   H42   S    
C10   H1    S    
C39   H41   S    
C35   O6    S    
C16   O5    S    
