data_mof_unit_11633.cif
_audit_creation_date              2013-03-05T16:18:22-0500
_audit_creation_method            fapswitch 2.2
_symmetry_space_group_name_H-M    P1
_symmetry_Int_Tables_number       1
_space_group_crystal_system       triclinic
_cell_length_a                    10.647544
_cell_length_b                    9.769394
_cell_length_c                    10.553426
_cell_angle_alpha                 89.22278
_cell_angle_beta                  91.126716
_cell_angle_gamma                 90.349712
_cell_volume                      1097.43599029

loop_
_atom_site_label
_atom_site_type_symbol
_atom_site_description
_atom_site_fract_x
_atom_site_fract_y
_atom_site_fract_z
_atom_type_partial_charge
O1    O     O_R   0.314910 0.616040 0.499970 -0.613169
O2    O     O_R   0.314910 0.383960 0.499970 -0.620679
C1    C     C_R   0.258195 0.499813 0.506330 0.953222
O3    O     O_R   0.500080 0.616020 0.313900 -0.622917
O4    O     O_R   0.500080 0.383980 0.313900 -0.609899
C2    C     C_R   0.501558 0.501050 0.257634 0.908770
Zn1   Zn    Zn3+2 0.500150 0.654960 0.499940 0.964314
Zn2   Zn    Zn3+2 0.500150 0.345040 0.499940 0.958703
O5    O     O_R   0.685320 0.616040 0.499930 -0.637255
O6    O     O_R   0.685320 0.383960 0.499930 -0.646887
O7    O     O_R   0.500150 0.616060 0.686000 -0.605703
O8    O     O_R   0.500150 0.383940 0.686000 -0.624751
C3    C     C_R   0.742206 0.500352 0.504599 0.867850
C4    C     C_R   0.501718 0.499021 0.742717 0.954638
C5    C     C_3   0.523003 0.629985 0.039091 -0.207434
C6    C     C_3   0.391522 0.454999 0.042907 -0.149298
C7    C     C_3   0.410982 0.581396 0.955296 -0.084549
H1    H     H_    0.335332 0.647587 0.915409 0.225748
H2    H     H_    0.543913 0.735230 0.071605 0.200261
H3    H     H_    0.299822 0.420094 0.080279 0.174228
C8    C     C_3   0.502683 0.497090 0.878016 -0.130389
C9    C     C_3   0.613329 0.545093 0.960590 -0.055135
C10   C     C_3   0.484022 0.372047 0.964784 0.028391
C11   C     C_3   0.596318 0.418938 0.047881 -0.228944
C12   C     C_3   0.503746 0.503113 0.123336 -0.061417
H4    H     H_    0.671913 0.353557 0.089538 0.196263
C13   C     C_3   0.072218 0.637649 0.569864 0.163868
C14   C     C_3   0.070022 0.371043 0.587739 0.160416
H5    H     H_    0.106072 0.724021 0.509498 0.159181
H6    H     H_    0.086806 0.279616 0.528660 0.153091
C15   C     C_3   0.928273 0.640428 0.559193 -0.444783
C16   C     C_3   0.927074 0.385253 0.599537 -0.427292
H7    H     H_    0.885255 0.663336 0.651249 0.214813
H8    H     H_    0.901591 0.409004 0.698637 0.237353
H9    H     H_    0.899684 0.724570 0.492524 0.172746
H10   H     H_    0.882885 0.284856 0.576367 0.174820
H11   H     H_    0.097036 0.585397 0.320208 0.244516
H12   H     H_    0.109908 0.404447 0.324209 0.244269
H13   H     H_    0.885168 0.556031 0.306656 0.195676
H14   H     H_    0.898152 0.375738 0.340319 0.203244
C17   C     C_3   0.070092 0.492199 0.374945 -0.502982
C18   C     C_3   0.121733 0.500006 0.513858 -0.074513
C19   C     C_3   0.878417 0.501156 0.509306 0.051323
C20   C     C_3   0.926550 0.479154 0.374023 -0.399566
C21   C     C_3   0.374852 0.080346 0.455979 -0.141175
C22   C     C_3   0.376542 0.917803 0.451053 -0.154507
H15   H     H_    0.306458 0.106145 0.530856 0.138630
H16   H     H_    0.304191 0.882256 0.519097 0.155018
H17   H     H_    0.588259 0.119743 0.316446 0.226637
H18   H     H_    0.599112 0.879464 0.321935 0.210477
C23   C     C_3   0.599139 0.082259 0.415338 -0.215165
C24   C     C_3   0.602012 0.920912 0.418949 -0.230737
C25   C     C_3   0.525755 0.079327 0.625752 -0.281902
C26   C     C_3   0.522028 0.917353 0.626641 -0.258686
N1    N     N_3   0.499750 0.138610 0.497240 -0.094189
N2    N     N_3   0.499750 0.861390 0.497240 -0.095310
H19   H     H_    0.618551 0.116056 0.662374 0.182393
H20   H     H_    0.611941 0.877205 0.667137 0.205443
H21   H     H_    0.455008 0.116865 0.691887 0.213765
H22   H     H_    0.447436 0.880632 0.691378 0.205491
H23   H     H_    0.692539 0.121778 0.447278 0.147139
H24   H     H_    0.694668 0.887356 0.458457 0.147542
C27   C     C_2   0.319222 0.146133 0.336510 0.973742
O9    O     O_2   0.209103 0.180528 0.335252 -0.681014
O10   O     O_R   0.386848 0.155179 0.224880 -0.765912
H25   H     H_    0.332955 0.188617 0.150901 0.351274
C28   C     C_2   0.333176 0.859790 0.323869 0.986254
O11   O     O_2   0.231705 0.801284 0.315590 -0.669265
O12   O     O_R   0.402756 0.881002 0.214535 -0.793243
H26   H     H_    0.357588 0.846229 0.135746 0.350101
C29   C     C_2   0.736088 0.601102 0.916372 0.899760
O13   O     O_2   0.832896 0.537737 0.938095 -0.572675
O14   O     O_R   0.739306 0.728588 0.855015 -0.820357
H27   H     H_    0.828062 0.761914 0.839599 0.363269
C30   C     C_2   0.460860 0.226043 0.929888 0.924929
O15   O     O_2   0.357246 0.190933 0.890111 -0.561649
O16   O     O_R   0.556189 0.129682 0.948107 -0.793257
H28   H     H_    0.528353 0.033866 0.924121 0.346824
N3    N     N_R   0.117075 0.663099 0.700108 0.225971
O17   O     O_R   0.060339 0.609147 0.797004 -0.325361
O18   O     O_R   0.201513 0.757532 0.720180 -0.422906
N4    N     N_R   0.128517 0.341653 0.712626 0.250345
O19   O     O_R   0.226492 0.408440 0.754281 -0.363795
O20   O     O_R   0.090252 0.235390 0.777113 -0.324040

loop_
_geom_bond_atom_site_label_1
_geom_bond_atom_site_label_2
_geom_bond_distance
_ccdc_geom_bond_type
C27   O10   1.394246 S    
C1    C18   1.456731 S    
C13   H5    1.112891 S    
C17   C18   1.558250 S    
C23   H23   1.112351 S    
C19   C20   1.544550 S    
C25   H21   1.104563 S    
C26   H22   1.112407 S    
O16   H28   1.014020 S    
C5    H2    1.108265 S    
C15   C19   1.552362 S    
C16   H10   1.113336 S    
C4    C8    1.427580 S    
C11   H4    1.110796 S    
C13   N3    1.470109 S    
O4    C2    1.281652 A    
O7    C4    1.283428 A    
C5    C12   1.530659 S    
C2    C12   1.417817 S    
Zn1   O5    2.010213 S    
O14   H27   1.013121 S    
O5    C3    1.285428 A    
C5    C9    1.535840 S    
C6    C7    1.547918 S    
H17   C23   1.105500 S    
H18   C24   1.105892 S    
C10   C11   1.539982 S    
C15   H7    1.108318 S    
C6    H3    1.110212 S    
C21   H15   1.117387 S    
C8    C9    1.526834 S    
Zn1   N2    2.016541 S    
O3    Zn1   2.004919 S    
Zn2   N1    2.017262 S    
C22   H16   1.114202 S    
C25   N1    1.489083 S    
C26   N2    1.491992 S    
C14   N4    1.472099 S    
C23   C24   1.576677 S    
C14   C16   1.536851 S    
C11   C12   1.529838 S    
H12   C17   1.107775 S    
O3    C2    1.277916 A    
N3    O18   1.300756 A    
C25   H19   1.113008 S    
C21   C22   1.589720 S    
C13   C15   1.534966 S    
C21   C27   1.518830 S    
C7    C8    1.534990 S    
C28   O11   1.221365 D    
C22   C28   1.526131 S    
C28   O12   1.395862 S    
C16   H8    1.113446 S    
Zn1   O7    1.994941 S    
C30   O15   1.221501 D    
Zn2   O8    2.005063 S    
C7    H1    1.108955 S    
C30   O16   1.397329 S    
O8    C4    1.280691 A    
N4    O19   1.299487 A    
C6    C10   1.538281 S    
N4    O20   1.301316 A    
C8    C10   1.531049 S    
C17   C20   1.532758 S    
C9    C11   1.540598 S    
N3    O17   1.301623 A    
C9    C29   1.494639 S    
C3    C19   1.450166 S    
C29   O14   1.396461 S    
C26   H20   1.112178 S    
C6    C12   1.527517 S    
C5    C7    1.546929 S    
O1    Zn1   2.006391 S    
O2    Zn2   2.010950 S    
C10   C30   1.495777 S    
O6    C3    1.286147 A    
O4    Zn2   1.994789 S    
C25   C26   1.582547 S    
H13   C20   1.113947 S    
C14   H6    1.113502 S    
O2    C1    1.289255 A    
C29   O13   1.221845 D    
C24   H24   1.112955 S    
C13   C18   1.574154 S    
C15   H9    1.114606 S    
C14   C18   1.574851 S    
C16   C19   1.554284 S    
C23   N1    1.491990 S    
H11   C17   1.110869 S    
O12   H26   1.013905 S    
C27   O9    1.221437 D    
H14   C20   1.113759 S    
C21   N1    1.502276 S    
Zn2   O6    2.005655 S    
O10   H25   1.011571 S    
C22   N2    1.496224 S    
O1    C1    1.284371 A    
C24   N2    1.490297 S    
