data_mof_unit_49260.cif
_audit_creation_date              2012-12-10T18:47:46-0500
_audit_creation_method            fapswitch 2.2
_symmetry_space_group_name_H-M    P1
_symmetry_Int_Tables_number       1
_space_group_crystal_system       triclinic
_cell_length_a                    9.89176
_cell_length_b                    10.594174
_cell_length_c                    15.305438
_cell_angle_alpha                 91.312983
_cell_angle_beta                  68.09614
_cell_angle_gamma                 91.036352
_cell_volume                      1487.67821199

loop_
_atom_site_label
_atom_site_type_symbol
_atom_type_description
_atom_site_fract_x
_atom_site_fract_y
_atom_site_fract_z
_atom_type_partial_charge
Br1   Br    Br    0.062194 0.701639 0.136704 -0.292989
Br2   Br    Br    0.723093 0.110568 0.953601 -0.226675
Br3   Br    Br    0.950382 0.620507 0.975333 -0.382418
Br4   Br    Br    0.948210 0.253486 0.026873 -0.329123
Br5   Br    Br    0.224137 0.560846 0.252069 -0.442762
Br6   Br    Br    0.497630 0.192504 0.857116 -0.339164
Br7   Br    Br    0.222849 0.279872 0.376431 -0.417467
Br8   Br    Br    0.770922 0.709758 0.632371 -0.427370
C1    C     C_R   0.500425 0.739492 0.501081 0.839739
C2    C     C_R   0.540619 0.930142 0.415735 -0.088681
C3    C     C_R   0.498117 0.127961 0.497881 -0.126139
C4    C     C_R   0.501465 0.871908 0.502465 -0.122337
C5    C     C_R   0.954294 0.411118 0.449823 -0.109839
C6    C     C_R   0.044825 0.587554 0.551493 -0.133197
C7    C     C_R   0.096936 0.409662 0.450500 0.386603
C8    C     C_R   0.901171 0.587221 0.552460 0.344157
C9    C     C_R   0.408578 0.501796 0.676387 0.877606
C10   C     C_R   0.591117 0.501432 0.323398 0.872345
C11   C     C_R   0.347087 0.509682 0.778923 -0.123317
C12   C     C_R   0.499428 0.260464 0.499125 0.845168
C13   C     C_R   0.644702 0.480573 0.221580 -0.111114
C14   C     C_R   0.152421 0.573286 0.923881 0.371198
C15   C     C_R   0.766121 0.337098 0.092468 0.374147
C16   C     C_R   0.207257 0.556450 0.826336 -0.203432
C17   C     C_R   0.755512 0.395139 0.177515 -0.209920
C18   C     C_R   0.427208 0.468207 0.829716 -0.120596
C19   C     C_R   0.558366 0.520574 0.174369 -0.078434
C20   C     C_R   0.369633 0.472234 0.928150 0.063794
C21   C     C_R   0.544963 0.447665 0.100672 0.058495
C22   C     C_R   0.240641 0.542124 0.975791 -0.045171
C23   C     C_R   0.302265 0.540457 0.116528 0.220166
C24   C     C_R   0.651907 0.352813 0.057680 -0.062374
C25   C     C_R   0.448496 0.418945 0.977893 -0.068850
C26   C     C_R   0.431700 0.470318 0.066669 -0.044108
C27   C     C_2   0.414398 0.875776 0.680585 0.524741
C28   C     C_2   0.580870 0.123691 0.319974 0.500086
C29   C     C_R   0.536901 0.310702 0.944006 0.207431
C30   C     C_R   0.209460 0.578242 0.070903 0.267251
C31   C     C_R   0.635681 0.275694 0.985420 0.264188
C32   C     C_R   0.459161 0.939510 0.588273 -0.046434
C33   C     C_R   0.539321 0.060232 0.412151 -0.034569
C34   C     C_R   0.458824 0.069693 0.584648 -0.095050
H1    H     H_    0.496928 0.605471 0.200001 0.193186
H2    H     H_    0.576277 0.225430 0.316952 0.040356
H3    H     H_    0.536643 0.434124 0.791991 0.187880
H4    H     H_    0.831047 0.370619 0.210467 0.189326
H5    H     H_    0.140919 0.582496 0.787134 0.187657
H6    H     H_    0.428051 0.126426 0.648944 0.192454
H7    H     H_    0.571251 0.873398 0.351447 0.182794
H8    H     H_    0.921347 0.340886 0.409055 0.177766
H9    H     H_    0.077362 0.657163 0.592883 0.176977
H10   H     H_    0.415457 0.773788 0.683926 0.033801
N1    N     N_R   0.142780 0.500030 0.500020 -0.119976
N2    N     N_R   0.857220 0.499970 0.499980 -0.124000
O1    O     O_R   0.385370 0.683250 0.500010 -0.612384
O2    O     O_2   0.620376 0.062897 0.246107 -0.499416
O3    O     O_R   0.614630 0.316750 0.499990 -0.617301
O4    O     O_R   0.614700 0.683220 0.500000 -0.561859
O5    O     O_R   0.385300 0.316780 0.500000 -0.570034
O6    O     O_R   0.319830 0.500020 0.632250 -0.620189
O7    O     O_R   0.680170 0.499980 0.367750 -0.599519
O8    O     O_R   0.549160 0.499990 0.632240 -0.582468
O9    O     O_R   0.450840 0.500010 0.367760 -0.556637
O10   O     O_2   0.375265 0.936633 0.754396 -0.475397
Zn1   Zn    Zn3+2 0.346870 0.500020 0.500000 1.019730
Zn2   Zn    Zn3+2 0.653130 0.499980 0.500000 1.021669

loop_
_geom_bond_atom_site_label_1
_geom_bond_atom_site_label_2
_ccdc_geom_bond_type
C4    C32   A    
O9    Zn1   S    
C10   O7    A    
C27   O10   D    
C28   O2    D    
C6    C8    A    
C9    O8    A    
C19   C21   A    
C10   C13   S    
N1    Zn1   S    
C18   C20   A    
C6    H9    S    
C23   C30   A    
O3    Zn2   S    
C15   C24   A    
C20   C22   A    
C27   C32   S    
C13   C19   A    
C23   C26   A    
C29   C31   A    
C34   H6    S    
O5    Zn1   S    
C2    C33   A    
C2    H7    S    
C22   C30   A    
C28   C33   S    
C2    C4    A    
Br1   C30   S    
C1    O1    A    
C7    N1    A    
C32   C34   A    
O1    Zn1   S    
C25   C26   A    
O6    Zn1   S    
C3    C33   A    
C21   C24   A    
C14   C16   A    
C15   C17   A    
C5    C7    A    
C10   O9    A    
C1    C4    S    
C8    N2    A    
C3    C12   S    
Br6   C29   S    
C28   H2    S    
C20   C25   A    
O8    Zn2   S    
C9    O6    A    
C5    H8    S    
C19   H1    S    
C6    N1    A    
O7    Zn2   S    
C17   H4    S    
C3    C34   A    
Br8   C8    S    
C5    N2    A    
C24   C31   A    
C27   H10   S    
C11   C18   A    
Br4   C15   S    
C13   C17   A    
C1    O4    A    
Br3   C14   S    
Br5   C23   S    
Br7   C7    S    
C14   C22   A    
C18   H3    S    
C9    C11   S    
C12   O3    A    
N2    Zn2   S    
C16   H5    S    
C11   C16   A    
Br2   C31   S    
O4    Zn2   S    
C25   C29   A    
C12   O5    A    
C21   C26   A    
