data_mof_unit_19664.cif
_audit_creation_date              2012-12-11T14:49:24-0500
_audit_creation_method            fapswitch 2.2
_symmetry_space_group_name_H-M    P1
_symmetry_Int_Tables_number       1
_space_group_crystal_system       triclinic
_cell_length_a                    16.915431
_cell_length_b                    16.701623
_cell_length_c                    19.495751
_cell_angle_alpha                 117.95306
_cell_angle_beta                  63.68179
_cell_angle_gamma                 100.382451
_cell_volume                      4358.29883121

loop_
_atom_site_label
_atom_site_type_symbol
_atom_type_description
_atom_site_fract_x
_atom_site_fract_y
_atom_site_fract_z
_atom_type_partial_charge
C1    C     C_R   0.024083 0.761999 0.028355 -0.120030
C2    C     C_R   0.753451 0.486550 0.253732 0.033754
C3    C     C_R   0.748553 0.448687 0.924153 0.061445
C4    C     C_R   0.057421 0.737306 0.243412 0.074758
C5    C     C_R   0.260446 0.515254 0.962326 -0.142419
C6    C     C_R   0.979952 0.247029 0.828616 -0.127851
C7    C     C_R   0.151277 0.517730 0.764241 0.062849
C8    C     C_R   0.026180 0.313171 0.076078 -0.130116
C9    C     C_R   0.947371 0.244791 0.001186 -0.130756
C10   C     C_R   0.231975 0.584762 0.838506 0.282577
C11   C     C_R   0.193462 0.438930 0.040284 -0.124242
C12   C     C_R   0.753933 0.445253 0.173117 0.339852
C13   C     C_R   0.049862 0.325973 0.754157 -0.153726
C14   C     C_R   0.274398 0.451329 0.982617 0.056447
C15   C     C_R   0.042249 0.239859 0.749475 0.079383
C16   C     C_R   0.224857 0.567472 0.765320 -0.001082
C17   C     C_R   0.986833 0.231808 0.044401 0.065649
C18   C     C_R   0.068500 0.072248 0.674672 -0.232448
C19   C     C_R   0.088381 0.156925 0.673399 0.113503
C20   C     C_R   0.142719 0.160862 0.595819 -0.264062
C21   C     C_R   0.160106 0.083155 0.519167 0.158492
C22   C     C_R   0.127280 0.999921 0.520646 0.028250
C23   C     C_R   0.817126 0.507025 0.909744 -0.145506
C24   C     C_R   0.086737 0.993450 0.598349 0.083732
C25   C     C_R   0.200637 0.089524 0.441831 -0.211800
C26   C     C_R   0.199383 0.016635 0.367766 -0.204662
C27   C     C_R   0.158294 0.936816 0.370567 0.166420
C28   C     C_R   0.126619 0.926185 0.446077 -0.021649
C29   C     C_R   0.086498 0.845327 0.449138 0.079783
C30   C     C_R   0.056341 0.835313 0.525141 0.297277
C31   C     C_R   0.056539 0.910197 0.599316 -0.245749
C32   C     C_R   0.141151 0.871336 0.301724 -0.254544
C33   C     C_R   0.092159 0.795946 0.307691 0.107916
C34   C     C_R   0.009422 0.660542 0.241673 -0.130097
C35   C     C_R   0.071229 0.780079 0.378519 -0.246070
C36   C     C_R   0.332755 0.471449 0.628867 -0.276516
C37   C     C_R   0.299126 0.559083 0.689245 0.128521
C38   C     C_R   0.340375 0.635579 0.680257 -0.267633
C39   C     C_R   0.418104 0.624399 0.609011 0.142879
C40   C     C_R   0.453331 0.535655 0.548023 0.025145
C41   C     C_R   0.410162 0.458949 0.558184 0.143910
C42   C     C_R   0.461574 0.699924 0.598026 -0.204587
C43   C     C_R   0.539496 0.687691 0.526202 -0.203235
C44   C     C_R   0.574157 0.599938 0.465536 0.137545
C45   C     C_R   0.756973 0.421956 0.977664 -0.117215
C46   C     C_R   0.531498 0.523469 0.476807 0.027833
C47   C     C_R   0.566428 0.434622 0.416044 0.143175
C48   C     C_R   0.523772 0.359091 0.427382 -0.205675
C49   C     C_R   0.445425 0.371251 0.498412 -0.211220
C50   C     C_R   0.649569 0.586707 0.392309 -0.259858
C51   C     C_R   0.680818 0.498633 0.331518 0.128153
C52   C     C_R   0.642284 0.422966 0.343714 -0.282559
C53   C     C_R   0.679584 0.415770 0.890499 0.060307
C54   C     C_R   0.359896 0.410358 0.953533 0.130979
C55   C     C_R   0.451473 0.348494 0.984493 -0.214826
C56   C     C_R   0.077700 0.738996 0.166667 -0.138975
C57   C     C_R   0.368513 0.366698 0.996383 -0.172493
C58   C     C_R   0.435417 0.424127 0.889851 -0.266127
C59   C     C_R   0.519081 0.408730 0.879723 0.156482
C60   C     C_R   0.526197 0.374987 0.930655 0.190685
C61   C     C_R   0.605863 0.378082 0.935113 -0.304993
C62   C     C_R   0.677780 0.430829 0.825222 0.161614
C63   C     C_R   0.595294 0.432204 0.824166 -0.272518
C64   C     C_R   0.801838 0.187989 0.183431 0.049608
C65   C     C_R   0.928224 0.866185 0.028310 0.124759
C66   C     C_R   0.849262 0.955285 0.007620 -0.200504
C67   C     C_R   0.835221 0.518084 0.248467 -0.219791
C68   C     C_R   0.889178 0.873640 0.981155 -0.173067
C69   C     C_R   0.928238 0.943053 0.101949 -0.264970
C70   C     C_R   0.887688 0.026202 0.129980 0.125063
C71   C     C_R   0.847200 0.031334 0.082014 0.141374
C72   C     C_R   0.804465 0.112223 0.109398 -0.275929
C73   C     C_R   0.841977 0.184322 0.230776 -0.200539
C74   C     C_R   0.885217 0.104178 0.205129 0.275626
C75   C     C_R   0.944443 0.692065 0.951545 -0.145667
C76   C     C_R   0.965374 0.777378 0.002718 0.045177
H1    H     H_    0.055636 0.812322 0.067299 0.094558
H2    H     H_    0.957191 0.192868 0.847213 0.090916
H3    H     H_    0.053070 0.331315 0.122255 0.093700
H4    H     H_    0.901150 0.199569 0.977935 0.090729
H5    H     H_    0.180199 0.394812 0.070092 0.089410
H6    H     H_    0.094309 0.345860 0.705412 0.099789
H7    H     H_    0.031317 0.067686 0.734305 0.116558
H8    H     H_    0.163916 0.224956 0.593599 0.113796
H9    H     H_    0.227395 0.152813 0.439794 0.129424
H10   H     H_    0.225474 0.024750 0.309683 0.129175
H11   H     H_    0.160559 0.883114 0.246440 0.115947
H12   H     H_    0.037394 0.719911 0.381440 0.136914
H13   H     H_    0.028043 0.905166 0.659083 0.138332
H14   H     H_    0.299707 0.413157 0.638643 0.124088
H15   H     H_    0.312482 0.702770 0.728703 0.128893
H16   H     H_    0.435113 0.768070 0.644586 0.132593
H17   H     H_    0.572226 0.746521 0.517706 0.133493
H18   H     H_    0.682366 0.644203 0.380877 0.132781
H19   H     H_    0.836099 0.536746 0.866325 0.089813
H20   H     H_    0.669951 0.355491 0.295645 0.140333
H21   H     H_    0.550390 0.290942 0.380953 0.135619
H22   H     H_    0.412332 0.312363 0.506563 0.132145
H23   H     H_    0.605742 0.360467 0.981836 0.131150
H24   H     H_    0.456742 0.320633 0.022635 0.127824
H25   H     H_    0.589969 0.453670 0.781829 0.131562
H26   H     H_    0.311910 0.352534 0.043860 0.115971
H27   H     H_    0.429836 0.453276 0.852895 0.120205
H28   H     H_    0.772986 0.117052 0.073649 0.129153
H29   H     H_    0.993178 0.629789 0.283932 0.085852
H30   H     H_    0.838935 0.244571 0.287861 0.131606
H31   H     H_    0.819148 0.958703 0.970184 0.122805
H32   H     H_    0.889204 0.816227 0.923556 0.115796
H33   H     H_    0.957761 0.936888 0.138416 0.140492
H34   H     H_    0.729203 0.362202 0.985987 0.104723
H35   H     H_    0.124738 0.781515 0.140877 0.089637
H36   H     H_    0.858463 0.548312 0.298532 0.124967
H37   H     H_    0.901006 0.677466 0.920234 0.101744
H38   H     H_    0.308825 0.540894 0.919428 0.124244
N1    N     N_R   0.036080 0.671900 0.995420 -0.036835
N2    N     N_R   0.954660 0.334720 0.880230 -0.040107
N3    N     N_R   0.116260 0.502360 0.832930 -0.073808
N4    N     N_R   0.012950 0.371090 0.051890 -0.039734
N5    N     N_R   0.963920 0.328100 0.004580 -0.041430
N6    N     N_R   0.165290 0.545350 0.880240 -0.066539
N7    N     N_R   0.132570 0.490700 0.051900 -0.038886
N8    N     N_R   0.996640 0.382750 0.832930 -0.043048
N9    N     N_R   0.834710 0.454650 0.119760 -0.057893
N10   N     N_R   0.867430 0.509300 0.948100 -0.037449
N11   N     N_R   0.003360 0.617250 0.167070 -0.037316
N12   N     N_R   0.825450 0.461270 0.995400 -0.037040
N13   N     N_R   0.045340 0.665280 0.119770 -0.039049
N14   N     N_R   0.883740 0.497640 0.167070 -0.053108
N15   N     N_R   0.987050 0.628910 0.948110 -0.038348
N16   N     N_R   0.174550 0.538730 0.004600 -0.039037
Ni1   Ni    Ni4+2 0.104370 0.604370 0.000010 0.209019
Ni2   Ni    Ni4+2 0.895630 0.395630 0.999990 0.208541
Ni3   Ni    Ni4+2 0.991920 0.505780 0.891500 0.201453
Ni4   Ni    Ni4+2 0.008080 0.494220 0.108500 0.210254
C77   C     C_3   0.102782 0.507479 0.711754 -0.431245
C78   C     C_3   0.090362 0.598134 0.714909 -0.225893
C79   C     C_3   0.029344 0.589094 0.673032 -0.943736
H39   H     H_    0.056797 0.537276 0.605447 0.270812
H40   H     H_    0.962752 0.569253 0.707650 0.258214
H41   H     H_    0.022788 0.655148 0.674922 0.251454
H42   H     H_    0.061592 0.650550 0.782120 0.199070
H43   H     H_    0.155286 0.621279 0.681042 0.203195
H44   H     H_    0.140198 0.458224 0.644592 0.182585
H45   H     H_    0.036546 0.480602 0.736771 0.195739
C80   C     C_3   0.282454 0.661104 0.879206 -1.052179
H46   H     H_    0.353634 0.641207 0.846554 0.253689
H47   H     H_    0.273839 0.722223 0.874220 0.251120
H48   H     H_    0.257610 0.679316 0.947990 0.251127
C81   C     C_3   0.681449 0.393353 0.148293 -1.076916
H49   H     H_    0.627146 0.382391 0.201461 0.261509
H50   H     H_    0.652547 0.432644 0.131797 0.258977
H51   H     H_    0.707691 0.325891 0.094107 0.244215
C82   C     C_3   0.019205 0.748045 0.530169 -1.031137
H52   H     H_    0.068297 0.691323 0.480881 0.253970
H53   H     H_    0.003303 0.751552 0.593282 0.251049
H54   H     H_    0.957507 0.733606 0.520097 0.248767
C83   C     C_3   0.760923 0.443618 0.756602 -0.466259
C84   C     C_3   0.766064 0.382586 0.666193 -0.225768
C85   C     C_3   0.855299 0.389019 0.598729 -0.926472
H55   H     H_    0.866118 0.460048 0.607084 0.265554
H56   H     H_    0.909521 0.365946 0.603482 0.262821
H57   H     H_    0.856853 0.345162 0.534212 0.250866
H58   H     H_    0.756619 0.310884 0.656130 0.203840
H59   H     H_    0.713783 0.403116 0.657239 0.194403
H60   H     H_    0.764212 0.515909 0.768837 0.187401
H61   H     H_    0.819758 0.424247 0.757279 0.197409
C86   C     C_3   0.927461 0.103655 0.258693 -1.040912
H62   H     H_    0.919542 0.170638 0.314364 0.254572
H63   H     H_    0.896361 0.052522 0.283228 0.256070
H64   H     H_    0.999218 0.087171 0.219744 0.250497

loop_
_geom_bond_atom_site_label_1
_geom_bond_atom_site_label_2
_ccdc_geom_bond_type
N11   Ni4   S    
C66   C68   A    
C40   C41   A    
C83   C84   S    
N9    Ni2   S    
N6    Ni1   S    
C1    H1    S    
C73   C74   A    
C7    N3    A    
C3    C23   A    
C19   C20   A    
N7    N16   A    
C63   H25   S    
C2    C12   A    
C80   H46   S    
C73   H30   S    
C8    N4    A    
C77   C78   S    
C86   H63   S    
N1    Ni1   S    
C11   H5    S    
C40   C46   A    
C48   H21   S    
C79   H40   S    
C26   C27   A    
C29   C30   A    
C65   C76   S    
N2    N8    A    
N10   Ni3   S    
C18   C24   A    
C28   C29   A    
C37   C38   A    
C81   H50   S    
C54   C58   A    
C38   C39   A    
C5    H38   S    
C11   C14   A    
C6    H2    S    
C81   H49   S    
C36   H14   S    
C18   C19   A    
C35   H12   S    
C56   N13   A    
N4    N5    A    
C78   H43   S    
C43   H17   S    
C49   H22   S    
C46   C47   A    
C69   H33   S    
C30   C82   S    
C47   C48   A    
C31   H13   S    
C55   H24   S    
C70   C74   A    
C8    H3    S    
C64   C73   A    
C85   H56   S    
C70   C71   A    
C75   H37   S    
N7    Ni4   S    
C82   H53   S    
C66   H31   S    
C56   H35   S    
N4    Ni4   S    
C84   H59   S    
C16   C37   S    
C77   H44   S    
C6    C15   A    
N3    Ni3   S    
C59   C60   A    
C22   C28   A    
C21   C22   A    
C4    C56   A    
C1    C76   A    
C36   C41   A    
C61   H23   S    
C53   C61   A    
C41   C49   A    
C74   C86   S    
C80   H47   S    
C44   C46   A    
C50   C51   A    
C39   C42   A    
C79   H41   S    
C4    C34   A    
C85   H57   S    
C51   C52   A    
C2    C67   A    
C81   H51   S    
C83   H60   S    
C86   H62   S    
C45   H34   S    
C50   H18   S    
C72   H28   S    
C58   C59   A    
C32   H11   S    
C38   H15   S    
C3    C45   A    
C20   H8    S    
C60   C61   A    
C9    H4    S    
C15   C19   S    
C75   C76   A    
N8    Ni3   S    
C7    C77   S    
C78   H42   S    
C57   H26   S    
N14   Ni4   S    
C53   C62   A    
C85   H55   S    
N2    Ni2   S    
N12   Ni2   S    
C45   N12   A    
C26   H10   S    
C65   C68   A    
C62   C63   A    
C25   H9    S    
C18   H7    S    
C62   C83   S    
C9    C17   A    
C82   H54   S    
C6    N2    A    
C5    C14   A    
C47   C52   A    
C66   C71   A    
N15   Ni3   S    
C86   H64   S    
C84   H58   S    
C11   N7    A    
C48   C49   A    
C14   C54   S    
C55   C57   A    
C43   C44   A    
C84   C85   S    
C9    N5    A    
C22   C24   A    
N3    N6    A    
C42   C43   A    
C39   C40   A    
C80   H48   S    
N10   N12   A    
N1    N15   A    
C44   C50   A    
C21   C25   A    
C4    C33   S    
C36   C37   A    
C27   C32   A    
C34   H29   S    
C12   C81   S    
C7    C16   A    
C78   C79   S    
N5    Ni2   S    
C83   H61   S    
C23   N10   A    
C68   H32   S    
C79   H39   S    
C29   C35   A    
C59   C63   A    
C8    C17   A    
C32   C33   A    
C13   C15   A    
N16   Ni1   S    
C25   C26   A    
C24   C31   A    
C71   C72   A    
C10   C16   A    
C67   N14   A    
C13   N8    A    
C3    C53   S    
N9    N14   A    
C30   C31   A    
C12   N9    A    
C34   N11   A    
C65   C69   A    
C13   H6    S    
C33   C35   A    
C23   H19   S    
C52   H20   S    
C42   H16   S    
C64   C72   A    
C69   C70   A    
N13   Ni1   S    
C77   H45   S    
C10   N6    A    
C2    C51   S    
C10   C80   S    
C5    N16   A    
C67   H36   S    
C20   C21   A    
C27   C28   A    
N11   N13   A    
C58   H27   S    
C1    N1    A    
C82   H52   S    
C55   C60   A    
C75   N15   A    
C54   C57   A    
