data_mof_unit_44604.cif
_audit_creation_date              2013-03-05T16:19:11-0500
_audit_creation_method            fapswitch 2.2
_symmetry_space_group_name_H-M    P1
_symmetry_Int_Tables_number       1
_space_group_crystal_system       triclinic
_cell_length_a                    36.12152
_cell_length_b                    40.18058
_cell_length_c                    8.476812
_cell_angle_alpha                 90.077591
_cell_angle_beta                  92.931277
_cell_angle_gamma                 89.965211
_cell_volume                      12286.9955697

loop_
_atom_site_label
_atom_site_type_symbol
_atom_site_description
_atom_site_fract_x
_atom_site_fract_y
_atom_site_fract_z
_atom_type_partial_charge
P1    P     P_3+3 0.075650 0.535480 0.098240 0.527330
P2    P     P_3+3 0.075650 0.464520 0.598240 0.530294
P3    P     P_3+3 0.575650 0.035480 0.098240 0.535805
P4    P     P_3+3 0.575650 0.964520 0.598240 0.527213
O1    O     O_2   0.072110 0.546320 0.923350 -0.366138
O2    O     O_2   0.072110 0.453680 0.423350 -0.369662
O3    O     O_2   0.572110 0.046320 0.923350 -0.367497
O4    O     O_2   0.572110 0.953680 0.423350 -0.365068
O5    O     O_3   0.042000 0.516250 0.155330 -0.322950
O6    O     O_3   0.042000 0.483750 0.655330 -0.321865
O7    O     O_3   0.542000 0.016250 0.155330 -0.323290
O8    O     O_3   0.542000 0.983750 0.655330 -0.323335
O9    O     O_3   0.012540 0.574900 0.645500 -0.309775
O10   O     O_3   0.012540 0.425100 0.145500 -0.329556
O11   O     O_3   0.512540 0.074900 0.645500 -0.324994
O12   O     O_3   0.512540 0.925100 0.145500 -0.309215
O13   O     O_2   0.068767 0.604473 0.805773 -0.406247
O14   O     O_2   0.067074 0.393238 0.307667 -0.398239
O15   O     O_2   0.567065 0.106202 0.808730 -0.411839
O16   O     O_2   0.568814 0.895513 0.304955 -0.406693
O17   O     O_3   0.115823 0.511194 0.110306 -0.562434
O18   O     O_3   0.115426 0.489317 0.610089 -0.562558
O19   O     O_3   0.615594 0.010876 0.111007 -0.559660
O20   O     O_3   0.616337 0.988008 0.610565 -0.563191
O21   O     O_3   0.028624 0.643556 0.625545 -0.530621
O22   O     O_3   0.028695 0.356523 0.104209 -0.537898
O23   O     O_3   0.530064 0.142498 0.598980 -0.539294
O24   O     O_3   0.528702 0.856479 0.123958 -0.530368
H1    H     H_    0.982785 0.625412 0.493972 0.116314
H2    H     H_    0.989873 0.366125 0.269843 0.165656
H3    H     H_    0.501520 0.139908 0.805351 0.146443
H4    H     H_    0.482782 0.874722 0.993311 0.115967
C1    C     C_3   0.986554 0.678452 0.476926 -0.878077
C2    C     C_3   0.974826 0.322957 0.132479 -0.982115
C3    C     C_3   0.481715 0.180331 0.659404 -0.937478
C4    C     C_3   0.486527 0.821688 0.975076 -0.877515
H5    H     H_    0.969514 0.682672 0.580561 0.261902
H6    H     H_    0.945528 0.323754 0.166256 0.254676
H7    H     H_    0.455594 0.182590 0.722276 0.251482
H8    H     H_    0.469585 0.817435 0.078913 0.261711
H9    H     H_    0.007933 0.698246 0.472915 0.259810
H10   H     H_    0.990563 0.305523 0.212326 0.277802
H11   H     H_    0.502208 0.198460 0.710535 0.265087
H12   H     H_    0.507893 0.801875 0.970238 0.259968
P5    P     P_3+3 0.924520 0.535770 0.591580 0.530018
P6    P     P_3+3 0.924520 0.464230 0.091580 0.510354
P7    P     P_3+3 0.424520 0.035770 0.591580 0.523807
P8    P     P_3+3 0.424520 0.964230 0.091580 0.527769
P9    P     P_3+3 0.951739 0.604020 0.054915 0.501933
P10   P     P_3+3 0.953182 0.394749 0.553556 0.506578
P11   P     P_3+3 0.451473 0.103931 0.053772 0.489325
P12   P     P_3+3 0.451733 0.895994 0.554584 0.501360
O25   O     O_2   0.928110 0.546600 0.766510 -0.354954
O26   O     O_2   0.928110 0.453400 0.266510 -0.346990
O27   O     O_2   0.428110 0.046600 0.766510 -0.350726
O28   O     O_2   0.428110 0.953400 0.266510 -0.350206
O29   O     O_3   0.987780 0.574950 0.044470 -0.335693
O30   O     O_3   0.987780 0.425050 0.544470 -0.336536
O31   O     O_3   0.487780 0.074950 0.044470 -0.332795
O32   O     O_3   0.487780 0.925050 0.544470 -0.336090
O33   O     O_2   0.935061 0.608466 0.884244 -0.379598
O34   O     O_2   0.931747 0.395066 0.390743 -0.313979
O35   O     O_2   0.433127 0.105551 0.885208 -0.374944
O36   O     O_2   0.435043 0.891582 0.383858 -0.379474
O37   O     O_3   0.883022 0.513043 0.586688 -0.583547
O38   O     O_3   0.883000 0.486865 0.096933 -0.604524
O39   O     O_3   0.382595 0.013725 0.591319 -0.583902
O40   O     O_3   0.382719 0.986502 0.091857 -0.583507
O41   O     O_3   0.972305 0.642633 0.099104 -0.557793
O42   O     O_3   0.974825 0.355789 0.555565 -0.539105
O43   O     O_3   0.470948 0.143671 0.074951 -0.534532
O44   O     O_3   0.472326 0.857357 0.597924 -0.558436
C5    C     C_3   0.005778 0.644726 0.022184 0.474519
C6    C     C_3   0.002312 0.355517 0.678729 0.373484
C7    C     C_3   0.499219 0.142597 0.194629 0.409170
C8    C     C_3   0.505766 0.855257 0.520711 0.474441
H13   H     H_    0.001201 0.639590 0.893971 0.159377
H14   H     H_    0.025679 0.371913 0.648840 0.128822
H15   H     H_    0.521992 0.126038 0.159403 0.113232
H16   H     H_    0.501131 0.860386 0.392570 0.159108
H17   H     H_    0.026465 0.626995 0.075476 0.097719
H18   H     H_    0.990986 0.363526 0.792245 0.080697
H19   H     H_    0.488188 0.134142 0.308044 0.103032
H20   H     H_    0.526455 0.872986 0.574054 0.097232
C9    C     C_3   0.021527 0.679658 0.041170 -0.945180
C10   C     C_3   0.017119 0.320344 0.700166 -0.885616
C11   C     C_3   0.515378 0.177263 0.218488 -0.913622
C12   C     C_3   0.521558 0.820325 0.539214 -0.944593
H21   H     H_    0.047937 0.681419 0.980102 0.251934
H22   H     H_    0.031204 0.312359 0.592971 0.265715
H23   H     H_    0.527146 0.186048 0.107403 0.254321
H24   H     H_    0.547952 0.818559 0.477993 0.251810
H25   H     H_    0.001578 0.698096 0.988705 0.266400
H26   H     H_    0.994011 0.302946 0.721192 0.246670
H27   H     H_    0.493447 0.194849 0.252643 0.270785
H28   H     H_    0.501617 0.801886 0.486633 0.266306
C13   C     C_3   0.886387 0.521036 0.072212 0.137359
C14   C     C_3   0.887546 0.478481 0.584296 0.164195
C15   C     C_3   0.386248 0.020879 0.073999 0.137845
C16   C     C_3   0.385993 0.979354 0.572545 0.136600
H29   H     H_    0.883632 0.533303 0.187753 0.076356
H30   H     H_    0.886681 0.469348 0.707164 0.056907
H31   H     H_    0.384350 0.032273 0.192112 0.067856
H32   H     H_    0.383855 0.967921 0.690279 0.064875
H33   H     H_    0.912837 0.528493 0.022995 0.157055
H34   H     H_    0.913555 0.470281 0.532751 0.150917
H35   H     H_    0.412393 0.028572 0.022779 0.157636
H36   H     H_    0.412207 0.971588 0.522001 0.156824
C17   C     C_3   0.853402 0.531768 0.964121 0.038487
C18   C     C_3   0.854107 0.464389 0.488455 0.010505
C19   C     C_3   0.352819 0.032495 0.970638 0.046539
C20   C     C_3   0.352668 0.967908 0.468041 0.045302
H37   H     H_    0.827189 0.525311 0.019956 0.139560
H38   H     H_    0.828153 0.473673 0.538082 0.144825
H39   H     H_    0.326889 0.025701 0.027876 0.141599
H40   H     H_    0.326687 0.974022 0.526570 0.140545
H41   H     H_    0.853874 0.518342 0.850172 0.165921
H42   H     H_    0.854657 0.472912 0.364303 0.172643
H43   H     H_    0.352660 0.019869 0.854397 0.170448
H44   H     H_    0.352199 0.981209 0.353614 0.171581
Ba1   Ba    Ba6+2 0.000060 0.523150 0.844950 1.639181
Ba2   Ba    Ba6+2 0.000060 0.476850 0.344950 1.643828
Ba3   Ba    Ba6+2 0.500060 0.023150 0.844950 1.639659
Ba4   Ba    Ba6+2 0.500060 0.976850 0.344950 1.639563
C21   C     C_3   0.109703 0.481210 0.030864 0.405957
C22   C     C_3   0.108936 0.519061 0.529120 0.407554
C23   C     C_3   0.609243 0.980992 0.030547 0.409884
C24   C     C_3   0.610822 0.018230 0.533443 0.413668
H45   H     H_    0.095907 0.485250 0.912811 0.110094
H46   H     H_    0.095455 0.514560 0.410861 0.110119
H47   H     H_    0.595901 0.985313 0.911871 0.107412
H48   H     H_    0.594437 0.015311 0.420076 0.105644
H49   H     H_    0.092523 0.464971 0.103326 0.092734
H50   H     H_    0.091296 0.535320 0.599822 0.097647
H51   H     H_    0.591531 0.964827 0.101127 0.097493
H52   H     H_    0.596546 0.035102 0.613905 0.089196
C25   C     C_3   0.147217 0.464956 0.009180 -0.943172
C26   C     C_3   0.146224 0.535733 0.508081 -0.939826
C27   C     C_3   0.646554 0.964241 0.010594 -0.943405
C28   C     C_3   0.648656 0.032330 0.498366 -0.949547
H53   H     H_    0.165626 0.482528 0.949332 0.283172
H54   H     H_    0.165067 0.518252 0.449751 0.281872
H55   H     H_    0.665461 0.981600 0.952201 0.282133
H56   H     H_    0.664547 0.013703 0.432325 0.283137
H57   H     H_    0.144166 0.442319 0.935182 0.224400
H58   H     H_    0.142941 0.558156 0.432997 0.225482
H59   H     H_    0.643307 0.941700 0.935962 0.226580
H60   H     H_    0.645680 0.054997 0.424799 0.219275
H61   H     H_    0.160345 0.458084 0.125952 0.258161
H62   H     H_    0.158993 0.543046 0.624970 0.258325
H63   H     H_    0.659207 0.957096 0.127858 0.257617
H64   H     H_    0.664392 0.038587 0.610469 0.259815
O45   O     O_3   0.958050 0.483830 0.034350 -0.352737
O46   O     O_3   0.958050 0.516170 0.534350 -0.358504
O47   O     O_3   0.458050 0.983830 0.034350 -0.359606
O48   O     O_3   0.458050 0.016170 0.534350 -0.357494
P13   P     P_3+3 0.048708 0.395783 0.138974 0.505226
P14   P     P_3+3 0.048893 0.604061 0.639841 0.493577
P15   P     P_3+3 0.548913 0.895976 0.139099 0.493785
P16   P     P_3+3 0.549391 0.103237 0.639335 0.510986
C29   C     C_3   0.004989 0.644490 0.488874 0.408350
C30   C     C_3   0.991587 0.357585 0.146097 0.500669
C31   C     C_3   0.496801 0.145150 0.677213 0.481732
C32   C     C_3   0.504978 0.855626 0.987538 0.407944
H65   H     H_    0.021008 0.640644 0.381809 0.095666
H66   H     H_    0.975078 0.374345 0.065424 0.069329
H67   H     H_    0.475634 0.127819 0.624114 0.090842
H68   H     H_    0.520924 0.859503 0.880355 0.095522
H69   H     H_    0.027076 0.685495 0.168206 0.272385
H70   H     H_    0.037212 0.319556 0.803543 0.281734
H71   H     H_    0.537787 0.176720 0.313159 0.266654
H72   H     H_    0.527146 0.814495 0.666168 0.272633
C33   C     C_R   0.851913 0.339307 0.121530 0.533924
C34   C     C_R   0.824948 0.642670 0.517103 0.571359
C35   C     C_R   0.324860 0.857299 0.016735 0.571395
C36   C     C_R   0.326134 0.143752 0.519730 0.572747
O49   O     O_2   0.867844 0.354965 0.228137 -0.526844
O50   O     O_2   0.818105 0.613237 0.537242 -0.550472
O51   O     O_2   0.317992 0.886739 0.037060 -0.551282
O52   O     O_2   0.318683 0.114285 0.534517 -0.552813
N1    N     N_R   0.861577 0.343766 0.965788 -0.164171
N2    N     N_R   0.858163 0.651793 0.454310 -0.165519
N3    N     N_R   0.358067 0.848153 0.953663 -0.165377
N4    N     N_R   0.359855 0.152885 0.461747 -0.165583
C37   C     C_R   0.844503 0.323457 0.849456 0.538393
C38   C     C_R   0.865645 0.685201 0.430340 0.529704
C39   C     C_R   0.365546 0.814725 0.929441 0.529841
C40   C     C_R   0.368065 0.186326 0.443712 0.525963
C41   C     C_2   0.907609 0.368221 0.791434 -0.196139
C42   C     C_2   0.894155 0.623911 0.255180 -0.116954
C43   C     C_2   0.394154 0.875978 0.754862 -0.117545
C44   C     C_2   0.395931 0.125526 0.261666 -0.130580
C45   C     C_3   0.920647 0.400002 0.717412 0.279997
C46   C     C_3   0.915490 0.593932 0.198592 0.228565
C47   C     C_3   0.415418 0.905992 0.698473 0.234274
C48   C     C_3   0.416000 0.095077 0.202687 0.222153
C49   C     C_1   0.915803 0.426063 0.974618 0.250518
C50   C     C_1   0.917617 0.574113 0.473944 0.290382
C51   C     C_1   0.417470 0.925849 0.973958 0.287510
C52   C     C_1   0.417783 0.074334 0.475824 0.298636
C53   C     C_2   0.891803 0.402709 0.016170 -0.167305
C54   C     C_2   0.898174 0.599958 0.522392 -0.188270
C55   C     C_2   0.398017 0.900032 0.022187 -0.186846
C56   C     C_2   0.398456 0.100108 0.525781 -0.208761
C57   C     C_2   0.887568 0.370436 0.923032 0.091982
C58   C     C_2   0.884234 0.626124 0.407243 0.087081
C59   C     C_2   0.384147 0.873812 0.906849 0.086935
C60   C     C_2   0.385672 0.127178 0.413331 0.096902
C61   C     C_R   0.809527 0.294086 0.043751 -0.062767
C62   C     C_R   0.805493 0.701008 0.528860 -0.065032
C63   C     C_R   0.305449 0.798963 0.028457 -0.064894
C64   C     C_R   0.307480 0.202185 0.537863 -0.065007
C65   C     C_R   0.823804 0.316373 0.159431 -0.085256
C66   C     C_R   0.798402 0.667041 0.555207 -0.076417
C67   C     C_R   0.298345 0.832944 0.054963 -0.076258
C68   C     C_R   0.299790 0.168156 0.559037 -0.075939
C69   C     C_R   0.809711 0.315170 0.310676 -0.027207
C70   C     C_R   0.764717 0.658026 0.617867 -0.056740
C71   C     C_R   0.264679 0.841989 0.117952 -0.056548
C72   C     C_R   0.265661 0.159089 0.617224 -0.055650
C73   C     C_R   0.821392 0.296742 0.889380 -0.049940
C74   C     C_R   0.839500 0.710063 0.466741 -0.055536
C75   C     C_R   0.339428 0.789879 0.965964 -0.055632
C76   C     C_R   0.341990 0.211253 0.480404 -0.055299
C77   C     C_2   0.933189 0.424833 0.841030 -0.424655
C78   C     C_2   0.931542 0.572980 0.332678 -0.418710
C79   C     C_2   0.431359 0.927007 0.832634 -0.420895
C80   C     C_2   0.431735 0.073453 0.334634 -0.426768
H73   H     H_    0.872028 0.408959 0.103598 0.204530
H74   H     H_    0.890031 0.601217 0.643404 0.225471
H75   H     H_    0.389811 0.898850 0.143126 0.225254
H76   H     H_    0.389091 0.100465 0.645066 0.227183
H77   H     H_    0.819917 0.332064 0.402549 0.223188
H78   H     H_    0.758501 0.632158 0.640965 0.175134
H79   H     H_    0.258446 0.867868 0.141149 0.175109
H80   H     H_    0.258895 0.133144 0.635290 0.175051
C81   C     C_2   0.063207 0.578746 0.336516 0.084881
C82   C     C_2   0.063714 0.421803 0.839025 0.092995
C83   C     C_2   0.563097 0.077369 0.340448 0.101504
C84   C     C_2   0.562991 0.921304 0.835991 0.084346
C85   C     C_R   0.216856 0.759012 0.156012 0.041948
C86   C     C_R   0.219043 0.242297 0.666693 0.042475
C87   C     C_R   0.737760 0.247304 0.261846 0.043024
C88   C     C_R   0.716780 0.741013 0.655383 0.041952
C89   C     C_R   0.259620 0.715012 0.075069 0.041259
C90   C     C_R   0.261609 0.286201 0.583772 0.041226
C91   C     C_R   0.748281 0.218348 0.012043 0.038514
C92   C     C_R   0.759568 0.784972 0.575154 0.041385
C93   C     C_R   0.224895 0.724733 0.132693 0.085406
C94   C     C_R   0.226969 0.276541 0.642198 0.085515
C95   C     C_R   0.729687 0.220697 0.155026 0.088694
C96   C     C_R   0.724808 0.775278 0.632277 0.085333
C97   C     C_R   0.181468 0.767289 0.209523 -0.199462
C98   C     C_R   0.184149 0.234139 0.725341 -0.199307
C99   C     C_R   0.715774 0.250484 0.394356 -0.216811
C100  C     C_R   0.681352 0.732759 0.708300 -0.199420
C101  C     C_R   0.155396 0.742962 0.241633 -0.083254
C102  C     C_R   0.158188 0.258490 0.758402 -0.082458
C103  C     C_R   0.687186 0.228073 0.420837 -0.083222
C104  C     C_R   0.655236 0.757100 0.740174 -0.083190
C105  C     C_R   0.163164 0.709093 0.222387 -0.059577
C106  C     C_R   0.165566 0.292271 0.735033 -0.060331
C107  C     C_R   0.680556 0.200524 0.321146 -0.057316
C108  C     C_R   0.663001 0.790954 0.721212 -0.059707
C109  C     C_R   0.197905 0.699881 0.167551 -0.063797
C110  C     C_R   0.199931 0.301414 0.676646 -0.064019
C111  C     C_R   0.702652 0.196272 0.191047 -0.068875
C112  C     C_R   0.697774 0.800143 0.666855 -0.063949
C113  C     C_R   0.205660 0.665798 0.147768 -0.062982
C114  C     C_R   0.207248 0.335438 0.652961 -0.062873
C115  C     C_R   0.697637 0.167702 0.096440 -0.056267
C116  C     C_R   0.705518 0.834215 0.647286 -0.062866
C117  C     C_R   0.179041 0.641485 0.185344 0.529674
C118  C     C_R   0.180459 0.359760 0.689387 0.529709
C119  C     C_R   0.672579 0.142642 0.140048 0.535459
C120  C     C_R   0.678856 0.858541 0.684623 0.529596
N5    N     N_R   0.145005 0.650784 0.239951 -0.161072
N6    N     N_R   0.146787 0.350500 0.747522 -0.160627
N7    N     N_R   0.648779 0.147799 0.262049 -0.158402
N8    N     N_R   0.644809 0.849258 0.738860 -0.161097
C121  C     C_R   0.136817 0.684292 0.256828 0.526646
C122  C     C_R   0.139187 0.317040 0.769333 0.532872
C123  C     C_R   0.651847 0.177486 0.347462 0.523420
C124  C     C_R   0.636624 0.815769 0.755506 0.526893
C125  C     C_2   0.105529 0.624340 0.431486 -0.230487
C126  C     C_2   0.107144 0.377350 0.937623 -0.213913
C127  C     C_2   0.611104 0.117152 0.451054 -0.210844
C128  C     C_2   0.605503 0.875845 0.930738 -0.230601
C129  C     C_3   0.081885 0.595204 0.480055 0.044225
C130  C     C_3   0.082478 0.405999 0.984298 0.063934
C131  C     C_3   0.582939 0.090696 0.488693 0.059759
C132  C     C_3   0.581805 0.904969 0.979439 0.043695
C133  C     C_1   0.082006 0.575027 0.208278 0.200328
C134  C     C_1   0.082478 0.425316 0.710483 0.186617
C135  C     C_1   0.581251 0.074934 0.210462 0.183680
C136  C     C_1   0.581732 0.924942 0.707584 0.203468
C137  C     C_2   0.105628 0.598600 0.167037 -0.272303
C138  C     C_2   0.106376 0.401835 0.670612 -0.260102
C139  C     C_2   0.603138 0.100025 0.172834 -0.265046
C140  C     C_2   0.605267 0.901296 0.665975 -0.272169
C141  C     C_2   0.118399 0.625300 0.283312 0.144539
C142  C     C_2   0.119901 0.375937 0.789282 0.133156
C143  C     C_2   0.621074 0.122310 0.299685 0.111921
C144  C     C_2   0.618199 0.874746 0.782336 0.143776
O53   O     O_2   0.106472 0.692596 0.301008 -0.597133
O54   O     O_2   0.109305 0.308724 0.817900 -0.598159
O55   O     O_2   0.629229 0.184354 0.444741 -0.585638
O56   O     O_2   0.606259 0.807503 0.799410 -0.597019
C145  C     C_R   0.767066 0.269931 0.231235 0.038089
C146  C     C_R   0.744076 0.716255 0.624243 0.040080
C147  C     C_R   0.244102 0.783759 0.124518 0.040007
C148  C     C_R   0.245941 0.217462 0.631804 0.040291
C149  C     C_R   0.782962 0.269392 0.081649 0.091163
C150  C     C_R   0.778534 0.725895 0.564063 0.088112
C151  C     C_R   0.278530 0.774090 0.063904 0.088191
C152  C     C_R   0.280606 0.227109 0.573580 0.087806
C153  C     C_R   0.772224 0.244629 0.968727 0.045136
C154  C     C_R   0.786309 0.760120 0.538291 0.041602
C155  C     C_R   0.286317 0.739849 0.037958 0.041524
C156  C     C_R   0.288666 0.261366 0.550229 0.041198
C157  C     C_R   0.781194 0.293159 0.344524 -0.230521
C158  C     C_R   0.738266 0.681920 0.651745 -0.203349
C159  C     C_R   0.238271 0.818112 0.152066 -0.203350
C160  C     C_R   0.239443 0.183016 0.652884 -0.202522
H81   H     H_    0.115126 0.642346 0.519961 0.175082
H82   H     H_    0.117273 0.359903 0.027501 0.174175
H83   H     H_    0.625217 0.129730 0.550002 0.192202
H84   H     H_    0.615247 0.857933 0.019208 0.174799
H85   H     H_    0.128864 0.750940 0.282487 0.167355
H86   H     H_    0.132034 0.250592 0.803169 0.168265
H87   H     H_    0.670665 0.232089 0.522301 0.169161
H88   H     H_    0.628673 0.749145 0.780608 0.167411
H89   H     H_    0.172625 0.792545 0.226825 0.127955
H90   H     H_    0.175711 0.208994 0.747755 0.127996
H91   H     H_    0.719079 0.270945 0.476358 0.137152
H92   H     H_    0.672507 0.707510 0.725282 0.128015
H93   H     H_    0.771420 0.294165 0.462453 0.137575
H94   H     H_    0.713517 0.672423 0.700918 0.129156
H95   H     H_    0.213534 0.827638 0.201443 0.129119
H96   H     H_    0.214155 0.173369 0.696491 0.128907
O57   O     O_2   0.848285 0.329095 0.709743 -0.585953
O58   O     O_2   0.895153 0.693369 0.377669 -0.597444
O59   O     O_2   0.395032 0.806520 0.876497 -0.597478
O60   O     O_2   0.398129 0.194439 0.396110 -0.596497
C161  C     C_R   0.808906 0.273281 0.775956 -0.106400
C162  C     C_R   0.846633 0.743820 0.441056 -0.080685
C163  C     C_R   0.346568 0.756103 0.940099 -0.080515
C164  C     C_R   0.349702 0.245078 0.460073 -0.080152
H97   H     H_    0.910001 0.345220 0.725955 0.196163
H98   H     H_    0.883355 0.641700 0.168189 0.170399
H99   H     H_    0.383431 0.858152 0.667713 0.171040
H100  H     H_    0.385825 0.143946 0.176320 0.171646
H101  H     H_    0.817952 0.274450 0.656285 0.160320
H102  H     H_    0.872448 0.751652 0.392946 0.167610
H103  H     H_    0.372360 0.748242 0.891701 0.167651
H104  H     H_    0.376018 0.252941 0.416783 0.167454
C165  C     C_R   0.266369 0.680507 0.056907 -0.200942
C166  C     C_R   0.267821 0.320633 0.560489 -0.200349
C167  C     C_R   0.742425 0.189563 0.917972 -0.208553
C168  C     C_R   0.766305 0.819467 0.557218 -0.201013
C169  C     C_R   0.240093 0.656624 0.092484 -0.083060
C170  C     C_R   0.241352 0.344530 0.594395 -0.083136
C171  C     C_R   0.718295 0.164461 0.961421 -0.075035
C172  C     C_R   0.739981 0.843366 0.592507 -0.083370
O61   O     O_2   0.186480 0.611976 0.171629 -0.585927
O62   O     O_2   0.187435 0.389236 0.671555 -0.586342
O63   O     O_2   0.672589 0.116022 0.070389 -0.593573
O64   O     O_2   0.686259 0.888045 0.671060 -0.585815
C173  C     C_R   0.785428 0.247392 0.815255 -0.210436
C174  C     C_R   0.820803 0.768215 0.475679 -0.201338
C175  C     C_R   0.320781 0.731725 0.974937 -0.201210
C176  C     C_R   0.323812 0.269501 0.493891 -0.200236
H105  H     H_    0.291990 0.670811 0.016498 0.127508
H106  H     H_    0.292985 0.330241 0.515474 0.127525
H107  H     H_    0.757329 0.185191 0.812805 0.130297
H108  H     H_    0.791956 0.829144 0.517240 0.127375
H109  H     H_    0.247026 0.630637 0.076418 0.168547
H110  H     H_    0.247860 0.370456 0.574308 0.168348
H111  H     H_    0.715304 0.142676 0.886393 0.163940
H112  H     H_    0.746903 0.869346 0.576654 0.168366
H113  H     H_    0.116186 0.598543 0.049569 0.200123
H114  H     H_    0.116306 0.401207 0.552034 0.197642
H115  H     H_    0.606660 0.105445 0.049852 0.224540
H116  H     H_    0.615797 0.901282 0.548464 0.200470
H117  H     H_    0.776743 0.230627 0.720953 0.131081
H118  H     H_    0.828850 0.793326 0.450069 0.127094
H119  H     H_    0.328835 0.706598 0.949196 0.127180
H120  H     H_    0.332505 0.294696 0.474363 0.127364
H121  H     H_    0.945405 0.447345 0.796269 0.188762
H122  H     H_    0.945653 0.550689 0.295743 0.195331
H123  H     H_    0.445391 0.949308 0.795749 0.194453
H124  H     H_    0.445196 0.050989 0.295697 0.193920
Cl1   Cl    Cl    0.853212 0.575326 0.926985 -0.632540
Cl2   Cl    Cl    0.852660 0.420183 0.490204 -0.598608
Cl3   Cl    Cl    0.352577 0.076256 0.939814 -0.630320
Cl4   Cl    Cl    0.353176 0.924349 0.430833 -0.635068
H125  H     H_    0.968374 0.679754 0.367604 0.281042
H126  H     H_    0.975589 0.313860 0.008989 0.248762
H127  H     H_    0.475809 0.186123 0.532639 0.273457
H128  H     H_    0.468246 0.820458 0.866019 0.280878
Cl5   Cl    Cl    0.017218 0.565754 0.338434 -0.621241
Cl6   Cl    Cl    0.017644 0.434705 0.839766 -0.618742
Cl7   Cl    Cl    0.516959 0.064482 0.341131 -0.615913
Cl8   Cl    Cl    0.517084 0.934591 0.838827 -0.619466

loop_
_geom_bond_atom_site_label_1
_geom_bond_atom_site_label_2
_geom_bond_distance
_ccdc_geom_bond_type
C150  C154  1.423130 A    
C15   H31   1.105648 S    
C48   C80   1.505319 S    
C11   H23   1.110875 S    
C71   C159  1.394288 A    
C114  C118  1.419611 A    
C2    H10   1.110603 S    
C104  C108  1.400191 A    
C25   H61   1.110633 S    
C18   H42   1.108317 S    
C175  H119  1.075688 S    
C107  C111  1.404209 A    
N8    C124  1.386812 Am   
C173  H117  1.079044 S    
C101  C105  1.400324 A    
O38   C13   1.395557 S    
C17   Cl1   1.778638 S    
C134  C138  1.333273 D    
C103  C107  1.404951 A    
C2    C30   1.519600 S    
C16   H32   1.105534 S    
C87   C99   1.414029 A    
C138  C142  1.511748 S    
C61   C149  1.428979 A    
C2    H126  1.109981 S    
C25   H53   1.110882 S    
C42   C58   1.358221 D    
C56   C60   1.504028 S    
O42   C6    1.403543 S    
N7    C123  1.396074 Am   
P4    O8    1.538395 S    
C28   H64   1.110666 S    
C125  H81   1.085515 S    
C13   H33   1.103684 S    
C81   Cl5   1.742463 S    
C40   O60   1.222281 D    
P9    O41   1.752343 S    
P11   O43   1.750547 S    
C5    H17   1.111601 S    
P3    Ba3   3.421966 S    
C161  C173  1.393994 A    
Ba3   O48   2.983858 S    
C84   C132  1.512759 S    
O27   Ba3   2.811836 S    
O30   Ba2   2.734344 S    
Ba1   O46   2.983858 S    
P8    C51   1.845959 S    
C160  H96   1.075460 S    
C32   H68   1.111554 S    
C85   C93   1.423076 A    
C10   H22   1.110771 S    
C69   H77   1.082923 S    
C20   H44   1.107470 S    
C145  C149  1.418594 A    
C135  C139  1.330725 D    
P5    Ba1   3.423056 S    
C14   H30   1.106703 S    
C9    H69   1.110006 S    
C3    H127  1.109743 S    
C56   H76   1.082588 S    
C1    C29   1.519314 S    
P12   O44   1.752308 S    
C137  H113  1.084352 S    
P7    Ba3   3.423056 S    
C63   C75   1.409179 A    
C169  H109  1.083664 S    
O39   C16   1.396003 S    
P8    O47   1.544268 S    
C92   C96   1.423341 A    
C4    H12   1.110634 S    
H2    C30   1.107955 S    
C44   C48   1.518769 S    
C35   N3    1.387159 Am   
C146  C150  1.423218 A    
C36   N4    1.386403 Am   
P6    O45   1.544268 S    
N1    C37   1.398177 Am   
C118  O62   1.222211 D    
O3    Ba3   2.811768 S    
O29   Ba1   2.730443 S    
C88   C146  1.433928 A    
C147  C159  1.417049 A    
C91   C167  1.413822 A    
C14   H34   1.106007 S    
C47   C79   1.506296 S    
C165  H105  1.075763 S    
C122  O54   1.221653 D    
P10   O42   1.749067 S    
C45   C77   1.499312 S    
O11   P16   1.755020 S    
O14   P13   1.548776 D    
C81   C129  1.512418 S    
C82   C134  1.320111 D    
C90   C166  1.417384 A    
O12   Ba4   2.729951 S    
C121  O53   1.222355 D    
C104  H88   1.083793 S    
P3    O7    1.539791 S    
C21   H45   1.107002 S    
C22   H50   1.108810 S    
C147  C151  1.423281 A    
P9    C46   1.878073 S    
C5    H13   1.110042 S    
P6    Ba2   3.422686 S    
P5    O46   1.542845 S    
C7    H15   1.110157 S    
C162  H102  1.083721 S    
C29   H65   1.111570 S    
C50   C78   1.323045 D    
N5    C121  1.387102 Am   
C62   C74   1.409162 A    
C92   C154  1.434098 A    
N3    C59   1.465749 S    
C31   H67   1.112070 S    
O7    Ba4   2.764741 S    
C63   C151  1.437490 A    
C34   N2    1.386915 Am   
Ba3   Ba4   4.626411 S    
O15   P16   1.545805 D    
C37   O57   1.220620 D    
C154  C174  1.417241 A    
N2    C38   1.386740 Am   
P10   C45   1.876370 S    
C39   O59   1.221714 D    
C125  C129  1.519169 S    
P9    O29   1.754052 S    
P4    Ba4   3.422327 S    
C19   H43   1.107423 S    
C93   C109  1.437489 A    
P15   C132  1.881557 S    
P12   O32   1.754813 S    
O23   C31   1.405688 S    
C27   H55   1.110866 S    
C112  C116  1.409177 A    
O21   C29   1.404051 S    
C11   H27   1.110348 S    
C50   C54   1.329607 D    
C8    H16   1.110111 S    
C3    H11   1.110573 S    
C18   H38   1.111092 S    
C102  H86   1.083800 S    
C155  C175  1.417303 A    
C53   H73   1.084446 S    
P5    O25   1.543912 D    
C174  H118  1.075688 S    
C102  C106  1.399718 A    
C172  H112  1.083711 S    
C145  C157  1.414843 A    
C23   H47   1.106897 S    
C156  C176  1.417578 A    
C165  C169  1.394214 A    
C41   H97   1.083088 S    
C16   H36   1.103785 S    
C87   C95   1.420802 A    
C71   H79   1.083665 S    
C66   C70   1.400345 A    
C125  C141  1.362038 D    
N2    C58   1.464891 S    
P2    O18   1.747529 S    
C76   C164  1.400182 A    
C158  H94   1.075871 S    
O9    Ba1   2.733852 S    
C23   C27   1.523148 S    
C52   C56   1.329443 D    
C15   C19   1.528355 S    
C19   Cl3   1.777962 S    
C43   C59   1.358711 D    
C5    C9    1.520072 S    
C62   C150  1.437030 A    
C105  C121  1.419289 A    
C38   O58   1.221748 D    
C7    C11   1.519821 S    
C83   Cl7   1.745772 S    
C153  C173  1.412860 A    
Ba2   O45   2.984354 S    
C43   H99   1.085577 S    
C85   C97   1.417267 A    
C128  C132  1.518608 S    
C74   C162  1.400194 A    
C164  H104  1.083717 S    
C64   C76   1.409600 A    
C89   C93   1.423392 A    
C140  H116  1.084284 S    
C10   H70   1.109371 S    
C88   C100  1.417219 A    
P13   C130  1.881827 S    
C167  H107  1.078869 S    
C68   C72   1.399665 A    
C72   C160  1.392819 A    
C149  C153  1.420107 A    
C91   C95   1.418410 A    
P1    C133  1.849941 S    
C1    H125  1.109328 S    
C13   C17   1.527711 S    
C24   C28   1.523164 S    
P3    C135  1.853525 S    
C120  N8    1.386282 Am   
P5    O37   1.754340 S    
C124  O56   1.222423 D    
C85   C147  1.434363 A    
O8    Ba3   2.761189 S    
C51   C79   1.323122 D    
C26   H58   1.106614 S    
C86   C148  1.433380 A    
H4    C32   1.112246 S    
C27   H63   1.110647 S    
C166  C170  1.394603 A    
C162  C174  1.394101 A    
C38   C74   1.418754 A    
P1    Ba1   3.421966 S    
C116  C172  1.400234 A    
C41   C45   1.509736 S    
C18   Cl2   1.777123 S    
C83   C131  1.512001 S    
Ba4   O47   2.984354 S    
O21   P14   1.749033 S    
O20   C24   1.389323 S    
C137  C141  1.512111 S    
C37   C73   1.412324 A    
C12   H28   1.110570 S    
C14   C18   1.529334 S    
C61   C73   1.401874 A    
C70   C158  1.394028 A    
C20   H40   1.110961 S    
C8    H20   1.111577 S    
C82   C130  1.515051 S    
C17   H41   1.106618 S    
Ba3   O47   2.763223 S    
P1    O17   1.746955 S    
C44   H100  1.085607 S    
Ba1   O45   2.763223 S    
P1    O1    1.544728 D    
C11   H71   1.110565 S    
O28   Ba4   2.812287 S    
C25   H57   1.106538 S    
C23   H51   1.108981 S    
O37   C14   1.398454 S    
P6    O38   1.756070 S    
P3    O3    1.544728 D    
C24   H52   1.106798 S    
H3    C31   1.111249 S    
P4    O20   1.745664 S    
P7    O48   1.542845 S    
C22   H46   1.106544 S    
C73   C161  1.403628 A    
C52   C80   1.322564 D    
C109  C113  1.409141 A    
C30   H66   1.111681 S    
C111  C115  1.405944 A    
C96   C112  1.437018 A    
C91   C153  1.425668 A    
C41   C57   1.363331 D    
O2    Ba2   2.811321 S    
O41   C5    1.405376 S    
C34   O50   1.222296 D    
P4    O4    1.543639 D    
C127  H83   1.083615 S    
C4    H128  1.109323 S    
C33   N1    1.394531 Am   
C82   Cl6   1.742989 S    
C51   C55   1.329806 D    
P12   C47   1.879228 S    
C6    H18   1.111821 S    
N5    C141  1.464771 S    
P2    Ba2   3.422327 S    
O31   Ba3   2.730443 S    
N7    C143  1.478852 S    
C126  C130  1.519533 S    
O10   P13   1.761481 S    
P10   O30   1.749883 S    
C80   H124  1.084034 S    
P11   O35   1.545465 D    
C94   C110  1.437086 A    
P12   O36   1.549020 D    
C139  H115  1.079175 S    
C9    H21   1.110720 S    
O4    Ba4   2.811321 S    
P6    C49   1.843506 S    
C21   C25   1.523337 S    
P3    O19   1.747393 S    
C148  C160  1.417054 A    
O22   C30   1.404694 S    
C117  N5    1.386577 Am   
C34   C66   1.418599 A    
C86   C94   1.423257 A    
C119  N7    1.393422 Am   
C105  C109  1.409412 A    
C67   C71   1.400473 A    
C78   H122  1.083997 S    
C176  H120  1.075656 S    
C116  C120  1.418548 A    
P6    O26   1.545001 D    
O5    Ba2   2.764741 S    
P1    O5    1.539791 S    
P8    O40   1.754829 S    
C164  C176  1.394735 A    
Ba1   Ba2   4.626411 S    
O11   Ba3   2.733852 S    
O10   Ba2   2.729951 S    
C84   Cl8   1.743037 S    
C16   C20   1.528329 S    
C26   H54   1.110864 S    
C108  C124  1.418754 A    
O17   C21   1.391674 S    
P5    C50   1.846163 S    
O19   C23   1.393454 S    
C99   H91   1.078610 S    
C126  C142  1.362273 D    
C28   H56   1.110979 S    
C117  O61   1.222266 D    
C75   C163  1.400327 A    
C146  C158  1.417007 A    
C119  O63   1.221073 D    
C15   H35   1.103890 S    
C151  C155  1.423167 A    
N4    C60   1.463520 S    
C113  C117  1.419043 A    
C152  C156  1.423246 A    
C1    H9    1.110656 S    
C46   C78   1.507134 S    
O25   Ba1   2.811836 S    
C55   H75   1.082751 S    
P9    O33   1.548977 D    
C7    H19   1.112964 S    
C106  C122  1.417496 A    
C89   C165  1.417121 A    
C101  H85   1.083720 S    
C87   C145  1.429810 A    
C133  C137  1.334076 D    
C61   C65   1.405654 A    
C138  H114  1.084639 S    
C136  C140  1.333659 D    
P8    Ba4   3.422686 S    
C6    H14   1.110684 S    
C161  H101  1.082632 S    
C4    C32   1.519358 S    
C167  C171  1.395563 A    
P14   C129  1.882744 S    
C163  H103  1.083692 S    
C139  C143  1.518104 S    
C140  C144  1.511380 S    
C35   C67   1.419056 A    
C49   C77   1.323539 D    
C63   C67   1.408999 A    
C159  H95   1.075853 S    
C12   H72   1.110027 S    
P2    C134  1.851220 S    
C3    H7    1.110745 S    
C171  H111  1.083511 S    
O44   C8    1.405398 S    
O6    Ba1   2.761189 S    
C28   H60   1.106582 S    
C128  H84   1.085546 S    
C26   H62   1.110627 S    
C115  C119  1.416404 A    
C27   H59   1.106908 S    
C39   C75   1.419291 A    
N3    C39   1.386970 Am   
P11   C48   1.878593 S    
O18   C22   1.392790 S    
C83   C135  1.314239 D    
C98   C102  1.392931 A    
C115  C171  1.403760 A    
C77   H121  1.084183 S    
C84   C136  1.319215 D    
O1    Ba1   2.811768 S    
C107  C123  1.416828 A    
O22   P13   1.753934 S    
C97   H89   1.075834 S    
O32   Ba4   2.734344 S    
C33   C65   1.420784 A    
C10   H26   1.110608 S    
C120  O64   1.222320 D    
C90   C156  1.434695 A    
C64   C68   1.408929 A    
O16   P15   1.546112 D    
C36   C68   1.417209 A    
C49   C53   1.337631 D    
C89   C155  1.434528 A    
C8    C12   1.520047 S    
C17   H37   1.110992 S    
C54   H74   1.082605 S    
C42   H98   1.085599 S    
O26   Ba2   2.812287 S    
C69   C157  1.399151 A    
C127  C143  1.366428 D    
O12   P15   1.761768 S    
C128  C144  1.361466 D    
C170  H110  1.083664 S    
P2    O2    1.543639 D    
C9    H25   1.110566 S    
C24   H48   1.108670 S    
P7    O39   1.754789 S    
C126  H82   1.085547 S    
C123  O55   1.221319 D    
C43   C47   1.520873 S    
C99   C103  1.397508 A    
N8    C144  1.463764 S    
C12   H24   1.110721 S    
C4    H8    1.110894 S    
C70   H78   1.083682 S    
C113  C169  1.400374 A    
C110  C114  1.409178 A    
C65   C69   1.404330 A    
C2    H6    1.110817 S    
C35   O51   1.222270 D    
C100  H92   1.075867 S    
O23   P16   1.751780 S    
C62   C66   1.409021 A    
C55   C59   1.504863 S    
O24   P15   1.749059 S    
N4    C40   1.386539 Am   
C95   C111  1.429148 A    
N1    C57   1.482644 S    
C97   C101  1.394471 A    
C20   Cl4   1.778260 S    
C36   O52   1.222411 D    
C157  H93   1.077757 S    
C33   O49   1.220398 D    
C108  C112  1.409436 A    
C92   C168  1.417085 A    
C6    C10   1.518610 S    
O13   P14   1.546206 D    
Ba2   O46   2.759683 S    
C81   C133  1.319116 D    
C40   C76   1.419500 A    
C3    C31   1.519598 S    
N6    C142  1.464952 S    
C44   C60   1.357600 D    
Ba4   O48   2.759683 S    
C54   C58   1.504494 S    
P10   O34   1.547632 D    
C127  C131  1.517310 S    
P7    C52   1.844535 S    
C64   C152  1.437003 A    
P11   O31   1.758018 S    
C100  C104  1.394168 A    
P2    O6    1.538395 S    
P16   C131  1.873190 S    
O9    P14   1.762953 S    
C168  C172  1.393914 A    
C103  H87   1.083476 S    
O24   C32   1.404073 S    
P7    O27   1.543912 D    
C90   C94   1.423384 A    
C21   H49   1.108463 S    
C148  C152  1.423419 A    
P8    O28   1.545001 D    
C22   C26   1.523375 S    
C53   C57   1.520966 S    
C88   C96   1.423034 A    
C118  N6    1.386723 Am   
C72   H80   1.083730 S    
P4    C136  1.849070 S    
C166  H106  1.075734 S    
C106  C110  1.408778 A    
O40   C15   1.396405 S    
O43   C7    1.402869 S    
C98   H90   1.075433 S    
C163  C175  1.394402 A    
C1    H5    1.110903 S    
C86   C98   1.417136 A    
C42   C46   1.519908 S    
C79   H123  1.084030 S    
C114  C170  1.400390 A    
N6    C122  1.386857 Am   
C19   H39   1.111011 S    
H1    C29   1.112274 S    
C13   H29   1.104859 S    
C168  H108  1.075824 S    
