data_mof_unit_7040.cif
_audit_creation_date              2012-12-11T15:18:06-0500
_audit_creation_method            fapswitch 2.2
_symmetry_space_group_name_H-M    P1
_symmetry_Int_Tables_number       1
_space_group_crystal_system       triclinic
_cell_length_a                    15.694401
_cell_length_b                    15.694464
_cell_length_c                    34.56978
_cell_angle_alpha                 90.001715
_cell_angle_beta                  89.999081
_cell_angle_gamma                 120.000827
_cell_volume                      7374.19913209

loop_
_atom_site_label
_atom_site_type_symbol
_atom_type_description
_atom_site_fract_x
_atom_site_fract_y
_atom_site_fract_z
_atom_type_partial_charge
C1    C     C_R   0.578062 0.442507 0.554787 0.581058
C2    C     C_R   0.489794 0.964059 0.215189 0.337259
C3    C     C_3   0.314008 0.007756 0.086862 -0.058306
C4    C     C_3   0.694029 0.686422 0.087142 -0.058523
C5    C     C_3   0.992370 0.306022 0.087108 -0.058513
C6    C     C_3   0.128416 0.724047 0.653373 -0.081106
C7    C     C_3   0.275948 0.404400 0.653364 -0.081042
C8    C     C_3   0.595416 0.871444 0.653343 -0.080975
C9    C     C_3   0.626228 0.872244 0.179565 -0.072269
C10   C     C_3   0.245982 0.373692 0.179559 -0.072255
C11   C     C_3   0.127829 0.754057 0.179564 -0.072195
C12   C     C_3   0.007275 0.302261 0.826500 -0.051399
C13   C     C_R   0.474207 0.510213 0.215201 0.337272
C14   C     C_3   0.697761 0.705036 0.826511 -0.051375
C15   C     C_3   0.295062 0.992784 0.826497 -0.051440
C16   C     C_3   0.338230 0.052309 0.323789 -0.060068
C17   C     C_3   0.714039 0.661781 0.323788 -0.060073
C18   C     C_3   0.947764 0.285979 0.323784 -0.060086
C19   C     C_3   0.228281 0.738649 0.819993 -0.096107
C20   C     C_3   0.261374 0.489687 0.819988 -0.096133
C21   C     C_3   0.510380 0.771753 0.819993 -0.096109
C22   C     C_3   0.635193 0.902946 0.339330 -0.042965
C23   C     C_3   0.267721 0.364788 0.339346 -0.042954
C24   C     C_R   0.036057 0.525826 0.215206 0.337274
C25   C     C_3   0.097117 0.732299 0.339364 -0.042947
C26   C     C_R   0.006428 0.434945 0.852868 0.228352
C27   C     C_R   0.565057 0.571497 0.852864 0.228347
C28   C     C_R   0.428569 0.993620 0.852881 0.228367
C29   C     C_R   0.426592 0.996227 0.355877 0.228857
C30   C     C_R   0.569605 0.573406 0.355884 0.228919
C31   C     C_R   0.003824 0.430407 0.355886 0.228895
C32   C     C_R   0.025821 0.445986 0.892891 0.087408
C33   C     C_R   0.557503 0.135582 0.554795 0.581410
C34   C     C_R   0.554013 0.579839 0.892888 0.087394
C35   C     C_R   0.420195 0.974206 0.892902 0.087416
C36   C     C_R   0.438531 0.024181 0.394939 0.076776
C37   C     C_R   0.585635 0.561467 0.394945 0.076787
C38   C     C_R   0.975842 0.414368 0.394945 0.076776
C39   C     C_R   0.096854 0.622644 0.886399 0.065764
C40   C     C_R   0.377355 0.474220 0.886391 0.065759
C41   C     C_R   0.525816 0.903168 0.886406 0.065756
C42   C     C_R   0.605772 0.052577 0.393759 0.070012
C43   C     C_R   0.446793 0.394221 0.393765 0.070006
C44   C     C_R   0.864428 0.421930 0.554792 0.581204
C45   C     C_R   0.947448 0.553214 0.393770 0.070025
C46   C     C_R   0.089656 0.613553 0.846218 0.243190
C47   C     C_R   0.386449 0.476123 0.846210 0.243199
C48   C     C_R   0.523936 0.910381 0.846226 0.243199
C49   C     C_R   0.590099 0.014745 0.356011 0.224950
C50   C     C_R   0.424622 0.409893 0.356020 0.224945
C51   C     C_R   0.985307 0.575395 0.356027 0.224948
C52   C     C_R   0.042899 0.519439 0.828977 -0.014073
C53   C     C_R   0.480564 0.523482 0.828970 -0.014073
C54   C     C_R   0.476597 0.957155 0.828989 -0.014061
C55   C     C_R   0.441741 0.578098 0.055114 0.576229
C56   C     C_R   0.504459 0.995752 0.335672 -0.009813
C57   C     C_R   0.491260 0.495537 0.335681 -0.009812
C58   C     C_R   0.004314 0.508760 0.335686 -0.009814
C59   C     C_R   0.079453 0.540863 0.909156 -0.063726
C60   C     C_R   0.459135 0.538593 0.909152 -0.063715
C61   C     C_R   0.461430 0.920564 0.909163 -0.063722
C62   C     C_R   0.532733 0.066376 0.412224 -0.067276
C63   C     C_R   0.533635 0.467263 0.412228 -0.067277
C64   C     C_R   0.933637 0.466367 0.412229 -0.067281
C65   C     C_R   0.576183 0.443434 0.446224 0.569988
C66   C     C_R   0.136358 0.558261 0.055114 0.576189
C67   C     C_R   0.556565 0.132749 0.446223 0.570069
C68   C     C_R   0.867251 0.423816 0.446224 0.570036
C69   C     C_R   0.442622 0.576445 0.945917 0.568302
C70   C     C_R   0.133822 0.557377 0.945919 0.568302
C71   C     C_R   0.423558 0.866180 0.945921 0.568268
C72   C     C_R   0.925123 0.455752 0.590480 -0.024643
C73   C     C_R   0.544225 0.469401 0.590466 -0.024823
C74   C     C_R   0.530641 0.074933 0.590495 -0.024381
C75   C     C_R   0.453489 0.915237 0.092922 -0.023265
C76   C     C_R   0.461728 0.546542 0.092932 -0.023036
C77   C     C_R   0.421909 0.863654 0.055111 0.576007
C78   C     C_R   0.084823 0.538282 0.092935 -0.023075
C79   C     C_R   0.942691 0.387491 0.610996 0.235056
C80   C     C_R   0.612471 0.555251 0.610976 0.235040
C81   C     C_R   0.444880 0.057485 0.611035 0.235087
C82   C     C_R   0.385343 0.929055 0.115060 0.216070
C83   C     C_R   0.543657 0.614714 0.115079 0.216096
C84   C     C_R   0.071059 0.456351 0.115080 0.216103
C85   C     C_R   0.973177 0.405735 0.649239 -0.157066
C86   C     C_R   0.594244 0.567509 0.649218 -0.156822
C87   C     C_R   0.432685 0.027029 0.649283 -0.157323
C88   C     C_R   0.009132 0.501351 0.708592 0.362939
C89   C     C_R   0.399970 0.946706 0.154624 -0.162704
C90   C     C_R   0.546667 0.600078 0.154644 -0.162909
C91   C     C_R   0.053429 0.453350 0.154646 -0.162870
C92   C     C_R   0.996194 0.494397 0.666647 -0.032196
C93   C     C_R   0.505598 0.501844 0.666633 -0.032275
C94   C     C_R   0.498277 0.003908 0.666667 -0.032114
C95   C     C_R   0.483281 0.955221 0.172795 -0.024649
C96   C     C_R   0.471894 0.516737 0.172807 -0.024579
C97   C     C_R   0.044888 0.528136 0.172813 -0.024593
C98   C     C_R   0.998368 0.570778 0.644482 0.278425
C99   C     C_R   0.498655 0.507839 0.708580 0.362884
C100  C     C_R   0.429215 0.427621 0.644471 0.278438
C101  C     C_R   0.572389 0.001616 0.644477 0.278414
C102  C     C_R   0.557020 0.952450 0.150434 0.271653
C103  C     C_R   0.395416 0.442981 0.150438 0.271655
C104  C     C_R   0.047624 0.604621 0.150447 0.271636
C105  C     C_R   0.958712 0.550463 0.606739 0.058028
C106  C     C_R   0.449520 0.408276 0.606727 0.058136
C107  C     C_R   0.591708 0.041254 0.606732 0.057982
C108  C     C_R   0.544054 0.936638 0.110219 0.062515
C109  C     C_R   0.392585 0.455958 0.110224 0.062452
C110  C     C_R   0.492334 0.990979 0.708611 0.362971
C111  C     C_R   0.063411 0.607441 0.110231 0.062436
C112  C     C_R   0.031131 0.511289 0.786426 0.366667
C113  C     C_R   0.488716 0.519876 0.786416 0.366640
C114  C     C_R   0.480238 0.968945 0.786441 0.366690
C115  C     C_R   0.499185 0.980380 0.293340 0.352086
C116  C     C_R   0.481149 0.500812 0.293351 0.352079
C117  C     C_R   0.019709 0.518879 0.293357 0.352087
C118  C     C_3   0.004749 0.301444 0.581581 -0.061266
C119  C     C_3   0.698092 0.702986 0.581277 -0.061143
C120  C     C_3   0.296329 0.995541 0.581974 -0.061379
Cr1   Cr    Cr6+3 0.522350 0.263930 0.500020 1.128667
Cr2   Cr    Cr6+3 0.736070 0.258420 0.500020 1.128535
Cr3   Cr    Cr6+3 0.741580 0.477650 0.500020 1.128385
Cr4   Cr    Cr6+3 0.263930 0.522350 0.000020 1.120403
Cr5   Cr    Cr6+3 0.258420 0.736070 0.000020 1.120289
Cr6   Cr    Cr6+3 0.477650 0.741580 0.000020 1.120414
H1    H     H_    0.976059 0.348531 0.665799 0.161486
H2    H     H_    0.684064 0.742718 0.604861 0.095989
H3    H     H_    0.640915 0.680166 0.558341 0.121839
H4    H     H_    0.769968 0.755223 0.567998 0.185236
H5    H     H_    0.256613 0.943115 0.605939 0.096507
H6    H     H_    0.317940 0.959492 0.559309 0.121082
H7    H     H_    0.244482 0.015469 0.568528 0.185357
H8    H     H_    0.372613 0.040494 0.064398 0.138944
H9    H     H_    0.332190 0.059353 0.111638 0.128094
H10   H     H_    0.244954 0.997128 0.073640 0.179797
H11   H     H_    0.668586 0.627564 0.064797 0.138920
H12   H     H_    0.651434 0.627635 0.665767 0.161666
H13   H     H_    0.727456 0.668786 0.112068 0.128009
H14   H     H_    0.752328 0.755452 0.073857 0.179839
H15   H     H_    0.959049 0.331525 0.064749 0.138923
H16   H     H_    0.941235 0.272603 0.112015 0.128017
H17   H     H_    0.003078 0.247700 0.073831 0.179827
H18   H     H_    0.153091 0.795350 0.668174 0.158306
H19   H     H_    0.141948 0.739287 0.621889 0.113581
H20   H     H_    0.174195 0.693446 0.664441 0.116031
H21   H     H_    0.204631 0.357749 0.668152 0.158445
H22   H     H_    0.260739 0.402730 0.621879 0.113553
H23   H     H_    0.372687 0.024267 0.665867 0.161347
H24   H     H_    0.306535 0.480767 0.664447 0.116021
H25   H     H_    0.597017 0.857889 0.621855 0.113568
H26   H     H_    0.519055 0.825744 0.664442 0.115998
H27   H     H_    0.642018 0.846693 0.668112 0.158532
H28   H     H_    0.606481 0.820778 0.154712 0.165836
H29   H     H_    0.568347 0.839261 0.202243 0.127080
H30   H     H_    0.695436 0.881830 0.192210 0.162608
H31   H     H_    0.214246 0.393410 0.154705 0.165848
H32   H     H_    0.270845 0.431569 0.202239 0.127071
H33   H     H_    0.186382 0.304467 0.192203 0.162622
H34   H     H_    0.344224 0.951677 0.171374 0.147772
H35   H     H_    0.179273 0.785776 0.154705 0.165825
H36   H     H_    0.160840 0.729182 0.202239 0.127065
H37   H     H_    0.118236 0.813674 0.192212 0.162673
H38   H     H_    0.959192 0.222330 0.821200 0.185492
H39   H     H_    0.061206 0.310565 0.849204 0.155352
H40   H     H_    0.045727 0.335873 0.798968 0.117557
H41   H     H_    0.777690 0.736874 0.821210 0.185502
H42   H     H_    0.689470 0.750656 0.849223 0.155339
H43   H     H_    0.664153 0.709903 0.798983 0.117580
H44   H     H_    0.263218 0.040867 0.821193 0.185493
H45   H     H_    0.607349 0.655846 0.171402 0.147560
H46   H     H_    0.249409 0.938838 0.849193 0.155339
H47   H     H_    0.290258 0.954352 0.798964 0.117474
H48   H     H_    0.345298 0.102837 0.347728 0.174012
H49   H     H_    0.267224 0.029196 0.309009 0.160291
H50   H     H_    0.397977 0.092200 0.302243 0.132770
H51   H     H_    0.757517 0.654729 0.347723 0.174037
H52   H     H_    0.761918 0.732783 0.309004 0.160267
H53   H     H_    0.694179 0.602029 0.302244 0.132736
H54   H     H_    0.897234 0.242491 0.347718 0.174036
H55   H     H_    0.970889 0.238108 0.308993 0.160255
H56   H     H_    0.048504 0.392663 0.171402 0.147581
H57   H     H_    0.907871 0.305846 0.302244 0.132744
H58   H     H_    0.249521 0.682628 0.812689 0.090522
H59   H     H_    0.266907 0.778150 0.846773 0.107133
H60   H     H_    0.254327 0.792089 0.795825 0.149521
H61   H     H_    0.317409 0.566945 0.812686 0.090515
H62   H     H_    0.221881 0.488820 0.846770 0.107116
H63   H     H_    0.207933 0.462307 0.795820 0.149520
H64   H     H_    0.433116 0.750524 0.812699 0.090512
H65   H     H_    0.511263 0.733117 0.846768 0.107118
H66   H     H_    0.537751 0.745706 0.795816 0.149531
H67   H     H_    0.057887 0.314831 0.605343 0.096218
H68   H     H_    0.567674 0.857157 0.321984 0.132487
H69   H     H_    0.624387 0.875168 0.369605 0.160971
H70   H     H_    0.695335 0.894460 0.326516 0.179833
H71   H     H_    0.289432 0.432285 0.321990 0.132524
H72   H     H_    0.250778 0.375631 0.369621 0.160943
H73   H     H_    0.199081 0.304628 0.326547 0.179845
H74   H     H_    0.105610 0.800934 0.326556 0.179879
H75   H     H_    0.142916 0.710580 0.322020 0.132499
H76   H     H_    0.124877 0.749255 0.369642 0.160945
H77   H     H_    0.039900 0.358880 0.558782 0.121458
H78   H     H_    0.984982 0.229634 0.568207 0.185283
I1    I     I_    0.950250 0.665530 0.576932 -0.231939
I2    I     I_    0.308761 0.990560 0.426986 -0.250333
I3    I     I_    0.681791 0.691235 0.426993 -0.250966
I4    I     I_    0.009440 0.318203 0.426989 -0.250692
I5    I     I_    0.121716 0.759312 0.910052 -0.208357
I6    I     I_    0.240684 0.362416 0.910040 -0.208408
I7    I     I_    0.637610 0.878292 0.910058 -0.208407
I8    I     I_    0.739615 0.079969 0.420988 -0.212571
I9    I     I_    0.340346 0.260377 0.420996 -0.212599
I10   I     I_    0.920036 0.659653 0.421001 -0.212574
I11   I     I_    0.334443 0.284771 0.576912 -0.232434
I12   I     I_    0.715112 0.049543 0.576884 -0.232135
I13   I     I_    0.665850 0.949875 0.077547 -0.224553
I14   I     I_    0.284073 0.334148 0.077542 -0.224525
I15   I     I_    0.050133 0.715970 0.077555 -0.224437
I16   I     I_    0.962797 0.317948 0.928678 -0.188225
I17   I     I_    0.682047 0.644836 0.928680 -0.188206
I18   I     I_    0.355158 0.037207 0.928691 -0.188466
N1    N     N_R   0.954112 0.432088 0.769723 -0.141405
N2    N     N_R   0.407032 0.916704 0.236994 -0.259740
N3    N     N_R   0.509591 0.592967 0.237010 -0.259726
N4    N     N_R   0.083415 0.490428 0.237013 -0.259723
N5    N     N_R   0.086152 0.580232 0.725109 -0.208718
N6    N     N_R   0.419748 0.505912 0.725101 -0.208678
N7    N     N_R   0.494088 0.913898 0.725118 -0.208736
N8    N     N_R   0.577507 0.019109 0.233139 -0.157440
N9    N     N_R   0.441569 0.422501 0.233146 -0.157443
N10   N     N_R   0.980993 0.558475 0.233154 -0.157443
N11   N     N_R   0.096940 0.584666 0.763267 -0.200077
N12   N     N_R   0.567945 0.522127 0.769709 -0.141435
N13   N     N_R   0.415313 0.512255 0.763260 -0.200000
N14   N     N_R   0.487720 0.903094 0.763276 -0.200159
N15   N     N_R   0.581982 0.027373 0.271477 -0.175889
N16   N     N_R   0.445363 0.418021 0.271484 -0.175900
N17   N     N_R   0.972717 0.554679 0.271492 -0.175886
N18   N     N_R   0.478164 0.046025 0.769747 -0.141372
N19   N     N_R   0.411644 0.924609 0.275325 -0.183548
N20   N     N_R   0.512891 0.588351 0.275340 -0.183559
N21   N     N_R   0.075497 0.487126 0.275344 -0.183556
N22   N     N_R   0.943686 0.426981 0.731473 -0.194940
N23   N     N_R   0.573052 0.516819 0.731458 -0.194946
N24   N     N_R   0.483500 0.056470 0.731498 -0.194952
O1    O     O_R   0.498680 0.159540 0.541860 -0.446691
O2    O     O_R   0.358060 0.532760 0.040030 -0.482549
O3    O     O_R   0.174700 0.641940 0.040030 -0.482544
O4    O     O_R   0.467240 0.825300 0.040030 -0.482472
O5    O     O_R   0.498590 0.161190 0.456930 -0.474315
O6    O     O_R   0.838810 0.337400 0.456930 -0.474348
O7    O     O_R   0.662600 0.501410 0.456930 -0.474386
O8    O     O_R   0.161190 0.498590 0.956930 -0.479502
O9    O     O_R   0.337400 0.838810 0.956930 -0.479526
O10   O     O_R   0.501410 0.662600 0.956930 -0.479502
O11   O     O_R   0.532680 0.359580 0.461300 -0.477669
O12   O     O_R   0.840460 0.339140 0.541860 -0.446955
O13   O     O_R   0.640420 0.173100 0.461300 -0.477660
O14   O     O_R   0.826900 0.467320 0.461300 -0.477650
O15   O     O_R   0.359580 0.532680 0.961300 -0.477878
O16   O     O_R   0.173100 0.640420 0.961300 -0.477873
O17   O     O_R   0.467320 0.826900 0.961300 -0.477886
O18   O     O_3   0.666667 0.333333 0.499990 -0.292803
O19   O     O_3   0.333333 0.666667 0.999990 -0.294975
O20   O     O_3   0.918221 0.296616 0.595779 -0.502035
O21   O     O_3   0.703304 0.621727 0.595753 -0.502080
O22   O     O_3   0.378571 0.082114 0.595838 -0.501953
O23   O     O_R   0.660860 0.501320 0.541860 -0.447206
O24   O     O_3   0.298604 0.915555 0.099246 -0.540640
O25   O     O_3   0.616838 0.701493 0.099266 -0.540624
O26   O     O_3   0.084631 0.383156 0.099265 -0.540644
O27   O     O_3   0.027458 0.661210 0.661273 -0.499595
O28   O     O_3   0.338784 0.366280 0.661263 -0.499625
O29   O     O_3   0.633670 0.972421 0.661245 -0.499632
O30   O     O_3   0.642107 0.965166 0.167717 -0.520626
O31   O     O_3   0.323065 0.357870 0.167714 -0.520599
O32   O     O_3   0.034904 0.676993 0.167727 -0.520630
O33   O     O_3   0.947613 0.341635 0.837812 -0.501486
O34   O     O_R   0.159540 0.498680 0.041860 -0.447271
O35   O     O_3   0.658368 0.605990 0.837811 -0.501480
O36   O     O_3   0.394085 0.052443 0.837828 -0.501475
O37   O     O_3   0.337653 0.967496 0.337774 -0.549287
O38   O     O_3   0.629803 0.662347 0.337783 -0.549243
O39   O     O_3   0.032568 0.370210 0.337782 -0.549269
O40   O     O_3   0.125282 0.697456 0.823749 -0.505840
O41   O     O_3   0.302543 0.427862 0.823741 -0.505860
O42   O     O_3   0.572203 0.874748 0.823753 -0.505857
O43   O     O_3   0.662758 0.003411 0.338139 -0.539375
O44   O     O_3   0.340626 0.337230 0.338151 -0.539391
O45   O     O_R   0.339140 0.840460 0.041860 -0.447497
O46   O     O_3   0.996651 0.659396 0.338161 -0.539369
O47   O     O_R   0.501320 0.660860 0.041860 -0.447233
O48   O     O_R   0.532760 0.358060 0.540030 -0.476672
O49   O     O_R   0.641940 0.174700 0.540030 -0.476834
O50   O     O_R   0.825300 0.467240 0.540030 -0.476772

loop_
_geom_bond_atom_site_label_1
_geom_bond_atom_site_label_2
_ccdc_geom_bond_type
C17   H52   S    
C101  C107  A    
C40   C47   A    
N18   N24   A    
C63   C65   S    
C89   C95   A    
C40   C60   A    
C9    H29   S    
C46   C52   A    
C118  H67   S    
C80   O21   S    
C48   O42   S    
C9    O30   S    
C49   O43   S    
C118  H77   S    
C75   C82   A    
C41   C61   A    
C23   O44   S    
Cr2   O18   S    
C70   O8    A    
C73   C106  A    
C43   C63   A    
C18   O39   S    
Cr2   O6    S    
C48   C54   A    
C106  I11   S    
C29   C36   A    
C98   C105  A    
C38   I4    S    
C62   C67   S    
N9    N16   A    
C120  O22   S    
C64   C68   S    
C31   C58   A    
C114  N18   A    
C2    C95   S    
C86   C93   A    
C98   O27   S    
C3    H10   S    
C72   C79   A    
C25   H75   S    
N12   N23   A    
C12   H40   S    
C6    H20   S    
N5    N11   A    
N2    N19   A    
C21   H65   S    
C88   N5    A    
C1    O23   A    
C45   C51   A    
C17   H51   S    
C112  N11   A    
C120  H5    S    
C87   C94   A    
C23   H73   S    
Cr4   O19   S    
C11   H35   S    
C119  H4    S    
C39   I5    S    
C70   O16   A    
C120  H7    S    
C73   C80   A    
C10   H31   S    
Cr5   O9    S    
C6    O27   S    
N6    N13   A    
C80   C86   A    
C109  I14   S    
C74   C107  A    
C118  O20   S    
C17   O38   S    
N8    N15   A    
Cr2   O12   S    
C107  I12   S    
C88   C92   S    
C9    H30   S    
C76   C109  A    
C5    O26   S    
C65   O7    A    
Cr5   O16   S    
C15   H46   S    
C81   O22   S    
Cr6   O19   S    
C102  C108  A    
C78   C111  A    
C84   C91   A    
C50   O44   S    
C55   C76   S    
C68   O6    A    
C93   C99   S    
C11   O32   S    
C7    H21   S    
C99   N6    A    
C13   N3    A    
C95   C102  A    
C18   H57   S    
C47   C53   A    
Cr6   O47   S    
C119  H2    S    
C110  N24   A    
C4    O25   S    
C4    H13   S    
C4    H11   S    
C66   O3    A    
C18   H54   S    
C75   C108  A    
C14   O35   S    
C118  H78   S    
C115  N19   A    
C34   C60   A    
Cr1   O48   S    
C37   I3    S    
C22   H70   S    
C61   C71   S    
C31   O39   S    
C111  I15   S    
C14   H43   S    
C36   C62   A    
Cr3   O50   S    
C76   C83   A    
C30   O38   S    
C26   O33   S    
C37   C63   A    
C85   C92   A    
C53   C113  S    
C57   C116  S    
C38   C64   A    
C27   C34   A    
C71   O17   A    
C113  N12   A    
C66   C78   S    
C116  N20   A    
C10   H33   S    
Cr1   O5    S    
C84   O26   S    
C13   C96   S    
C92   C98   A    
C24   C97   S    
C46   O40   S    
C8    H25   S    
C94   C101  A    
Cr4   O8    S    
C25   H76   S    
C35   I18   S    
C104  O32   S    
C20   H63   S    
C68   O14   A    
N10   N17   A    
C15   H47   S    
C26   C32   A    
C21   H66   S    
C114  N14   A    
C25   O46   S    
C18   H55   S    
N3    N20   A    
C19   O40   S    
C44   O12   A    
C90   C96   A    
C94   C110  S    
C11   H36   S    
C30   C37   A    
C100  O28   S    
C30   C57   A    
C20   O41   S    
C17   H53   S    
Cr4   O2    S    
C86   H12   S    
C28   O36   S    
C88   N22   A    
C110  N7    A    
C26   C52   A    
C16   O37   S    
C4    H14   S    
C7    H24   S    
C75   C77   S    
C33   C74   S    
C5    H15   S    
C23   H72   S    
Cr3   O18   S    
C29   O37   S    
C90   H45   S    
C39   C59   A    
C11   H37   S    
C45   I10   S    
C87   H23   S    
C35   C61   A    
C51   C58   A    
C36   I2    S    
C119  O21   S    
C91   C97   A    
C66   O34   A    
C8    H27   S    
C3    O24   S    
C93   C100  A    
C71   O9    A    
C32   I16   S    
C39   C46   A    
C108  I13   S    
C117  N21   A    
C16   H49   S    
C2    N8    A    
C34   I17   S    
C9    H28   S    
C19   H60   S    
C55   O2    A    
C44   O50   A    
C44   C72   S    
C112  N1    A    
C12   O33   S    
C22   H69   S    
C85   H1    S    
C99   N23   A    
C103  O31   S    
C74   C81   A    
C6    H18   S    
C43   I9    S    
N1    N22   A    
C79   C85   A    
C42   I8    S    
Cr5   O45   S    
C89   H34   S    
C115  N15   A    
C7    H22   S    
C8    H26   S    
C16   H48   S    
C20   H62   S    
C113  N13   A    
C83   C90   A    
C42   C62   A    
C65   O11   A    
C116  N16   A    
C28   C54   A    
C59   C70   S    
Cr5   O19   S    
C120  H6    S    
C50   C57   A    
C56   C115  S    
C83   O25   S    
C24   N10   A    
C12   H39   S    
C2    N2    A    
C77   O45   A    
C104  C111  A    
C69   O15   A    
C13   N9    A    
C27   C53   A    
C43   C50   A    
C105  I1    S    
Cr2   O49   S    
C29   C56   A    
Cr3   O14   S    
C33   O49   A    
C49   C56   A    
C23   H71   S    
C45   C64   A    
C100  C106  A    
C31   C38   A    
C82   O24   S    
C97   C104  A    
C103  C109  A    
C3    H8    S    
C1    C73   S    
C22   O43   S    
C40   I6    S    
C1    O48   A    
C27   O35   S    
C51   O46   S    
Cr1   O18   S    
C25   H74   S    
C47   O41   S    
C19   H59   S    
C20   H61   S    
C24   N4    A    
C81   C87   A    
Cr3   O23   S    
C5    H16   S    
C96   C103  A    
C82   C89   A    
C60   C69   S    
N7    N14   A    
C19   H58   S    
C54   C114  S    
Cr5   O3    S    
C101  O29   S    
C119  H3    S    
C41   C48   A    
Cr6   O17   S    
C33   O1    A    
C3    H9    S    
Cr4   O15   S    
C58   C117  S    
C10   O31   S    
C21   O42   S    
C21   H64   S    
C12   H38   S    
Cr3   O7    S    
C8    O29   S    
C5    H17   S    
C16   H50   S    
C55   O47   A    
C42   C49   A    
N4    N21   A    
C41   I7    S    
C78   C84   A    
Cr2   O13   S    
Cr1   O1    S    
C72   C105  A    
C15   H44   S    
Cr6   O4    S    
C6    H19   S    
C91   H56   S    
C52   C112  S    
C22   H68   S    
C15   O36   S    
Cr6   O10   S    
C77   O4    A    
C32   C59   A    
C102  O30   S    
C14   H41   S    
C7    O28   S    
C28   C35   A    
C14   H42   S    
C79   O20   S    
Cr4   O34   S    
C67   O13   A    
C10   H32   S    
C69   O10   A    
Cr1   O11   S    
C117  N17   A    
C67   O5    A    
