data_mof_unit_6442.cif
_audit_creation_date              2012-12-10T18:44:27-0500
_audit_creation_method            fapswitch 2.2
_symmetry_space_group_name_H-M    P1
_symmetry_Int_Tables_number       1
_space_group_crystal_system       triclinic
_cell_length_a                    12.760676
_cell_length_b                    10.738267
_cell_length_c                    9.848502
_cell_angle_alpha                 89.610887
_cell_angle_beta                  97.349535
_cell_angle_gamma                 91.203886
_cell_volume                      1338.12182854

loop_
_atom_site_label
_atom_site_type_symbol
_atom_type_description
_atom_site_fract_x
_atom_site_fract_y
_atom_site_fract_z
_atom_type_partial_charge
C1    C     C_R   0.511500 0.260480 0.502462 0.899183
C2    C     C_R   0.702920 0.491038 0.527340 0.886277
C3    C     C_R   0.818714 0.489278 0.545594 -0.147762
C4    C     C_R   0.190605 0.565162 0.458729 -0.151498
C5    C     C_R   0.021894 0.569313 0.318014 -0.004008
C6    C     C_R   0.975302 0.569117 0.683090 -0.015420
C7    C     C_R   0.132108 0.583151 0.328756 0.111188
C8    C     C_R   0.875768 0.511822 0.675361 0.122876
C9    C     C_R   0.140680 0.586341 0.576665 -0.089381
C10   C     C_R   0.871245 0.490507 0.428783 -0.079558
C11   C     C_R   0.030006 0.570709 0.566666 0.009384
C12   C     C_R   0.489234 0.739768 0.497489 0.879606
C13   C     C_R   0.974084 0.541188 0.436663 0.006947
C14   C     C_R   0.528434 0.062853 0.382149 0.124020
C15   C     C_R   0.472788 0.937867 0.616709 0.125955
C16   C     C_R   0.494179 0.939533 0.372801 -0.028999
C17   C     C_R   0.507851 0.060685 0.626495 -0.033087
C18   C     C_1   0.826027 0.421127 0.308090 0.207149
C19   C     C_1   0.203617 0.612725 0.707535 0.205623
C20   C     C_3   0.838005 0.462643 0.805443 -0.787525
C21   C     C_3   0.184263 0.623831 0.205363 -0.794642
C22   C     C_1   0.956826 0.598227 0.190684 0.202308
C23   C     C_R   0.478262 0.873899 0.493420 -0.162240
C24   C     C_1   0.011351 0.641830 0.803922 0.205381
C25   C     C_3   0.577193 0.121060 0.263206 -0.779685
C26   C     C_3   0.420059 0.881686 0.733107 -0.780249
C27   C     C_1   0.466712 0.885992 0.237419 0.226432
C28   C     C_1   0.534582 0.114026 0.762093 0.234633
C29   C     C_1   0.639075 0.659322 0.167172 0.268175
C30   C     C_1   0.360606 0.340911 0.833040 0.257174
C31   C     C_1   0.631363 0.667783 0.875004 0.217875
C32   C     C_1   0.359173 0.343622 0.124176 0.225024
C33   C     C_R   0.523347 0.126541 0.505943 -0.168315
C34   C     C_R   0.567129 0.577777 0.082654 0.008799
C35   C     C_R   0.432704 0.422376 0.917428 0.015550
C36   C     C_R   0.565706 0.579336 0.938023 -0.008913
C37   C     C_R   0.432148 0.423232 0.061776 -0.015454
C38   C     C_R   0.300279 0.522014 0.473620 0.895752
H1    H     H_    0.905634 0.426071 0.875641 0.232271
H2    H     H_    0.364738 0.804793 0.696487 0.241927
H3    H     H_    0.480151 0.849118 0.816238 0.251540
H4    H     H_    0.370712 0.951978 0.775770 0.231879
H5    H     H_    0.801978 0.537714 0.858195 0.258001
H6    H     H_    0.781323 0.383118 0.784934 0.241610
H7    H     H_    0.140237 0.701640 0.151938 0.244450
H8    H     H_    0.265113 0.662795 0.234060 0.246508
H9    H     H_    0.185787 0.544771 0.133634 0.247573
H10   H     H_    0.634242 0.197220 0.297986 0.244870
H11   H     H_    0.623928 0.051405 0.215178 0.232876
H12   H     H_    0.514494 0.155757 0.184478 0.248989
N1    N     N_R   0.499970 0.499970 0.857200 -0.122589
N2    N     N_1   0.302457 0.275311 0.766157 -0.199229
N3    N     N_1   0.683976 0.739552 0.825375 -0.187699
N4    N     N_1   0.300398 0.279472 0.173488 -0.188279
N5    N     N_R   0.500030 0.500030 0.142800 -0.125849
N6    N     N_1   0.790140 0.365758 0.212206 -0.206478
N7    N     N_1   0.253819 0.633205 0.811770 -0.204186
N8    N     N_1   0.903044 0.622150 0.090804 -0.202509
N9    N     N_1   0.040152 0.702270 0.898650 -0.189531
N10   N     N_1   0.443950 0.844506 0.129226 -0.217424
N11   N     N_1   0.556683 0.155375 0.870464 -0.216548
N12   N     N_1   0.696986 0.725083 0.234198 -0.196316
O1    O     O_R   0.499990 0.316750 0.614620 -0.617532
O2    O     O_R   0.500010 0.683250 0.385380 -0.625641
O3    O     O_R   0.499990 0.316780 0.385290 -0.605228
O4    O     O_R   0.500010 0.683220 0.614710 -0.606708
O5    O     O_R   0.346360 0.499970 0.595710 -0.613633
O6    O     O_R   0.653640 0.500030 0.404290 -0.614782
O7    O     O_R   0.346360 0.499990 0.366380 -0.607173
O8    O     O_R   0.653640 0.500010 0.633620 -0.609189
Zn1   Zn    Zn3+2 0.500000 0.499980 0.653120 0.974727
Zn2   Zn    Zn3+2 0.500000 0.500020 0.346880 0.970720

loop_
_geom_bond_atom_site_label_1
_geom_bond_atom_site_label_2
_ccdc_geom_bond_type
C22   N8    T    
O7    Zn2   S    
C1    O3    A    
C10   C13   A    
O8    Zn1   S    
O3    Zn2   S    
C11   C13   A    
C21   H9    S    
C5    C13   A    
O4    Zn1   S    
C25   H10   S    
C18   N6    T    
O1    Zn1   S    
O6    Zn2   S    
C6    C24   S    
C28   N11   T    
C17   C28   S    
C14   C33   A    
C15   C23   A    
C2    C3    S    
C38   O7    A    
C1    C33   S    
C34   N5    A    
C17   C33   A    
C3    C10   A    
C2    O8    A    
C32   C37   S    
C19   N7    T    
C7    C21   S    
C29   N12   T    
C9    C11   A    
C12   C23   S    
C26   H2    S    
C8    C20   S    
C36   N1    A    
N1    Zn1   S    
C30   C35   S    
C16   C27   S    
C4    C7    A    
C1    O1    A    
C32   N4    T    
C20   H6    S    
C10   C18   S    
C21   H8    S    
C16   C23   A    
C34   C36   A    
C27   N10   T    
O2    Zn2   S    
C14   C25   S    
C35   N1    A    
C12   O2    A    
C14   C16   A    
C31   N3    T    
O5    Zn1   S    
C37   N5    A    
C20   H5    S    
C38   O5    A    
C26   H4    S    
C5    C7    A    
C3    C8    A    
C6    C11   A    
C15   C17   A    
C20   H1    S    
C30   N2    T    
C31   C36   S    
C15   C26   S    
C6    C8    A    
C35   C37   A    
C4    C9    A    
C25   H12   S    
C2    O6    A    
C12   O4    A    
C29   C34   S    
C9    C19   S    
C24   N9    T    
C5    C22   S    
N5    Zn2   S    
C26   H3    S    
C4    C38   S    
C21   H7    S    
C25   H11   S    
