data_mof_unit_5730.cif
_audit_creation_date              2012-12-10T17:55:03-0500
_audit_creation_method            fapswitch 2.2
_symmetry_space_group_name_H-M    P1
_symmetry_Int_Tables_number       1
_space_group_crystal_system       triclinic
_cell_length_a                    8.78468
_cell_length_b                    10.801879
_cell_length_c                    9.555336
_cell_angle_alpha                 88.921012
_cell_angle_beta                  97.300802
_cell_angle_gamma                 91.149673
_cell_volume                      899.062583843

loop_
_atom_site_label
_atom_site_type_symbol
_atom_type_description
_atom_site_fract_x
_atom_site_fract_y
_atom_site_fract_z
_atom_type_partial_charge
C1    C     C_R   0.499015 0.262433 0.501169 0.913582
C2    C     C_R   0.501555 0.737576 0.498789 0.854719
C3    C     C_R   0.204417 0.496525 0.464663 0.805904
C4    C     C_R   0.795582 0.503537 0.535334 0.788092
C5    C     C_2   0.039136 0.481774 0.447728 0.195835
C6    C     C_2   0.960864 0.518335 0.552257 0.190798
C7    C     C_R   0.395750 0.065639 0.401960 0.314052
C8    C     C_R   0.608635 0.936123 0.596061 0.312530
C9    C     C_R   0.401513 0.935545 0.396656 0.113453
C10   C     C_R   0.600022 0.064431 0.602739 0.149745
C11   C     C_R   0.505906 0.871769 0.495702 -0.231041
C12   C     C_R   0.497044 0.128335 0.503518 -0.204784
C13   C     C_R   0.393378 0.433050 0.064958 -0.084607
C14   C     C_R   0.605580 0.569007 0.935884 -0.182978
C15   C     C_R   0.392364 0.431892 0.917470 0.497558
C16   C     C_R   0.605773 0.569930 0.085507 0.529160
Cu1   Cu    Cu3+1 0.500000 0.500020 0.640660 0.986002
Cu2   Cu    Cu3+1 0.500000 0.499980 0.359340 1.034333
H1    H     H_    0.308523 0.378836 0.113280 0.185300
H2    H     H_    0.689134 0.624219 0.887076 0.156893
N1    N     N_R   0.500040 0.500030 0.852080 -0.222325
N2    N     N_R   0.499960 0.499970 0.147920 -0.211342
O1    O     O_R   0.499990 0.319660 0.618740 -0.615376
O2    O     O_R   0.500010 0.680340 0.381260 -0.529843
O3    O     O_R   0.499990 0.319630 0.381170 -0.546220
O4    O     O_R   0.500010 0.680370 0.618830 -0.574543
O5    O     O_R   0.274840 0.500010 0.591370 -0.532072
O6    O     O_R   0.725160 0.499990 0.408630 -0.482325
O7    O     O_R   0.274830 0.499980 0.353800 -0.605100
O8    O     O_R   0.725170 0.500020 0.646200 -0.610644
O9    O     O_3   0.964170 0.424401 0.328845 -0.718074
H3    H     H_    0.040464 0.394419 0.269999 0.340291
O10   O     O_3   0.035830 0.575735 0.671121 -0.713260
H4    H     H_    0.959548 0.605537 0.730085 0.330338
O11   O     O_3   0.292688 0.135189 0.312450 -0.738804
H5    H     H_    0.220930 0.081273 0.252338 0.333796
O12   O     O_3   0.719637 0.877378 0.688220 -0.732649
H6    H     H_    0.746821 0.798771 0.646782 0.315005
N3    N     N_2   0.300587 0.867117 0.296365 -0.419537
H7    H     H_    0.185538 0.884016 0.296626 0.246015
C17   C     C_3   0.347465 0.863001 0.156575 -0.593900
H8    H     H_    0.338730 0.955700 0.104323 0.212372
H9    H     H_    0.272057 0.796676 0.091415 0.225486
H10   H     H_    0.467704 0.831489 0.162206 0.254748
N4    N     N_2   0.702656 0.130673 0.703519 -0.398018
H11   H     H_    0.815640 0.105400 0.706326 0.284773
C18   C     C_3   0.655051 0.133027 0.843022 -0.555121
H12   H     H_    0.660557 0.038853 0.892054 0.236974
H13   H     H_    0.536048 0.167292 0.837905 0.227906
H14   H     H_    0.732567 0.196246 0.910565 0.219423
O13   O     O_3   0.277708 0.361428 0.844644 -0.726152
H15   H     H_    0.309799 0.338353 0.754577 0.365364
O14   O     O_3   0.710290 0.641818 0.169627 -0.689871
H16   H     H_    0.777895 0.686559 0.109330 0.298138

loop_
_geom_bond_atom_site_label_1
_geom_bond_atom_site_label_2
_ccdc_geom_bond_type
C1    O1    A    
O12   H6    S    
C15   O13   S    
Cu2   N2    S    
C9    C11   A    
C17   H8    S    
O11   H5    S    
C6    O10   S    
C15   N1    A    
C10   N4    S    
C3    O5    A    
O10   H4    S    
C18   H13   S    
Cu2   O7    S    
Cu2   O3    S    
O14   H16   S    
C1    O3    A    
Cu1   O8    S    
C17   H9    S    
C3    O7    A    
Cu1   O1    S    
C1    C12   S    
C10   C12   A    
C8    C11   A    
Cu2   O2    S    
C2    C11   S    
C14   N1    A    
C8    C10   A    
C4    O6    A    
C13   N2    A    
Cu1   Cu2   S    
C18   H14   S    
C13   C15   A    
C2    O2    A    
C5    C6    D    
C17   H10   S    
C14   C16   A    
C7    C12   A    
C4    C6    S    
C8    O12   S    
Cu1   O4    S    
O13   H15   S    
Cu1   O5    S    
C14   H2    S    
C9    N3    S    
Cu2   O6    S    
N3    C17   S    
C2    O4    A    
N4    C18   S    
N3    H7    S    
C7    C9    A    
C13   H1    S    
C16   O14   S    
C16   N2    A    
C3    C5    S    
N4    H11   S    
C7    O11   S    
O9    H3    S    
C4    O8    A    
C18   H12   S    
C5    O9    S    
Cu1   N1    S    
