data_mof_unit_14208.cif
_audit_creation_date              2012-12-10T18:12:35-0500
_audit_creation_method            fapswitch 2.2
_symmetry_space_group_name_H-M    P1
_symmetry_Int_Tables_number       1
_space_group_crystal_system       triclinic
_cell_length_a                    12.621197
_cell_length_b                    13.124353
_cell_length_c                    15.710523
_cell_angle_alpha                 90.713239
_cell_angle_beta                  102.874019
_cell_angle_gamma                 82.390838
_cell_volume                      2514.22158689

loop_
_atom_site_label
_atom_site_type_symbol
_atom_type_description
_atom_site_fract_x
_atom_site_fract_y
_atom_site_fract_z
_atom_type_partial_charge
C1    C     C_R   0.438952 0.691324 0.493427 0.849772
C2    C     C_3   0.505358 0.498223 0.918202 0.109079
C3    C     C_3   0.438907 0.428100 0.014809 -0.220797
C4    C     C_3   0.499070 0.497821 0.082745 0.059900
C5    C     C_3   0.544334 0.403624 0.979026 -0.205764
C6    C     C_3   0.602829 0.473983 0.047829 0.527218
C7    C     C_1   0.506027 0.498984 0.827306 -0.008518
C8    C     C_1   0.496608 0.498062 0.173295 0.029652
C9    C     C_R   0.706303 0.068144 0.631108 0.464723
C10   C     C_R   0.597354 0.200632 0.530742 -0.127584
C11   C     C_R   0.299718 0.837741 0.433634 -0.181502
C12   C     C_R   0.501307 0.500120 0.661976 0.891338
C13   C     C_R   0.271244 0.942375 0.416148 -0.130249
C14   C     C_R   0.345434 0.010112 0.449927 -0.182420
C15   C     C_R   0.448216 0.974037 0.505709 0.121100
C16   C     C_R   0.468284 0.870753 0.534026 0.102910
C17   C     C_R   0.531624 0.036946 0.534309 0.032368
C18   C     C_R   0.625312 0.002256 0.601567 0.022750
C19   C     C_R   0.633753 0.903868 0.638020 -0.147137
C20   C     C_R   0.556512 0.839290 0.604752 -0.233874
C21   C     C_R   0.524644 0.133052 0.495898 -0.239228
C22   C     C_R   0.689767 0.168110 0.596327 -0.269420
C23   C     C_R   0.561042 0.308792 0.510728 0.892263
C24   C     C_R   0.399788 0.801146 0.490230 -0.116573
C25   C     C_R   0.087638 0.346314 0.379299 -0.272475
C26   C     C_R   0.800898 0.628181 0.604210 0.047060
C27   C     C_R   0.905766 0.655928 0.626466 -0.199197
C28   C     C_R   0.986485 0.608019 0.586465 -0.182481
C29   C     C_R   0.962660 0.530662 0.524351 0.017485
C30   C     C_R   0.854439 0.504548 0.504522 0.223357
C31   C     C_R   0.041673 0.477734 0.481972 -0.010423
C32   C     C_R   0.011075 0.399720 0.421350 0.173379
C33   C     C_R   0.904645 0.375113 0.403687 -0.199276
C34   C     C_R   0.498831 0.499663 0.338091 0.891744
C35   C     C_R   0.827780 0.426478 0.445028 -0.164127
C36   C     C_R   0.150660 0.498461 0.497305 -0.030202
C37   C     C_R   0.193942 0.370204 0.397697 0.017680
C38   C     C_3   0.460388 0.592106 0.021608 -0.220134
C39   C     C_3   0.565864 0.568099 0.985872 -0.215349
C40   C     C_1   0.504525 0.499663 0.751625 -0.166378
C41   C     C_1   0.496589 0.498644 0.248674 -0.137239
C42   C     C_3   0.399987 0.522452 0.952099 -0.124534
H1    H     H_    0.618706 0.624457 0.972544 0.177459
H2    H     H_    0.459959 0.159479 0.440292 0.152141
H3    H     H_    0.245093 0.785269 0.400843 0.167492
H4    H     H_    0.318992 0.090346 0.433221 0.133044
H5    H     H_    0.193372 0.970707 0.373286 0.155234
H6    H     H_    0.565471 0.764633 0.635884 0.153842
H7    H     H_    0.254490 0.329464 0.366101 0.129560
H8    H     H_    0.880703 0.315322 0.357926 0.187203
H9    H     H_    0.065569 0.286555 0.333012 0.156011
H10   H     H_    0.181472 0.556257 0.541754 0.127107
H11   H     H_    0.738229 0.664657 0.635570 0.130896
H12   H     H_    0.425638 0.668841 0.040838 0.170623
H13   H     H_    0.066414 0.632476 0.606069 0.142826
H14   H     H_    0.924610 0.714039 0.674890 0.181703
H15   H     H_    0.748158 0.402669 0.429697 0.211264
H16   H     H_    0.579816 0.326992 0.960149 0.184030
H17   H     H_    0.386728 0.371319 0.028499 0.171506
H18   H     H_    0.316434 0.542487 0.910459 0.154859
H19   H     H_    0.745757 0.222185 0.623032 0.207279
H20   H     H_    0.700386 0.874768 0.691477 0.212070
N1    N     N_R   0.222180 0.444680 0.455580 -0.102861
N2    N     N_R   0.776980 0.554790 0.543960 -0.131944
O1    O     O_R   0.366730 0.627160 0.478790 -0.617136
O2    O     O_R   0.544830 0.662520 0.507160 -0.608665
O3    O     O_R   0.410960 0.482330 0.609040 -0.609832
O4    O     O_R   0.589060 0.517690 0.637410 -0.617969
O5    O     O_R   0.455170 0.337480 0.492840 -0.613181
O6    O     O_R   0.633270 0.372840 0.521210 -0.638812
O7    O     O_R   0.410940 0.482310 0.362590 -0.616624
O8    O     O_R   0.589040 0.517670 0.390960 -0.609054
Zn1   Zn    Zn3+2 0.381080 0.476390 0.481050 0.951826
Zn2   Zn    Zn3+2 0.618920 0.523610 0.518950 0.955678
S1    S     S_3+6 0.737484 0.441706 0.113720 0.014324
O9    O     O_2   0.764959 0.527945 0.175082 -0.296738
O10   O     O_2   0.742121 0.344924 0.165298 -0.319645
O11   O     O_3   0.827592 0.423276 0.048933 -0.539863
H21   H     H_    0.900002 0.405894 0.089428 0.385315
S2    S     S_3+6 0.825791 0.030689 0.713570 0.008799
O12   O     O_2   0.898945 0.113796 0.727889 -0.279232
O13   O     O_2   0.793004 0.009869 0.797343 -0.301609
O14   O     O_3   0.894675 0.923055 0.683007 -0.589121
H22   H     H_    0.956809 0.903577 0.733336 0.381297

loop_
_geom_bond_atom_site_label_1
_geom_bond_atom_site_label_2
_ccdc_geom_bond_type
C3    C42   S    
C30   N2    A    
C11   C13   A    
C23   O5    A    
C19   C20   A    
C4    C8    S    
C6    S1    S    
C14   H4    S    
C10   C22   A    
C12   O4    A    
C26   C27   A    
C5    H16   S    
C28   C29   A    
C38   C42   S    
C38   C39   S    
C9    C22   A    
C19   H20   S    
O4    Zn2   S    
C15   C16   A    
O2    Zn2   S    
C11   C24   A    
O1    Zn1   S    
C18   C19   A    
C26   N2    A    
C2    C7    S    
C25   C37   A    
C2    C39   S    
C31   C32   A    
O6    Zn2   S    
C1    O1    A    
C7    C40   T    
O5    Zn1   S    
O3    Zn1   S    
C36   N1    A    
C36   H10   S    
C25   C32   A    
C16   C24   A    
C13   C14   A    
C23   O6    A    
C34   C41   S    
S2    O14   S    
C37   N1    A    
C28   H13   S    
C1    O2    A    
C10   C21   A    
C12   O3    A    
C8    C41   T    
S2    O13   D    
C4    C6    S    
C42   H18   S    
O7    Zn1   S    
C27   H14   S    
C39   H1    S    
N1    Zn1   S    
C33   H8    S    
C17   C21   A    
C9    S2    S    
C12   C40   S    
S1    O9    D    
C25   H9    S    
C29   C30   A    
C21   H2    S    
C37   H7    S    
O14   H22   S    
C38   H12   S    
C16   C20   A    
C14   C15   A    
C17   C18   A    
S1    O10   D    
C20   H6    S    
C30   C35   A    
O8    Zn2   S    
C4    C38   S    
C11   H3    S    
C2    C5    S    
C3    C4    S    
C26   H11   S    
C34   O8    A    
C13   H5    S    
C15   C17   A    
C6    C39   S    
S2    O12   D    
C3    C5    S    
C10   C23   S    
C35   H15   S    
C32   C33   A    
C29   C31   A    
C22   H19   S    
O11   H21   S    
C5    C6    S    
C2    C42   S    
C33   C35   A    
S1    O11   S    
C9    C18   A    
C1    C24   S    
C27   C28   A    
N2    Zn2   S    
C31   C36   A    
C34   O7    A    
C3    H17   S    
