data_mof_unit_37779.cif
_audit_creation_date              2012-10-26T19:17:54-0400
_audit_creation_method            fapswitch 2.2
_symmetry_space_group_name_H-M    P1
_symmetry_Int_Tables_number       1
_space_group_crystal_system       triclinic
_cell_length_a                    10.922599
_cell_length_b                    12.327705
_cell_length_c                    13.36597
_cell_angle_alpha                 116.830734
_cell_angle_beta                  77.755788
_cell_angle_gamma                 99.103896
_cell_volume                      1565.4145857

loop_
_atom_site_label
_atom_site_type_symbol
_atom_type_description
_atom_site_fract_x
_atom_site_fract_y
_atom_site_fract_z
_atom_type_partial_charge
Br1   Br    Br    0.676351 0.261171 0.127101 -0.354193
Br2   Br    Br    0.205615 0.291383 0.755225 -0.554185
C1    C     C_R   0.514080 0.854154 0.287174 0.536375
C2    C     C_R   0.169813 0.444037 0.655132 -0.050162
C3    C     C_R   0.154324 0.471313 0.567906 -0.115387
C4    C     C_R   0.735664 0.002316 0.507805 0.601837
C5    C     C_R   0.143887 0.377607 0.460481 -0.021044
C6    C     C_R   0.136922 0.256521 0.443381 -0.029907
C7    C     C_R   0.143949 0.229043 0.533170 0.062935
C8    C     C_R   0.340698 0.274721 0.023621 0.223214
C9    C     C_R   0.455257 0.227908 0.833863 0.022838
C10   C     C_R   0.632501 0.797451 0.093996 -0.032198
C11   C     C_R   0.686946 0.707819 0.992730 -0.057078
C12   C     C_R   0.719284 0.671986 0.669409 -0.150654
C13   C     C_R   0.638352 0.587801 0.956534 -0.097694
C14   C     C_R   0.531286 0.554984 0.020586 0.043297
C15   C     C_R   0.480728 0.645264 0.127540 0.020293
C16   C     C_R   0.478301 0.145123 0.712683 0.612734
C17   C     C_R   0.476159 0.433779 0.982944 0.008374
C18   C     C_R   0.385324 0.398799 0.058372 0.045890
C19   C     C_R   0.336716 0.489688 0.163372 -0.085395
C20   C     C_R   0.377388 0.611170 0.193464 -0.117463
C21   C     C_R   0.505008 0.348100 0.870157 -0.083358
C22   C     C_R   0.375595 0.190868 0.911120 -0.077410
C23   C     C_R   0.047108 0.910146 0.512526 -0.097328
C24   C     C_R   0.535784 0.766936 0.166132 0.001827
C25   C     C_R   0.636297 0.309913 0.289224 0.186271
C26   C     C_R   0.354886 0.777709 0.663992 0.089928
C27   C     C_R   0.349874 0.699750 0.714312 -0.103369
C28   C     C_R   0.262361 0.003593 0.502135 0.559087
C29   C     C_R   0.411187 0.592162 0.654923 -0.128136
C30   C     C_R   0.470693 0.558698 0.542109 -0.003300
C31   C     C_R   0.487442 0.648825 0.500984 0.170716
C32   C     C_R   0.522217 0.443773 0.471648 -0.052358
C33   C     C_R   0.586951 0.422164 0.361366 0.017935
C34   C     C_R   0.126568 0.010465 0.510282 -0.029661
C35   C     C_R   0.613220 0.517177 0.328849 -0.096646
C36   C     C_R   0.572640 0.630879 0.402003 -0.091700
C37   C     C_R   0.509303 0.347594 0.503826 -0.003141
C38   C     C_R   0.647822 0.231498 0.335960 0.407857
C39   C     C_R   0.703721 0.797020 0.721737 0.271538
C40   C     C_R   0.766198 0.869533 0.669023 -0.074620
C41   C     C_R   0.840855 0.819077 0.561448 -0.015772
C42   C     C_R   0.854227 0.691413 0.506915 0.256702
C43   C     C_R   0.793515 0.619616 0.562601 -0.139623
C44   C     C_R   0.071575 0.117784 0.533873 -0.013335
C45   C     C_R   0.939461 0.119858 0.557458 0.214946
C46   C     C_R   0.865743 0.008656 0.527181 -0.023026
C47   C     C_R   0.917509 0.907146 0.521255 -0.005627
C48   C     C_R   0.174849 0.323440 0.635379 0.217910
Cu1   Cu    Cu3+1 0.529370 0.098270 0.475420 1.113899
Cu2   Cu    Cu3+1 0.470630 0.901730 0.524580 0.980782
H1    H     H_    0.673656 0.614807 0.710642 0.158210
H2    H     H_    0.767615 0.731524 0.941597 0.169073
H3    H     H_    0.326509 0.677562 0.269668 0.180617
H4    H     H_    0.674684 0.507641 0.250744 0.200549
H5    H     H_    0.449511 0.351789 0.580582 0.142622
H6    H     H_    0.309342 0.862200 0.711330 0.148831
H7    H     H_    0.409121 0.535836 0.698005 0.128019
H8    H     H_    0.299724 0.723289 0.799636 0.157539
H9    H     H_    0.616526 0.704020 0.382200 0.194304
H10   H     H_    0.758621 0.967270 0.713665 0.181258
H11   H     H_    0.803593 0.522424 0.523223 0.200700
H12   H     H_    0.151375 0.564954 0.583274 0.141180
H13   H     H_    0.085486 0.835659 0.514295 0.198112
H14   H     H_    0.177319 0.516618 0.738720 0.148540
H15   H     H_    0.077838 0.278445 0.096569 0.377860
H16   H     H_    0.485484 0.010797 0.936119 0.394200
H17   H     H_    0.865920 0.991240 0.257481 0.359185
H18   H     H_    0.004389 0.651890 0.222117 0.377573
H19   H     H_    0.915900 0.284714 0.813785 0.378984
H20   H     H_    0.132528 0.398726 0.392887 0.231461
H21   H     H_    0.113771 0.184695 0.363737 0.199599
H22   H     H_    0.335824 0.097656 0.882155 0.171094
H23   H     H_    0.262464 0.469286 0.221261 0.217685
H24   H     H_    0.560098 0.375481 0.807223 0.167961
H25   H     H_    0.671117 0.889946 0.118177 0.231123
H26   H     H_    0.688414 0.522193 0.879380 0.153583
N1    N     N_R   0.573890 0.246290 0.438210 -0.267974
N2    N     N_R   0.426890 0.754320 0.561170 -0.248035
O1    O     O_R   0.536940 0.972510 0.318130 -0.453518
O2    O     O_2   0.309062 0.253907 0.217226 -0.294698
O3    O     O_3   0.106119 0.286801 0.165554 -0.449246
O4    O     O_2   0.526557 0.774862 0.886210 -0.320158
O5    O     O_2   0.698601 0.934771 0.942048 -0.260402
O6    O     O_3   0.525635 0.968291 0.855981 -0.517115
O7    O     O_2   0.859312 0.158426 0.178242 -0.183565
O8    O     O_2   0.874707 0.230487 0.376347 -0.254787
O9    O     O_3   0.778666 0.013104 0.270043 -0.542553
O10   O     O_2   0.078077 0.617069 0.384518 -0.346508
O11   O     O_2   0.893813 0.488455 0.311620 -0.239109
O12   O     O_R   0.487330 0.806530 0.359650 -0.550078
O13   O     O_3   0.943420 0.691833 0.291888 -0.535597
O14   O     O_2   0.868966 0.341178 0.600589 -0.231033
O15   O     O_2   0.734647 0.230601 0.699620 -0.325127
O16   O     O_3   0.938493 0.334281 0.770408 -0.487266
O17   O     O_R   0.705160 0.082990 0.479250 -0.379494
O18   O     O_R   0.655550 0.917010 0.520760 -0.530985
O19   O     O_R   0.512670 0.193470 0.640350 -0.478666
O20   O     O_R   0.463060 0.027490 0.681870 -0.492413
O21   O     O_R   0.344450 0.082990 0.479240 -0.501953
O22   O     O_R   0.294840 0.917010 0.520750 -0.520854
O23   O     O_2   0.217751 0.084698 0.061344 -0.263055
S1    S     S_3+6 0.243276 0.220770 0.118218 0.000760
S2    S     S_3+6 0.612066 0.867406 0.856019 -0.003552
S3    S     S_3+6 0.792141 0.157859 0.288289 0.105028
S4    S     S_3+6 0.945215 0.618022 0.370974 -0.022371
S5    S     S_3+6 0.867297 0.258394 0.655677 0.021043

loop_
_geom_bond_atom_site_label_1
_geom_bond_atom_site_label_2
_ccdc_geom_bond_type
Cu1   O17   S    
C9    C16   S    
H15   O3    S    
H16   O6    S    
C39   C40   A    
C17   C18   A    
C21   H24   S    
C5    C6    A    
Cu2   O22   S    
C4    C46   S    
C15   C24   A    
C4    O18   A    
C26   C27   A    
C33   C35   A    
O10   S4    D    
O5    S2    D    
C13   H26   S    
C13   C14   A    
C37   H5    S    
C9    C22   A    
C32   C33   A    
C29   H7    S    
C9    C21   A    
Br2   C48   S    
C35   H4    S    
C29   C30   A    
C8    C18   A    
C6    C7    A    
O9    S3    S    
C1    O1    A    
C34   C44   A    
Cu1   O1    S    
C36   H9    S    
O16   S5    S    
C7    C44   S    
C19   C20   A    
C16   O20   A    
H17   O9    S    
C12   C43   A    
Cu1   N1    S    
Cu1   O19   S    
O3    S1    S    
Cu1   Cu2   S    
C4    O17   A    
O11   S4    D    
H18   O13   S    
C23   H13   S    
C5    H20   S    
C3    C5    A    
C41   C47   S    
H19   O16   S    
C25   C33   A    
Cu2   O20   S    
C32   C37   A    
C3    H12   S    
C10   C24   A    
C1    O12   A    
C30   C32   A    
C17   C21   A    
C41   C42   A    
C35   C36   A    
O8    S3    D    
C45   C46   A    
C27   H8    S    
C25   C38   A    
O14   S5    D    
C10   H25   S    
C28   O22   A    
O4    S2    D    
C38   N1    A    
C18   C19   A    
C39   S2    S    
C12   C39   A    
C46   C47   A    
C11   C13   A    
Cu2   O12   S    
O6    S2    S    
C16   O19   A    
C42   C43   A    
C38   S3    S    
C11   H2    S    
C42   S4    S    
C40   H10   S    
C44   C45   A    
C1    C24   S    
C7    C48   A    
C31   C36   A    
C2    C3    A    
C31   N2    A    
C20   H3    S    
C26   H6    S    
Cu1   O21   S    
C19   H23   S    
C15   C20   A    
C28   C34   S    
C8    C22   A    
C30   C31   A    
C8    S1    S    
C27   C29   A    
O13   S4    S    
C2    H14   S    
C22   H22   S    
C14   C15   A    
O7    S3    D    
C14   C17   A    
C28   O21   A    
Cu2   O18   S    
C6    H21   S    
C43   H11   S    
C26   N2    A    
C23   C47   A    
O15   S5    D    
C23   C34   A    
C12   H1    S    
C10   C11   A    
C45   S5    S    
C40   C41   A    
C2    C48   A    
O23   S1    D    
Br1   C25   S    
O2    S1    D    
Cu2   N2    S    
C37   N1    A    
