data_mof_unit_32858.cif
_audit_creation_date              2012-12-10T20:31:04-0500
_audit_creation_method            fapswitch 2.2
_symmetry_space_group_name_H-M    P1
_symmetry_Int_Tables_number       1
_space_group_crystal_system       triclinic
_cell_length_a                    14.918639
_cell_length_b                    10.662525
_cell_length_c                    9.840471
_cell_angle_alpha                 90.870236
_cell_angle_beta                  89.772092
_cell_angle_gamma                 90.241343
_cell_volume                      1565.12085306

loop_
_atom_site_label
_atom_site_type_symbol
_atom_type_description
_atom_site_fract_x
_atom_site_fract_y
_atom_site_fract_z
_atom_type_partial_charge
C1    C     C_R   0.499587 0.259363 0.498394 0.932545
C2    C     C_R   0.907569 0.584714 0.421262 0.124114
C3    C     C_R   0.950126 0.315208 0.649563 -0.245176
C4    C     C_R   0.043092 0.311219 0.647171 -0.149139
C5    C     C_R   0.092218 0.399528 0.572328 0.042939
C6    C     C_R   0.046496 0.492478 0.498446 -0.001006
C7    C     C_R   0.094020 0.583200 0.423536 0.132941
C8    C     C_R   0.048473 0.673024 0.348158 -0.188116
C9    C     C_R   0.955393 0.673372 0.346455 -0.220170
C10   C     C_R   0.185830 0.397749 0.569029 0.304719
C11   C     C_R   0.231442 0.492663 0.499567 -0.147689
C12   C     C_R   0.326929 0.497606 0.500063 0.962040
C13   C     C_R   0.186532 0.583158 0.425927 -0.329145
C14   C     C_R   0.471023 0.064394 0.613702 -0.033662
C15   C     C_R   0.486832 0.126982 0.493391 -0.226838
C16   C     C_R   0.480484 0.059358 0.368743 0.496453
C17   C     C_R   0.468335 0.929903 0.373229 -0.289981
C18   C     C_R   0.469044 0.869142 0.498996 -0.216996
C19   C     C_R   0.453501 0.939511 0.617147 0.005260
C20   C     C_3   0.479465 0.931087 0.765081 0.196149
C21   C     C_3   0.506966 0.069418 0.755867 0.297222
C22   C     C_R   0.459594 0.404781 0.070178 0.242039
C23   C     C_R   0.491084 0.739206 0.500743 0.884454
C24   C     C_R   0.548714 0.585703 0.073197 -0.140395
C25   C     C_R   0.549270 0.585101 0.928955 -0.159146
C26   C     C_R   0.459709 0.404550 0.927589 0.208447
C27   C     C_3   0.363332 0.367169 0.922796 -0.472109
C28   C     C_3   0.363411 0.367817 0.077069 -0.489742
C29   C     C_R   0.673052 0.500035 0.499735 0.879674
C30   C     C_R   0.814763 0.584765 0.420714 -0.269005
C31   C     C_R   0.768307 0.498264 0.499144 -0.053452
C32   C     C_R   0.812264 0.409656 0.576831 -0.266781
C33   C     C_R   0.904983 0.405839 0.575503 0.128987
C34   C     C_R   0.953077 0.494318 0.498425 0.081355
H1    H     H_    0.778497 0.653114 0.361816 0.140089
H2    H     H_    0.466252 0.877123 0.278322 0.178960
H3    H     H_    0.534775 0.865619 0.789642 0.097536
H4    H     H_    0.466719 0.132393 0.822587 0.151823
H5    H     H_    0.586154 0.656763 0.128649 0.147604
H6    H     H_    0.587133 0.655638 0.875334 0.144666
H7    H     H_    0.320156 0.440219 0.878345 0.240039
H8    H     H_    0.353604 0.271749 0.878859 0.249559
H9    H     H_    0.320467 0.442003 0.123306 0.215626
H10   H     H_    0.774049 0.342709 0.635826 0.151550
H11   H     H_    0.354160 0.273002 0.120470 0.249303
H12   H     H_    0.913598 0.247226 0.709103 0.156749
H13   H     H_    0.075683 0.239687 0.705807 0.203673
H14   H     H_    0.224049 0.653886 0.371102 0.163816
H15   H     H_    0.084852 0.742590 0.290373 0.151056
H16   H     H_    0.920846 0.743113 0.287423 0.147461
N1    N     N_R   0.499390 0.499140 0.142800 -0.118359
N2    N     N_R   0.499390 0.499180 0.857150 -0.111220
O1    O     O_R   0.500010 0.316790 0.614690 -0.595396
O2    O     O_R   0.500000 0.316760 0.385350 -0.581587
O3    O     O_R   0.367850 0.499990 0.614680 -0.610347
O4    O     O_R   0.367840 0.499950 0.385340 -0.624474
O5    O     O_R   0.500000 0.683240 0.614650 -0.656892
O6    O     O_R   0.499990 0.683210 0.385310 -0.626223
O7    O     O_R   0.632160 0.500050 0.614660 -0.612369
O8    O     O_R   0.632150 0.500010 0.385320 -0.630595
Zn1   Zn    Zn3+2 0.500010 0.500020 0.653130 0.953670
Zn2   Zn    Zn3+2 0.499990 0.499980 0.346870 0.950082
O9    O     O_3   0.403610 0.923441 0.851468 -0.647389
C35   C     C_3   0.366887 0.801541 0.851591 0.130789
H17   H     H_    0.409219 0.740066 0.914332 0.149686
H18   H     H_    0.360474 0.761278 0.747064 0.163176
C36   C     C_3   0.273128 0.808936 0.914358 -0.323433
H19   H     H_    0.277309 0.852862 0.017373 0.234566
H20   H     H_    0.230106 0.868750 0.850195 0.240333
C37   C     C_3   0.229968 0.679761 0.926024 -0.968819
H21   H     H_    0.227349 0.631938 0.824979 0.274981
H22   H     H_    0.160548 0.689682 0.965726 0.271492
H23   H     H_    0.268641 0.622294 0.997987 0.262003
O10   O     O_3   0.600643 0.091559 0.775089 -0.669701
C38   C     C_3   0.656852 0.047163 0.668534 0.087713
H24   H     H_    0.655877 0.114541 0.583586 0.134165
H25   H     H_    0.636903 0.952385 0.630709 0.121703
C39   C     C_3   0.752759 0.039090 0.721095 -0.339482
H26   H     H_    0.773565 0.131910 0.763275 0.219252
H27   H     H_    0.755594 0.969568 0.804010 0.223215
C40   C     C_3   0.817737 0.000054 0.608052 -0.964643
H28   H     H_    0.798822 0.906558 0.565482 0.266262
H29   H     H_    0.886672 0.994519 0.649598 0.272155
H30   H     H_    0.817386 0.070079 0.525566 0.266619
Cl1   Cl    Cl    0.246283 0.272195 0.640397 -0.683332
O11   O     O_3   0.483131 0.119225 0.244418 -0.630443
C41   C     C_3   0.561462 0.086388 0.170056 0.076816
H31   H     H_    0.546246 0.097897 0.060601 0.197147
H32   H     H_    0.581952 0.986827 0.181749 0.114940
C42   C     C_3   0.639647 0.173907 0.207414 -0.330791
H33   H     H_    0.619985 0.272761 0.190238 0.251796
H34   H     H_    0.656537 0.163354 0.316521 0.191378
C43   C     C_3   0.722598 0.144560 0.121752 -0.955317
H35   H     H_    0.744312 0.046349 0.137589 0.258012
H36   H     H_    0.778090 0.208732 0.151986 0.269404
H37   H     H_    0.708112 0.158064 0.012354 0.289157

loop_
_geom_bond_atom_site_label_1
_geom_bond_atom_site_label_2
_ccdc_geom_bond_type
O6    Zn2   S    
C23   O6    A    
C41   H31   S    
C10   Cl1   S    
C43   H35   S    
C19   C20   S    
C27   H8    S    
C1    O2    A    
C40   H28   S    
C7    C8    A    
C26   C27   S    
C30   H1    S    
C14   C21   S    
N2    Zn1   S    
C25   H6    S    
C5    C6    A    
C39   H27   S    
C3    C33   A    
C15   C16   A    
C24   H5    S    
O8    Zn2   S    
C18   C19   A    
C1    O1    A    
O1    Zn1   S    
C21   H4    S    
C29   O7    A    
C8    C9    A    
C37   H21   S    
C1    C15   S    
C17   H2    S    
C2    C34   A    
C24   N1    A    
C43   H36   S    
C22   C28   S    
C16   O11   S    
N1    Zn2   S    
C40   H29   S    
C33   C34   A    
C28   H11   S    
O7    Zn1   S    
O10   C38   S    
C18   C23   S    
C35   C36   S    
C24   C25   A    
O11   C41   S    
C16   C17   A    
O2    Zn2   S    
C21   O10   S    
C36   H19   S    
C36   H20   S    
C35   H18   S    
C38   H24   S    
C26   N2    A    
C27   H7    S    
C42   H34   S    
C31   C32   A    
C29   O8    A    
C37   H23   S    
C17   C18   A    
C32   H10   S    
C38   H25   S    
C12   O4    A    
C43   H37   S    
C41   H32   S    
O4    Zn2   S    
C3    C4    A    
C40   H30   S    
C42   C43   S    
C23   O5    A    
C3    H12   S    
C39   H26   S    
C14   C19   A    
C9    H16   S    
C4    C5    A    
C13   H14   S    
C11   C12   S    
O5    Zn1   S    
C6    C7    A    
C28   H9    S    
C2    C30   A    
C36   C37   S    
C35   H17   S    
C20   O9    S    
C25   N2    A    
C5    C10   A    
C29   C31   S    
C32   C33   A    
C20   H3    S    
C11   C13   A    
C39   C40   S    
C42   H33   S    
C30   C31   A    
O3    Zn1   S    
C38   C39   S    
C12   O3    A    
C10   C11   A    
O9    C35   S    
C6    C34   A    
C7    C13   A    
C20   C21   S    
C22   C26   A    
C41   C42   S    
C27   C28   S    
C14   C15   A    
C37   H22   S    
C2    C9    A    
C8    H15   S    
C22   N1    A    
C4    H13   S    
