data_mof_unit_43184.cif
_audit_creation_date              2012-12-10T17:16:40-0500
_audit_creation_method            fapswitch 2.2
_symmetry_space_group_name_H-M    P1
_symmetry_Int_Tables_number       1
_space_group_crystal_system       triclinic
_cell_length_a                    10.156539
_cell_length_b                    10.65553
_cell_length_c                    10.942661
_cell_angle_alpha                 91.017488
_cell_angle_beta                  94.504422
_cell_angle_gamma                 80.871487
_cell_volume                      1165.62400182

loop_
_atom_site_label
_atom_site_type_symbol
_atom_type_description
_atom_site_fract_x
_atom_site_fract_y
_atom_site_fract_z
_atom_type_partial_charge
C1    C     C_R   0.444910 0.507004 0.267950 1.009751
C2    C     C_R   0.492551 0.736230 0.472303 0.918672
C3    C     C_R   0.691563 0.098146 0.342040 0.403454
C4    C     C_R   0.233596 0.923595 0.446806 0.439362
C5    C     C_R   0.807690 0.020267 0.311568 -0.243649
C6    C     C_R   0.135637 0.992546 0.514817 -0.248939
C7    C     C_R   0.810077 0.890485 0.305723 -0.179563
C8    C     C_R   0.169692 0.085623 0.596912 -0.197783
C9    C     C_R   0.695849 0.840872 0.328777 0.422358
C10   C     C_R   0.296237 0.122113 0.598997 0.435204
C11   C     C_R   0.590994 0.915911 0.389401 -0.035025
C12   C     C_R   0.554978 0.488996 0.731506 0.983504
C13   C     C_R   0.387520 0.067719 0.513015 -0.057956
C14   C     C_R   0.593584 0.047501 0.403561 -0.044719
C15   C     C_R   0.365362 0.952951 0.458041 -0.030308
C16   C     C_R   0.479325 0.867575 0.428630 -0.114752
C17   C     C_R   0.497117 0.121942 0.475953 -0.126132
C18   C     C_2   0.415327 0.503223 0.137295 -0.349074
C19   C     C_2   0.585052 0.479457 0.861254 -0.384478
C20   C     C_2   0.515733 0.479124 0.063804 0.597846
C21   C     C_2   0.486878 0.472885 0.934195 0.540539
C22   C     C_2   0.073061 0.490177 0.488962 0.350849
C23   C     C_2   0.926790 0.510536 0.510303 0.321979
C24   C     C_R   0.500047 0.257762 0.496933 0.944310
Cl1   Cl    Cl    0.644667 0.227002 0.243029 -0.523388
Cl2   Cl    Cl    0.184809 0.812192 0.338280 -0.601392
Cl3   Cl    Cl    0.673811 0.705712 0.241945 -0.523278
Cl4   Cl    Cl    0.345239 0.210636 0.727809 -0.507855
Cl5   Cl    Cl    0.867713 0.621789 0.622452 -0.564212
Cl6   Cl    Cl    0.131873 0.379952 0.375813 -0.557619
F1    F     F_    0.359039 0.464290 0.890145 -0.605884
F2    F     F_    0.647168 0.462837 0.106735 -0.580131
H1    H     H_    0.097934 0.128911 0.659430 0.202530
H2    H     H_    0.891092 0.832117 0.262789 0.241178
H3    H     H_    0.885274 0.060152 0.270338 0.225661
H4    H     H_    0.035262 0.969548 0.508841 0.194800
H5    H     H_    0.687293 0.482611 0.897407 0.208776
H6    H     H_    0.311296 0.517882 0.101118 0.201252
H7    H     H_    0.877691 0.383671 0.383777 0.226330
H8    H     H_    0.122430 0.615717 0.616763 0.209997
N1    N     N_2   0.157300 0.551390 0.551120 -0.169458
N2    N     N_2   0.842700 0.448610 0.448880 -0.174124
O1    O     O_R   0.568940 0.489660 0.307530 -0.485388
O2    O     O_R   0.431060 0.510340 0.692470 -0.524253
O3    O     O_R   0.348880 0.522640 0.340350 -0.561946
O4    O     O_R   0.651120 0.477360 0.659650 -0.579968
O5    O     O_R   0.610030 0.300280 0.483580 -0.620085
O6    O     O_R   0.389970 0.699720 0.516420 -0.608672
O7    O     O_R   0.389970 0.333270 0.516400 -0.549701
O8    O     O_R   0.610030 0.666730 0.483600 -0.553686
Zn1   Zn    Zn3+2 0.646940 0.477980 0.478080 1.108882
Zn2   Zn    Zn3+2 0.353060 0.522020 0.521920 1.116185

loop_
_geom_bond_atom_site_label_1
_geom_bond_atom_site_label_2
_ccdc_geom_bond_type
C4    Cl2   S    
C3    C14   A    
C22   Cl6   S    
C11   C16   A    
N1    Zn2   S    
C13   C17   A    
N2    Zn1   S    
C3    C5    A    
O7    Zn2   S    
C1    O3    A    
C7    C9    A    
O2    Zn2   S    
C4    C15   A    
O8    Zn1   S    
C18   H6    S    
C12   O2    A    
C9    C11   A    
C14   C17   A    
O1    Zn1   S    
C1    C18   S    
C23   N2    D    
C5    H3    S    
C12   C19   S    
C4    C6    A    
H8    N1    S    
C19   C21   D    
C6    H4    S    
H7    N2    S    
C18   C20   D    
C8    H1    S    
C13   C15   A    
C11   C14   A    
C22   N1    D    
C19   H5    S    
C15   C16   A    
C17   C24   S    
C23   Cl5   S    
O6    Zn2   S    
C3    Cl1   S    
C2    C16   S    
C20   C21   S    
C9    Cl3   S    
C12   O4    A    
C20   F2    S    
C7    H2    S    
C10   Cl4   S    
C24   O7    A    
C5    C7    A    
C22   C23   S    
C6    C8    A    
C2    O8    A    
O3    Zn2   S    
C2    O6    A    
C24   O5    A    
O4    Zn1   S    
C1    O1    A    
C8    C10   A    
O5    Zn1   S    
C21   F1    S    
C10   C13   A    
