data_mof_unit_28192.cif
_audit_creation_date              2012-12-11T15:38:58-0500
_audit_creation_method            fapswitch 2.2
_symmetry_space_group_name_H-M    P1
_symmetry_Int_Tables_number       1
_space_group_crystal_system       triclinic
_cell_length_a                    14.313792
_cell_length_b                    14.811246
_cell_length_c                    33.233619
_cell_angle_alpha                 97.803625
_cell_angle_beta                  90.494883
_cell_angle_gamma                 118.694497
_cell_volume                      6101.05980447

loop_
_atom_site_label
_atom_site_type_symbol
_atom_type_description
_atom_site_fract_x
_atom_site_fract_y
_atom_site_fract_z
_atom_type_partial_charge
C1    C     C_R   0.616927 0.910051 0.436954 0.559437
C2    C     C_R   0.712076 0.437388 0.949276 0.541956
C3    C     C_R   0.563524 0.781848 0.766994 -0.097220
C4    C     C_R   0.570995 0.800321 0.726645 0.111739
C5    C     C_R   0.631818 0.768907 0.701210 0.026531
C6    C     C_R   0.681679 0.717011 0.715811 -0.136173
C7    C     C_R   0.676157 0.700486 0.756561 0.090357
C8    C     C_R   0.617082 0.734079 0.782275 0.045946
C9    C     C_R   0.569913 0.725435 0.627878 -0.124023
C10   C     C_R   0.565090 0.759432 0.591182 -0.123722
C11   C     C_R   0.717060 0.928421 0.616841 -0.119188
C12   C     C_R   0.711128 0.738902 0.949782 0.541273
C13   C     C_R   0.829551 0.436465 0.164471 -0.119210
C14   C     C_R   0.827296 0.450285 0.123834 -0.125639
C15   C     C_R   0.775600 0.348729 0.245256 -0.116763
C16   C     C_R   0.765558 0.334113 0.285870 -0.124409
C17   C     C_R   0.728496 0.389473 0.312598 0.039939
C18   C     C_R   0.708900 0.464884 0.299101 -0.083780
C19   C     C_R   0.718121 0.478913 0.258478 -0.116022
C20   C     C_R   0.748089 0.418429 0.231048 0.027408
C21   C     C_R   0.743303 0.423429 0.187311 0.031983
C22   C     C_R   0.592714 0.323709 0.363368 0.103443
C23   C     C_R   0.594060 0.205695 0.456662 0.565842
C24   C     C_R   0.562511 0.280586 0.399132 -0.137158
C25   C     C_R   0.742556 0.310776 0.414473 0.082864
C26   C     C_R   0.773112 0.354798 0.378930 -0.144432
C27   C     C_R   0.698558 0.359040 0.352823 0.037219
C28   C     C_R   0.635183 0.269800 0.424016 0.037700
C29   C     C_R   0.244407 0.878432 0.393433 0.020734
C30   C     C_R   0.237653 0.961941 0.380401 -0.127794
C31   C     C_R   0.213705 0.959092 0.339292 -0.111920
C32   C     C_R   0.721451 0.894344 0.653631 -0.086060
C33   C     C_R   0.195406 0.872605 0.310777 0.041998
C34   C     C_R   0.194741 0.786249 0.323756 -0.115315
C35   C     C_R   0.295510 0.892821 0.434395 0.539721
C36   C     C_R   0.218752 0.788896 0.364901 -0.130359
C37   C     C_R   0.195845 0.806592 0.163116 -0.114067
C38   C     C_R   0.168134 0.785732 0.121237 -0.124912
C39   C     C_R   0.091114 0.900824 0.129753 -0.128585
C40   C     C_R   0.118366 0.921094 0.171761 -0.113542
C41   C     C_R   0.167168 0.870891 0.188591 0.039397
C42   C     C_1   0.177753 0.875782 0.231940 -0.028375
C43   C     C_R   0.645414 0.794098 0.659723 0.041965
C44   C     C_1   0.184946 0.875244 0.268007 -0.027402
C45   C     C_R   0.111069 0.828856 0.104393 0.022648
C46   C     C_R   0.638817 0.878079 0.395429 0.034963
C47   C     C_R   0.614388 0.905090 0.551462 0.540928
C48   C     C_R   0.558700 0.793289 0.368169 0.083016
C49   C     C_R   0.573626 0.782915 0.326540 -0.140461
C50   C     C_R   0.667060 0.855101 0.311853 0.048276
C51   C     C_R   0.750889 0.934142 0.338943 0.110349
C52   C     C_R   0.736500 0.944369 0.380624 -0.137752
C53   C     C_R   0.784830 0.914626 0.175395 -0.125361
C54   C     C_R   0.635685 0.862705 0.585988 0.020685
C55   C     C_R   0.798666 0.901770 0.133969 -0.159567
C56   C     C_R   0.614792 0.761277 0.120799 0.094065
C57   C     C_R   0.601692 0.775209 0.162506 -0.109234
C58   C     C_R   0.687744 0.848726 0.189774 0.016924
C59   C     C_R   0.589669 0.199238 0.570968 0.542204
C60   C     C_1   0.679229 0.850767 0.232680 -0.025071
C61   C     C_1   0.673448 0.851636 0.268717 -0.001042
C62   C     C_R   0.715888 0.821655 0.106547 0.062640
C63   C     C_R   0.622625 0.248851 0.614019 0.019165
C64   C     C_R   0.556380 0.278207 0.636794 -0.131391
C65   C     C_R   0.052300 0.781289 0.063778 0.539129
C66   C     C_R   0.572719 0.301096 0.679227 -0.119329
C67   C     C_R   0.655498 0.295322 0.699276 0.036805
C68   C     C_R   0.726264 0.273291 0.676829 -0.108990
C69   C     C_R   0.710261 0.250537 0.634369 -0.128046
C70   C     C_R   0.760425 0.335752 0.845895 0.126026
C71   C     C_R   0.289190 0.887181 0.548493 0.545946
C72   C     C_R   0.768810 0.363037 0.888467 -0.098867
C73   C     C_R   0.594478 0.352379 0.884604 -0.134565
C74   C     C_R   0.585721 0.325352 0.842397 -0.138105
C75   C     C_R   0.669919 0.321039 0.822885 0.071644
C76   C     C_R   0.744160 0.486886 0.066193 0.541666
C77   C     C_1   0.666157 0.310528 0.779250 0.009693
C78   C     C_1   0.662567 0.304237 0.742785 -0.017476
C79   C     C_R   0.688410 0.376686 0.907848 -0.005262
C80   C     C_R   0.061877 0.750147 0.906289 0.082607
C81   C     C_R   0.082259 0.843404 0.892023 0.066213
C82   C     C_R   0.091764 0.849823 0.850599 -0.124373
C83   C     C_R   0.738327 0.450396 0.105585 0.021585
C84   C     C_R   0.083318 0.765754 0.823036 -0.010091
C85   C     C_R   0.073055 0.677243 0.837371 -0.108743
C86   C     C_R   0.063590 0.668731 0.878766 0.074088
C87   C     C_R   0.742595 0.789524 0.066220 0.565357
C88   C     C_R   0.152395 0.741690 0.756585 -0.106549
C89   C     C_R   0.161428 0.751804 0.715445 0.080031
C90   C     C_R   0.102343 0.790632 0.696551 0.088935
C91   C     C_R   0.032474 0.816177 0.718703 0.110208
C92   C     C_R   0.025934 0.806907 0.760123 -0.111972
C93   C     C_R   0.086729 0.771023 0.779197 -0.012830
C94   C     C_R   0.184409 0.920649 0.649445 0.125160
C95   C     C_R   0.649311 0.430165 0.127879 -0.123756
C96   C     C_R   0.230636 0.943061 0.612607 -0.118747
C97   C     C_R   0.154782 0.758343 0.587177 -0.136950
C98   C     C_R   0.020586 0.731303 0.946881 0.582035
C99   C     C_R   0.106121 0.735214 0.623222 -0.126301
C100  C     C_R   0.124990 0.815706 0.655180 0.089072
C101  C     C_R   0.220886 0.862346 0.582396 -0.002194
C102  C     C_R   0.665803 0.739885 0.909966 -0.033232
C103  C     C_R   0.592814 0.646157 0.885370 -0.086904
C104  C     C_R   0.572204 0.643355 0.843853 0.098001
C105  C     C_R   0.625292 0.735753 0.826670 0.073456
C106  C     C_R   0.692400 0.831365 0.851913 0.081656
C107  C     C_R   0.652051 0.417279 0.168436 -0.120280
C108  C     C_R   0.711190 0.832635 0.893398 -0.119605
Cr1   Cr    Cr6+3 0.424820 0.846020 0.489780 1.034798
Cr2   Cr    Cr6+3 0.657880 0.078580 0.505700 1.033278
Cr3   Cr    Cr6+3 0.417280 0.075360 0.504550 1.009963
Cr4   Cr    Cr6+3 0.903360 0.812540 0.006510 1.031471
Cr5   Cr    Cr6+3 0.914630 0.587050 0.006280 1.021092
Cr6   Cr    Cr6+3 0.673560 0.582680 0.008540 1.033246
H1    H     H_    0.579420 0.429340 0.114663 0.130177
H2    H     H_    0.897123 0.465863 0.107395 0.127185
H3    H     H_    0.214011 0.026143 0.329548 0.109022
H4    H     H_    0.876851 0.949425 0.123982 0.122683
H5    H     H_    0.799644 0.008575 0.401123 0.129369
H6    H     H_    0.525779 0.725478 0.173733 0.100506
H7    H     H_    0.510081 0.720771 0.305443 0.104771
H8    H     H_    0.841432 0.380883 0.905992 0.139291
H9    H     H_    0.762544 0.228005 0.617763 0.128091
H10   H     H_    0.488245 0.277608 0.622074 0.126851
H11   H     H_    0.515556 0.313440 0.824761 0.123291
H12   H     H_    0.479913 0.249326 0.406084 0.125673
H13   H     H_    0.531101 0.362088 0.898552 0.139239
H14   H     H_    0.060772 0.654489 0.627523 0.131666
H15   H     H_    0.200099 0.714932 0.771444 0.104670
H16   H     H_    0.104650 0.920555 0.839889 0.114223
H17   H     H_    0.281412 0.023620 0.608971 0.124911
H18   H     H_    0.068909 0.613024 0.816001 0.105053
H19   H     H_    0.145182 0.695024 0.563921 0.133049
H20   H     H_    0.556871 0.573796 0.897695 0.150703
H21   H     H_    0.799007 0.301598 0.224499 0.106741
H22   H     H_    0.779509 0.948303 0.678296 0.126359
H23   H     H_    0.900351 0.440696 0.178567 0.104883
H24   H     H_    0.519971 0.808949 0.787198 0.119884
H25   H     H_    0.727592 0.692670 0.695823 0.104662
H26   H     H_    0.510180 0.648175 0.632459 0.110278
H27   H     H_    0.583701 0.404823 0.185411 0.108682
H28   H     H_    0.772353 0.008338 0.613743 0.127076
H29   H     H_    0.681864 0.509352 0.319559 0.141471
H30   H     H_    0.698705 0.534679 0.248126 0.111926
H31   H     H_    0.851555 0.263921 0.422867 0.223826
H32   H     H_    0.882691 0.381957 0.449367 0.221183
H33   H     H_    0.257006 0.032168 0.401518 0.125307
H34   H     H_    0.184689 0.730141 0.102473 0.123200
H35   H     H_    0.851596 0.972346 0.196433 0.119489
H36   H     H_    0.904879 0.055419 0.347950 0.218471
H37   H     H_    0.831195 0.053625 0.308044 0.222864
H38   H     H_    0.397658 0.721917 0.366357 0.224073
H39   H     H_    0.451685 0.645730 0.374238 0.220785
H40   H     H_    0.501589 0.611349 0.102972 0.226012
H41   H     H_    0.463762 0.700303 0.095688 0.217966
H42   H     H_    0.854694 0.382831 0.370992 0.106517
H43   H     H_    0.901610 0.331718 0.847158 0.220440
H44   H     H_    0.884653 0.393271 0.811221 0.226561
H45   H     H_    0.234001 0.767689 0.175871 0.105252
H46   H     H_    0.790825 0.269079 0.692187 0.120223
H47   H     H_    0.517883 0.318627 0.696457 0.111073
H48   H     H_    0.166195 0.995344 0.917225 0.221777
H49   H     H_    0.032897 0.948629 0.909536 0.230903
H50   H     H_    0.045749 0.520943 0.867759 0.208367
H51   H     H_    0.121400 0.596655 0.910189 0.235336
H52   H     H_    0.780776 0.275368 0.295855 0.103577
H53   H     H_    0.295581 0.797162 0.686225 0.230618
H54   H     H_    0.269339 0.697269 0.711075 0.220829
H55   H     H_    0.917271 0.793727 0.676948 0.217760
H56   H     H_    0.180096 0.718652 0.301851 0.106361
H57   H     H_    0.925581 0.871649 0.720018 0.222261
H58   H     H_    0.974176 0.828452 0.777618 0.099735
H59   H     H_    0.243415 0.075796 0.672083 0.217695
H60   H     H_    0.258471 0.004693 0.704185 0.224804
H61   H     H_    0.766959 0.905488 0.912244 0.130506
H62   H     H_    0.463638 0.803459 0.688121 0.229375
H63   H     H_    0.479811 0.873216 0.734305 0.221416
H64   H     H_    0.540111 0.526342 0.797244 0.264638
H65   H     H_    0.439702 0.554719 0.805128 0.225828
H66   H     H_    0.793078 0.709495 0.794059 0.230460
H67   H     H_    0.222856 0.723284 0.373946 0.123146
H68   H     H_    0.771292 0.631817 0.749367 0.230369
H69   H     H_    0.502006 0.706813 0.567828 0.127233
H70   H     H_    0.786401 0.990412 0.857720 0.227379
H71   H     H_    0.803531 0.921270 0.816970 0.227216
H72   H     H_    0.442467 0.302635 0.349806 0.219671
H73   H     H_    0.498597 0.269002 0.310652 0.235283
H74   H     H_    0.095923 0.971101 0.191278 0.109522
H75   H     H_    0.046698 0.934704 0.117731 0.122258
N1    N     N_3   0.820381 0.305996 0.440197 -0.604818
N2    N     N_3   0.205089 0.003682 0.682220 -0.590839
N3    N     N_3   0.520922 0.854693 0.711678 -0.616777
N4    N     N_3   0.499076 0.545628 0.819626 -0.644562
N5    N     N_3   0.732975 0.653192 0.772369 -0.638472
N6    N     N_3   0.745633 0.926010 0.834745 -0.622208
N7    N     N_3   0.514526 0.325076 0.336349 -0.641528
N8    N     N_3   0.848421 0.006152 0.323795 -0.625105
N9    N     N_3   0.460272 0.720280 0.382069 -0.595696
N10   N     N_3   0.526641 0.683290 0.093355 -0.612906
N11   N     N_3   0.845379 0.328050 0.825780 -0.622447
N12   N     N_3   0.091385 0.931457 0.919344 -0.608871
N13   N     N_3   0.051371 0.575827 0.892388 -0.608237
N14   N     N_3   0.234001 0.727223 0.693059 -0.644970
N15   N     N_3   0.971263 0.854203 0.699219 -0.594559
O1    O     O_R   0.318160 0.824460 0.443680 -0.508191
O2    O     O_R   0.668160 0.499860 0.053480 -0.515061
O3    O     O_R   0.689170 0.693840 0.050110 -0.459006
O4    O     O_R   0.525040 0.857250 0.449830 -0.454519
O5    O     O_R   0.803860 0.812940 0.962540 -0.511594
O6    O     O_R   0.982950 0.787950 0.964120 -0.463876
O7    O     O_R   0.007050 0.649970 0.960540 -0.493896
O8    O     O_R   0.807910 0.482370 0.965590 -0.495391
O9    O     O_R   0.643310 0.460980 0.963840 -0.519592
O10   O     O_R   0.666140 0.657800 0.967020 -0.500382
O11   O     O_3   0.830520 0.660760 0.007110 -0.250539
O12   O     O_R   0.645130 0.163230 0.552140 -0.499744
O13   O     O_R   0.684760 0.998800 0.456360 -0.527467
O14   O     O_R   0.647540 0.166310 0.470260 -0.454721
O15   O     O_R   0.500960 0.181750 0.467450 -0.533890
O16   O     O_R   0.331100 0.981120 0.457080 -0.505205
O17   O     O_R   0.315560 0.821140 0.532010 -0.513561
O18   O     O_R   0.522630 0.854180 0.531710 -0.500603
O19   O     O_R   0.682160 0.995480 0.544690 -0.519536
O20   O     O_R   0.498360 0.178430 0.555780 -0.520275
O21   O     O_R   0.328690 0.978040 0.538950 -0.502268
O22   O     O_3   0.499990 0.999990 0.500010 -0.247045
O23   O     O_R   0.828710 0.851830 0.052170 -0.533199
O24   O     O_R   0.005980 0.823990 0.047210 -0.501501
O25   O     O_R   0.031900 0.688850 0.050170 -0.520709
O26   O     O_R   0.830940 0.518420 0.048680 -0.503541

loop_
_geom_bond_atom_site_label_1
_geom_bond_atom_site_label_2
_ccdc_geom_bond_type
C24   H12   S    
C108  H61   S    
C19   H30   S    
Cr4   O24   S    
H31   N1    S    
C73   C74   A    
H37   N8    S    
C105  C106  A    
C26   H42   S    
C19   C20   A    
C12   O10   A    
C8    C105  S    
C81   C82   A    
C90   C91   A    
H66   N5    S    
C30   H33   S    
C77   C78   T    
Cr6   O3    S    
C25   C28   A    
C73   H13   S    
C98   O6    A    
C29   C36   A    
C26   C27   A    
C37   C38   A    
C98   O7    A    
Cr3   O15   S    
C71   O17   A    
C5    C6    A    
C88   H15   S    
C22   C24   A    
H72   N7    S    
C18   H29   S    
C103  H20   S    
C12   O5    A    
C72   C79   A    
C25   N1    S    
C85   H18   S    
C30   C31   A    
C39   H75   S    
C9    H26   S    
C1    C46   S    
H62   N3    S    
C74   H11   S    
C15   H21   S    
C69   H9    S    
C58   C60   S    
C15   C16   A    
C55   C62   A    
C46   C52   A    
H57   N15   S    
C56   C57   A    
C17   C18   A    
C18   C19   A    
C41   C42   S    
Cr4   O11   S    
C6    H25   S    
Cr2   O13   S    
C1    O4    A    
Cr6   O10   S    
C94   N2    S    
C31   H3    S    
C38   C45   A    
C80   C86   A    
C2    C79   S    
C51   N8    S    
C13   C14   A    
C35   O1    A    
H49   N12   S    
C63   C69   A    
C95   H1    S    
C16   C17   A    
H44   N11   S    
C104  N4    S    
C31   C33   A    
C102  C108  A    
H68   N5    S    
C97   H19   S    
C107  H27   S    
C103  C104  A    
C9    C10   A    
C86   N13   S    
H36   N8    S    
C91   N15   S    
C34   H56   S    
H60   N2    S    
C39   C45   A    
C56   N10   S    
C72   H8    S    
C66   C67   A    
C5    C43   S    
C23   O14   A    
C49   H7    S    
H63   N3    S    
C96   C101  A    
C35   O16   A    
C53   H35   S    
C10   H69   S    
C71   O21   A    
Cr6   O9    S    
C22   N7    S    
C67   C78   S    
C42   C44   T    
C14   C83   A    
H71   N6    S    
C4    N3    S    
Cr2   O14   S    
Cr2   O19   S    
C76   C83   S    
C90   C100  S    
C104  C105  A    
C97   C99   A    
C76   O2    A    
C50   C51   A    
C23   O15   A    
C53   C55   A    
C15   C20   A    
H64   N4    S    
C46   C48   A    
C9    C43   A    
H73   N7    S    
C74   C75   A    
H48   N12   S    
H38   N9    S    
C67   C68   A    
Cr3   O21   S    
Cr1   O1    S    
Cr5   O26   S    
C84   C85   A    
Cr5   O7    S    
C3    C8    A    
Cr2   O22   S    
C16   H52   S    
C91   C92   A    
C32   H22   S    
C59   O12   A    
C68   C69   A    
C81   N12   S    
H39   N9    S    
Cr3   O20   S    
C25   C26   A    
C85   C86   A    
C57   H6    S    
H53   N14   S    
H59   N2    S    
Cr6   O2    S    
C65   O24   A    
C48   N9    S    
C60   C61   T    
C17   C27   S    
Cr1   O4    S    
Cr2   O12   S    
H51   N13   S    
C12   C102  S    
C29   C30   A    
C71   C101  S    
C99   C100  A    
C94   C100  A    
Cr1   O22   S    
C83   C95   A    
C33   C34   A    
C73   C79   A    
C13   C21   A    
C3    H24   S    
C23   C28   S    
C88   C89   A    
C7    N5    S    
C94   C96   A    
C75   C77   S    
C87   O3    A    
C21   C107  A    
C11   C54   A    
C95   C107  A    
C96   H17   S    
C40   C41   A    
C89   N14   S    
C47   O18   A    
C11   C32   A    
C82   C84   A    
C22   C27   A    
C47   C54   S    
C45   C65   S    
H50   N13   S    
C56   C62   A    
C59   C63   S    
C82   H16   S    
Cr3   O16   S    
Cr5   O11   S    
C3    C4    A    
C39   C40   A    
Cr1   O17   S    
H65   N4    S    
C47   O19   A    
C88   C93   A    
C48   C49   A    
C70   N11   S    
C80   C98   S    
C11   H28   S    
C33   C44   S    
C2    O8    A    
Cr6   O11   S    
C24   C28   A    
Cr5   O8    S    
C80   C81   A    
C1    O13   A    
C53   C58   A    
Cr5   O25   S    
C6    C7    A    
C40   H74   S    
H70   N6    S    
C62   C87   S    
C29   C35   S    
C87   O23   A    
H54   N14   S    
C65   O25   A    
H43   N11   S    
Cr4   O5    S    
C37   H45   S    
C13   H23   S    
C106  N6    S    
C51   C52   A    
C64   C66   A    
C64   H10   S    
H55   N15   S    
C76   O26   A    
H40   N10   S    
C57   C58   A    
Cr3   O22   S    
C106  C108  A    
C92   H58   S    
C14   H2    S    
C92   C93   A    
C32   C43   A    
C99   H14   S    
C34   C36   A    
C84   C93   S    
C37   C41   A    
C102  C103  A    
C10   C54   A    
H41   N10   S    
C7    C8    A    
C59   O20   A    
C38   H34   S    
C63   C64   A    
C52   H5    S    
C4    C5    A    
C20   C21   S    
C66   H47   S    
C2    O9    A    
C49   C50   A    
C70   C75   A    
Cr4   O23   S    
C50   C61   S    
H32   N1    S    
C70   C72   A    
C36   H67   S    
C89   C90   A    
C68   H46   S    
C97   C101  A    
Cr1   O18   S    
Cr4   O6    S    
C55   H4    S    
