data_mof_unit_35089.cif
_audit_creation_date              2012-10-26T20:00:41-0400
_audit_creation_method            fapswitch 2.2
_symmetry_space_group_name_H-M    P1
_symmetry_Int_Tables_number       1
_space_group_crystal_system       triclinic
_cell_length_a                    11.743319
_cell_length_b                    12.992351
_cell_length_c                    13.528431
_cell_angle_alpha                 93.340288
_cell_angle_beta                  76.822325
_cell_angle_gamma                 100.082727
_cell_volume                      1978.32502587

loop_
_atom_site_label
_atom_site_type_symbol
_atom_type_description
_atom_site_fract_x
_atom_site_fract_y
_atom_site_fract_z
_atom_type_partial_charge
C1    C     C_R   0.521312 0.700788 0.501269 0.547677
C2    C     C_R   0.401528 0.510962 0.807348 -0.001253
C3    C     C_R   0.466228 0.186031 0.504030 -0.002524
C4    C     C_R   0.437934 0.503683 0.695546 0.528764
C5    C     C_R   0.535070 0.814461 0.500935 -0.019144
C6    C     C_R   0.662746 0.984462 0.480880 0.046867
C7    C     C_R   0.648388 0.875415 0.482629 -0.121622
C8    C     C_R   0.434507 0.862134 0.519322 -0.116408
C9    C     C_R   0.446012 0.970144 0.516895 0.023653
C10   C     C_R   0.560433 0.032377 0.495203 0.029018
C11   C     C_R   0.568532 0.140063 0.485638 -0.087602
C12   C     C_R   0.450695 0.521289 0.974976 0.062666
C13   C     C_R   0.354094 0.124188 0.530517 -0.121907
C14   C     C_R   0.343920 0.016480 0.535257 -0.110010
C15   C     C_R   0.948366 0.611702 0.584258 0.049752
C16   C     C_R   0.478688 0.299303 0.499704 0.564058
C17   C     C_R   0.830457 0.599571 0.573849 0.025035
C18   C     C_R   0.852577 0.449834 0.468840 0.069164
C19   C     C_R   0.974537 0.461348 0.470343 -0.073458
C20   C     C_R   0.024163 0.542733 0.529539 0.001233
C21   C     C_R   0.146879 0.552299 0.531465 0.363240
C22   C     C_R   0.165384 0.400727 0.425026 0.191069
C23   C     C_R   0.485202 0.541363 0.869546 0.022175
C24   C     C_R   0.046932 0.391928 0.415886 0.161665
C25   C     C_R   0.563118 0.506221 0.304083 0.598550
C26   C     C_R   0.747418 0.543671 0.034627 -0.129863
C27   C     C_R   0.598038 0.516578 0.192186 0.005882
C28   C     C_R   0.282271 0.475255 0.853019 -0.119162
C29   C     C_R   0.247725 0.459189 0.956712 -0.120181
C30   C     C_R   0.331374 0.477445 0.016341 -0.069715
C31   C     C_2   0.808436 0.480948 0.179697 0.590756
C32   C     C_2   0.784993 0.044590 0.467406 0.587718
C33   C     C_2   0.230458 0.318534 0.372319 0.676810
C34   C     C_R   0.539316 0.536448 0.033261 0.069984
C35   C     C_2   0.983703 0.693295 0.657483 0.597189
C36   C     C_R   0.660035 0.555378 0.983243 -0.011855
C37   C     C_R   0.691257 0.587456 0.882929 -0.119739
C38   C     C_R   0.603545 0.588244 0.829554 -0.101667
C39   C     C_R   0.511851 0.535367 0.139518 0.213113
C40   C     C_R   0.715947 0.514137 0.136370 0.017466
Cu1   Cu    Cu3+1 0.386470 0.492430 0.492410 1.024690
Cu2   Cu    Cu3+1 0.613530 0.507570 0.507590 0.992419
H1    H     H_    0.274475 0.159061 0.548432 0.177759
H2    H     H_    0.301558 0.450877 0.093130 0.148967
H3    H     H_    0.156608 0.426528 0.990224 0.149279
H4    H     H_    0.630429 0.624174 0.756450 0.138348
H5    H     H_    0.654022 0.188946 0.462016 0.179278
H6    H     H_    0.979513 0.505990 0.190974 0.333644
H7    H     H_    0.894912 0.166864 0.511780 0.381419
H8    H     H_    0.240098 0.610301 0.625801 0.364887
H9    H     H_    0.238646 0.164461 0.358814 0.346364
H10   H     H_    0.043352 0.727961 0.785982 0.347365
H11   H     H_    0.956137 0.342756 0.314662 0.341355
H12   H     H_    0.256298 0.969443 0.553916 0.159484
H13   H     H_    0.354416 0.521770 0.224336 0.357007
H14   H     H_    0.726141 0.837959 0.470593 0.172311
H15   H     H_    0.346776 0.815188 0.535215 0.186394
H16   H     H_    0.774161 0.653929 0.611931 0.130659
H17   H     H_    0.783214 0.613352 0.846209 0.150580
H18   H     H_    0.810680 0.385975 0.427914 0.177875
H19   H     H_    0.839220 0.551103 0.993512 0.166871
H20   H     H_    0.216315 0.453597 0.807780 0.152358
N1    N     N_R   0.215880 0.481050 0.481000 -0.299055
N2    N     N_R   0.784100 0.518950 0.519000 -0.255387
O1    O     O_R   0.419710 0.645650 0.494620 -0.475446
O2    O     O_R   0.923905 0.537198 0.158486 -0.688321
O3    O     O_2   0.866661 0.013241 0.406877 -0.457261
O4    O     O_R   0.808002 0.134069 0.527076 -0.692634
O5    O     O_3   0.196925 0.636977 0.581159 -0.663440
O6    O     O_2   0.310053 0.338423 0.297129 -0.534206
O7    O     O_R   0.191100 0.215011 0.402771 -0.665479
O8    O     O_2   0.972066 0.783686 0.648129 -0.504409
O9    O     O_R   0.024011 0.665771 0.740316 -0.693484
O10   O     O_3   0.004995 0.313662 0.353167 -0.664883
O11   O     O_3   0.414507 0.578593 0.189137 -0.672472
O12   O     O_R   0.611450 0.658430 0.507430 -0.524667
O13   O     O_R   0.357340 0.490460 0.641450 -0.537928
O14   O     O_R   0.549080 0.503250 0.654260 -0.508625
O15   O     O_R   0.388550 0.341570 0.492570 -0.495426
O16   O     O_R   0.580290 0.354350 0.505380 -0.502227
O17   O     O_R   0.450920 0.496750 0.345740 -0.460501
O18   O     O_R   0.642660 0.509540 0.358550 -0.472215
O19   O     O_2   0.785287 0.401567 0.229718 -0.528640

loop_
_geom_bond_atom_site_label_1
_geom_bond_atom_site_label_2
_ccdc_geom_bond_type
C31   O2    S    
C6    C32   S    
Cu2   O16   S    
H7    O4    S    
Cu1   Cu2   S    
C11   H5    S    
H11   O10   S    
Cu2   O18   S    
C18   N2    A    
C12   C23   A    
C29   C30   A    
C1    C5    S    
C36   C37   A    
H8    O5    S    
C17   N2    A    
Cu1   O13   S    
C31   O19   D    
C31   C40   S    
C18   C19   A    
C22   N1    A    
C35   O9    S    
C19   C20   A    
C27   C39   A    
C8    C9    A    
C1    O1    A    
C26   C40   A    
C39   O11   S    
C9    C10   A    
C3    C13   A    
C17   H16   S    
C32   O4    S    
H13   O11   S    
C13   C14   A    
C25   O17   A    
C30   H2    S    
H9    O7    S    
C7    H14   S    
C15   C35   S    
C15   C20   A    
C21   N1    A    
C34   C39   A    
H10   O9    S    
C10   C11   A    
C5    C7    A    
Cu1   O1    S    
C21   O5    S    
C16   O16   A    
C2    C4    S    
C9    C14   A    
C4    O14   A    
C37   C38   A    
C8    H15   S    
C27   C40   A    
Cu1   O17   S    
C37   H17   S    
C33   O6    D    
C32   O3    D    
C18   H18   S    
C14   H12   S    
C35   O8    D    
Cu2   O14   S    
C25   O18   A    
C22   C24   A    
Cu1   N1    S    
C12   C34   A    
Cu2   N2    S    
C13   H1    S    
C26   C36   A    
C15   C17   A    
C22   C33   S    
C28   C29   A    
C12   C30   A    
C1    O12   A    
C26   H19   S    
Cu1   O15   S    
C5    C8    A    
C6    C7    A    
C25   C27   S    
C23   C38   A    
Cu2   O12   S    
C16   O15   A    
C19   C24   A    
C4    O13   A    
C24   O10   S    
C34   C36   A    
C38   H4    S    
C3    C11   A    
C6    C10   A    
C33   O7    S    
C20   C21   A    
C29   H3    S    
C2    C23   A    
C2    C28   A    
H6    O2    S    
C3    C16   S    
C28   H20   S    
