data_mof_unit_23703.cif
_audit_creation_date              2012-12-10T17:15:08-0500
_audit_creation_method            fapswitch 2.2
_symmetry_space_group_name_H-M    P1
_symmetry_Int_Tables_number       1
_space_group_crystal_system       triclinic
_cell_length_a                    10.162176
_cell_length_b                    10.605233
_cell_length_c                    12.819192
_cell_angle_alpha                 92.095304
_cell_angle_beta                  91.264285
_cell_angle_gamma                 93.225022
_cell_volume                      1378.03998519

loop_
_atom_site_label
_atom_site_type_symbol
_atom_type_description
_atom_site_fract_x
_atom_site_fract_y
_atom_site_fract_z
_atom_type_partial_charge
C1    C     C_R   0.449064 0.266264 0.485818 0.977659
C2    C     C_R   0.638346 0.607059 0.046061 -0.088294
C3    C     C_R   0.369863 0.394868 0.842442 0.306330
C4    C     C_R   0.635586 0.589386 0.153040 0.354523
C5    C     C_R   0.522109 0.578760 0.876170 -0.112845
C6    C     C_R   0.464936 0.418176 0.125094 -0.230495
C7    C     C_R   0.538255 0.545223 0.980317 0.006074
C8    C     C_R   0.453788 0.445615 0.018813 0.009216
C9    C     C_2   0.430062 0.131935 0.459884 -0.276807
C10   C     C_2   0.581365 0.866536 0.484629 -0.321190
C11   C     C_2   0.527567 0.065870 0.417991 -0.107272
C12   C     C_R   0.553568 0.733333 0.500636 0.982672
C13   C     C_2   0.511062 0.929215 0.414564 -0.101503
C14   C     C_2   0.412664 0.295494 0.165575 0.960492
C15   C     C_2   0.559702 0.708995 0.842441 0.910393
C16   C     C_2   0.249553 0.296430 0.985638 0.999788
C17   C     C_2   0.753014 0.679950 0.003369 1.000198
C18   C     C_2   0.422271 0.869569 0.330477 1.033059
C19   C     C_2   0.651274 0.121909 0.373787 1.030430
C20   C     C_2   0.867147 0.337132 0.593796 1.047127
C21   C     C_2   0.129759 0.632266 0.376404 1.039407
C22   C     C_2   0.072645 0.506021 0.518155 -0.074685
C23   C     C_2   0.928158 0.518818 0.499450 -0.117201
C24   C     C_R   0.473297 0.502196 0.698037 0.993078
C25   C     C_R   0.526056 0.495466 0.301614 0.995154
C26   C     C_R   0.545045 0.499107 0.191415 -0.159755
C27   C     C_R   0.452239 0.493685 0.807251 -0.208714
C28   C     C_R   0.361626 0.377431 0.949353 -0.087624
Cl1   Cl    Cl    0.747523 0.678709 0.239252 -0.526474
Cl2   Cl    Cl    0.273368 0.295243 0.752236 -0.555388
H1    H     H_    0.654692 0.916947 0.535997 0.180508
H2    H     H_    0.738812 0.258324 0.289602 0.358917
H3    H     H_    0.971052 0.180448 0.597463 0.374451
H4    H     H_    0.052479 0.795154 0.335762 0.382331
H5    H     H_    0.337880 0.083759 0.481383 0.200401
H6    H     H_    0.895157 0.592340 0.450508 0.222254
H7    H     H_    0.105077 0.452388 0.583354 0.214507
H8    H     H_    0.255107 0.368934 0.233368 0.361212
H9    H     H_    0.650481 0.820533 0.738571 0.347393
H10   H     H_    0.077877 0.287333 0.061577 0.372863
H11   H     H_    0.865192 0.843088 0.004440 0.368304
H12   H     H_    0.264945 0.886330 0.234151 0.374625
N1    N     N_2   0.162330 0.550370 0.457540 -0.179790
N2    N     N_2   0.837670 0.449630 0.542460 -0.177628
O1    O     O_R   0.567930 0.307680 0.508550 -0.622396
O2    O     O_R   0.301686 0.287190 0.227987 -0.728506
O3    O     O_2   0.527756 0.800207 0.895244 -0.544920
O4    O     O_R   0.631494 0.727748 0.752037 -0.777571
O5    O     O_2   0.243822 0.182565 0.965692 -0.507218
O6    O     O_R   0.149479 0.351599 0.041198 -0.763293
O7    O     O_2   0.817853 0.631505 0.935039 -0.574953
O8    O     O_R   0.785736 0.803751 0.040137 -0.686744
O9    O     O_2   0.445734 0.767668 0.289915 -0.591194
O10   O     O_R   0.316209 0.934746 0.292979 -0.742019
O11   O     O_2   0.753987 0.067918 0.382446 -0.565731
O12   O     O_R   0.432070 0.692320 0.491450 -0.623714
O13   O     O_R   0.649192 0.231694 0.317335 -0.786333
O14   O     O_2   0.801763 0.304981 0.668131 -0.566955
O15   O     O_R   0.962412 0.258520 0.555047 -0.786293
O16   O     O_2   0.161386 0.607200 0.286976 -0.578793
O17   O     O_R   0.069045 0.744679 0.399932 -0.788408
O18   O     O_R   0.351090 0.340020 0.481290 -0.569091
O19   O     O_R   0.648910 0.659980 0.518710 -0.572028
O20   O     O_R   0.590490 0.486480 0.665020 -0.543520
O21   O     O_R   0.409510 0.513520 0.334980 -0.592358
O22   O     O_R   0.373660 0.518820 0.637760 -0.609932
O23   O     O_R   0.626340 0.481180 0.362240 -0.589804
O24   O     O_2   0.467237 0.199170 0.142179 -0.485781
Zn1   Zn    Zn3+2 0.644780 0.478400 0.518200 1.067137
Zn2   Zn    Zn3+2 0.355220 0.521600 0.481800 1.052719

loop_
_geom_bond_atom_site_label_1
_geom_bond_atom_site_label_2
_ccdc_geom_bond_type
C16   C28   S    
C3    Cl2   S    
C2    C4    A    
C5    C7    A    
C2    C17   S    
C24   O22   A    
C6    C14   S    
C11   C13   S    
H9    O4    S    
H11   O8    S    
C4    C26   A    
C22   N1    D    
C25   O23   A    
C24   C27   S    
C15   O3    D    
C1    O1    A    
C1    O18   A    
C17   O7    D    
C3    C27   A    
H2    O13   S    
N2    Zn1   S    
H3    O15   S    
O22   Zn2   S    
O20   Zn1   S    
H12   O10   S    
C20   O15   S    
C9    C11   D    
C5    C27   A    
C11   C19   S    
C6    C26   A    
C10   C12   S    
C13   C18   S    
H10   O6    S    
C15   O4    S    
C17   O8    S    
C3    C28   A    
C20   N2    S    
C16   O6    S    
N1    Zn2   S    
O12   Zn2   S    
C8    C28   A    
C5    C15   S    
H8    O2    S    
C18   O10   S    
O1    Zn1   S    
O21   Zn2   S    
C1    C9    S    
O19   Zn1   S    
C7    C8    A    
C25   O21   A    
C16   O5    D    
O18   Zn2   S    
C21   O16   D    
C24   O20   A    
C23   H6    S    
C19   O11   D    
C21   O17   S    
C9    H5    S    
C12   O19   A    
C14   O24   D    
C22   C23   S    
C12   O12   A    
C6    C8    A    
C18   O9    D    
O23   Zn1   S    
C25   C26   S    
C21   N1    S    
C22   H7    S    
C20   O14   D    
C10   H1    S    
H4    O17   S    
C19   O13   S    
C23   N2    D    
C2    C7    A    
C4    Cl1   S    
C14   O2    S    
C10   C13   D    
