data_mof_unit_34275.cif
_audit_creation_date              2012-12-10T17:48:49-0500
_audit_creation_method            fapswitch 2.2
_symmetry_space_group_name_H-M    P1
_symmetry_Int_Tables_number       1
_space_group_crystal_system       triclinic
_cell_length_a                    15.714487
_cell_length_b                    10.650594
_cell_length_c                    9.926554
_cell_angle_alpha                 89.909182
_cell_angle_beta                  90.805994
_cell_angle_gamma                 91.538924
_cell_volume                      1660.62887344

loop_
_atom_site_label
_atom_site_type_symbol
_atom_type_description
_atom_site_fract_x
_atom_site_fract_y
_atom_site_fract_z
_atom_type_partial_charge
C1    C     C_R   0.507169 0.261161 0.500563 0.954811
C2    C     C_R   0.709906 0.058835 0.716451 -0.373455
C3    C     C_R   0.705568 0.927769 0.716364 0.465732
C4    C     C_R   0.338449 0.499711 0.499188 0.885311
C5    C     C_R   0.641649 0.866430 0.641965 -0.220674
C6    C     C_R   0.577986 0.933799 0.572932 -0.063553
C7    C     C_R   0.581163 0.066114 0.573779 0.049460
C8    C     C_R   0.515826 0.128642 0.500890 -0.066600
C9    C     C_R   0.453692 0.063552 0.425892 -0.246445
C10   C     C_R   0.451704 0.935677 0.424729 -0.193745
C11   C     C_R   0.511631 0.871737 0.499848 -0.037006
C12   C     C_3   0.949684 0.389564 0.581994 -0.024395
C13   C     C_R   0.385452 0.338840 0.137078 -0.188912
C14   C     C_R   0.328200 0.260160 0.065045 0.124393
C15   C     C_R   0.330463 0.259622 0.925171 -0.240098
C16   C     C_R   0.502737 0.739392 0.499961 0.849561
C17   C     C_R   0.387744 0.337399 0.857474 -0.174005
C18   C     C_R   0.444392 0.420040 0.926580 0.172150
C19   C     C_R   0.443880 0.420411 0.071015 0.138498
C20   C     C_R   0.553486 0.576100 0.072505 -0.099770
C21   C     C_R   0.553382 0.576198 0.929494 -0.102693
C22   C     C_R   0.661574 0.503626 0.500818 0.959312
C23   C     C_3   0.917814 0.513442 0.512518 0.232266
C24   C     C_3   0.048393 0.385768 0.571794 -0.416494
C25   C     C_3   0.045854 0.516613 0.359092 -0.440867
C26   C     C_3   0.948082 0.510758 0.363719 -0.512633
C27   C     C_1   0.750524 0.508868 0.503768 -0.167410
C28   C     C_3   0.083002 0.506950 0.503421 0.250483
C29   C     C_3   0.911539 0.358721 0.724379 -0.354448
C30   C     C_3   0.970501 0.377458 0.848679 -0.299446
C31   C     C_3   0.920316 0.372485 0.979257 -0.885862
C32   C     C_3   0.931025 0.759380 0.515043 -0.441830
C33   C     C_3   0.956242 0.878076 0.596626 -0.283450
C34   C     C_3   0.957211 0.634073 0.585846 0.528446
C35   C     C_3   0.927499 0.996823 0.524824 -0.923993
C36   C     C_3   0.265014 0.175263 0.136711 -0.421538
C37   C     C_3   0.189460 0.248888 0.187583 -0.340634
C38   C     C_3   0.123808 0.161279 0.253914 -0.913247
C39   C     C_3   0.056293 0.622815 0.585411 -0.361272
C40   C     C_1   0.825907 0.512438 0.508044 -0.163824
C41   C     C_1   0.174334 0.503897 0.498625 -0.094406
C42   C     C_1   0.249607 0.501569 0.497569 -0.193479
C43   C     C_R   0.649956 0.128852 0.643650 0.405966
H1    H     H_    0.924714 0.311099 0.516992 0.133154
H2    H     H_    0.287355 0.198733 0.867452 0.143381
H3    H     H_    0.385475 0.329665 0.750797 0.206348
H4    H     H_    0.597000 0.638589 0.876695 0.161219
H5    H     H_    0.067483 0.606533 0.311719 0.183570
H6    H     H_    0.068551 0.439244 0.295055 0.189964
H7    H     H_    0.924425 0.422818 0.313588 0.196853
H8    H     H_    0.921494 0.589018 0.303556 0.190397
H9    H     H_    0.081535 0.615334 0.690407 0.180272
H10   H     H_    0.087890 0.707910 0.541664 0.131703
H11   H     H_    0.875301 0.451042 0.982720 0.278325
H12   H     H_    0.081448 0.374485 0.669899 0.163987
H13   H     H_    0.884207 0.281731 0.987308 0.255798
H14   H     H_    0.965007 0.381237 0.066604 0.244588
H15   H     H_    0.017235 0.300977 0.852979 0.195197
H16   H     H_    0.005782 0.468823 0.844198 0.265464
H17   H     H_    0.853025 0.412610 0.739597 0.225725
H18   H     H_    0.889758 0.258470 0.724779 0.160832
H19   H     H_    0.957384 0.005042 0.424323 0.265703
H20   H     H_    0.857114 0.995219 0.512382 0.276930
H21   H     H_    0.947124 0.080344 0.585565 0.241570
H22   H     H_    0.926674 0.874286 0.697374 0.262705
H23   H     H_    0.404758 0.112558 0.371148 0.134960
H24   H     H_    0.026287 0.885290 0.611795 0.206307
H25   H     H_    0.961049 0.767483 0.414659 0.182698
H26   H     H_    0.860891 0.758576 0.498686 0.206381
H27   H     H_    0.710624 0.284932 0.691328 0.326620
H28   H     H_    0.802887 0.913916 0.837676 0.329000
H29   H     H_    0.102050 0.086427 0.182598 0.265850
H30   H     H_    0.151678 0.117446 0.345467 0.261929
H31   H     H_    0.067495 0.214930 0.283351 0.243097
H32   H     H_    0.212076 0.320557 0.262054 0.225404
H33   H     H_    0.158431 0.297773 0.101636 0.223803
H34   H     H_    0.761234 0.106690 0.771318 0.129046
H35   H     H_    0.240829 0.100112 0.067273 0.202984
H36   H     H_    0.296823 0.127568 0.222068 0.188857
H37   H     H_    0.868368 0.649992 0.721328 0.361339
H38   H     H_    0.643262 0.765157 0.638914 0.169920
H39   H     H_    0.401576 0.886221 0.368368 0.149002
H40   H     H_    0.597197 0.638397 0.126939 0.151812
H41   H     H_    0.065749 0.302652 0.511244 0.163151
H42   H     H_    0.382813 0.333002 0.244008 0.199561
N1    N     N_R   0.499210 0.498800 0.142780 -0.117663
N2    N     N_R   0.499180 0.498720 0.857170 -0.117348
O1    O     O_R   0.500000 0.316780 0.614690 -0.601883
O2    O     O_3   0.763412 0.856779 0.786657 -0.792936
O3    O     O_3   0.930646 0.636747 0.720891 -0.787864
O4    O     O_R   0.499990 0.316750 0.385360 -0.645653
O5    O     O_R   0.377150 0.500020 0.614720 -0.632000
O6    O     O_R   0.377140 0.499990 0.385380 -0.636567
O7    O     O_R   0.500010 0.683250 0.614640 -0.622862
O8    O     O_R   0.500000 0.683220 0.385310 -0.618088
O9    O     O_R   0.622860 0.500010 0.614620 -0.590025
O10   O     O_R   0.622850 0.499980 0.385280 -0.616873
O11   O     O_3   0.660166 0.257287 0.636842 -0.767100
Zn1   Zn    Zn3+2 0.500010 0.500020 0.653130 0.959550
Zn2   Zn    Zn3+2 0.499990 0.499980 0.346870 0.941701

loop_
_geom_bond_atom_site_label_1
_geom_bond_atom_site_label_2
_ccdc_geom_bond_type
C21   N2    A    
C12   C29   S    
C1    C8    S    
C41   C42   T    
C43   O11   S    
C19   N1    A    
C33   H22   S    
C7    C8    A    
C39   H10   S    
C24   H12   S    
C12   C23   S    
C29   C30   S    
C36   C37   S    
C26   H7    S    
C14   C36   S    
C30   C31   S    
C23   C40   S    
O9    Zn1   S    
C28   C41   S    
C18   C19   A    
C23   C26   S    
C9    H23   S    
C8    C9    A    
C20   N1    A    
C35   H21   S    
C7    C43   A    
C31   H13   S    
N1    Zn2   S    
C9    C10   A    
C2    C43   A    
C32   H25   S    
C1    O1    A    
C39   H9    S    
C37   H32   S    
C1    O4    A    
C22   O10   A    
C13   C14   A    
N2    Zn1   S    
C38   H29   S    
C13   C19   A    
C34   C39   S    
C17   H3    S    
C10   C11   A    
C6    C11   A    
O8    Zn2   S    
C28   C39   S    
C25   C26   S    
C10   H39   S    
C25   C28   S    
C32   C34   S    
C34   O3    S    
C37   C38   S    
C5    H38   S    
C11   C16   S    
H28   O2    S    
C29   H17   S    
C27   C40   T    
C23   C34   S    
C30   H16   S    
C17   C18   A    
O6    Zn2   S    
C6    C7    A    
C37   H33   S    
C22   C27   S    
O4    Zn2   S    
C15   H2    S    
O10   Zn2   S    
C33   H24   S    
C38   H31   S    
C15   C17   A    
C16   O8    A    
C22   O9    A    
C24   C28   S    
C3    C5    A    
C36   H36   S    
C32   H26   S    
C12   C24   S    
C16   O7    A    
C18   N2    A    
C3    O2    S    
C32   C33   S    
C31   H14   S    
C2    C3    A    
C24   H41   S    
C12   H1    S    
C2    H34   S    
C36   H35   S    
C26   H8    S    
C5    C6    A    
C4    C42   S    
O7    Zn1   S    
C30   H15   S    
C33   C35   S    
C35   H19   S    
C31   H11   S    
H37   O3    S    
C25   H6    S    
O1    Zn1   S    
C29   H18   S    
C4    O6    A    
C20   C21   A    
C20   H40   S    
C13   H42   S    
C14   C15   A    
C35   H20   S    
C21   H4    S    
C25   H5    S    
H27   O11   S    
O5    Zn1   S    
C4    O5    A    
C38   H30   S    
