data_mof_unit_9005.cif
_audit_creation_date              2012-12-10T17:38:58-0500
_audit_creation_method            fapswitch 2.2
_symmetry_space_group_name_H-M    P1
_symmetry_Int_Tables_number       1
_space_group_crystal_system       triclinic
_cell_length_a                    12.057441
_cell_length_b                    12.900712
_cell_length_c                    23.360908
_cell_angle_alpha                 90.5649
_cell_angle_beta                  86.001652
_cell_angle_gamma                 93.659311
_cell_volume                      3617.49095499

loop_
_atom_site_label
_atom_site_type_symbol
_atom_type_description
_atom_site_fract_x
_atom_site_fract_y
_atom_site_fract_z
_atom_type_partial_charge
C1    C     C_R   0.522222 0.700320 0.496850 0.865307
C2    C     C_R   0.415646 0.428892 0.303074 -0.338932
C3    C     C_R   0.387819 0.475451 0.764557 0.470609
C4    C     C_R   0.416152 0.419974 0.243530 0.458679
C5    C     C_R   0.486659 0.485582 0.792651 0.125648
C6    C     C_R   0.504307 0.468732 0.209438 0.128922
C7    C     C_R   0.462510 0.187547 0.499263 -0.157180
C8    C     C_R   0.535183 0.811774 0.490620 -0.166389
C9    C     C_R   0.647137 0.972456 0.477495 -0.298243
C10   C     C_R   0.348777 0.026655 0.503402 -0.316398
C11   C     C_R   0.639328 0.864666 0.476294 0.462055
C12   C     C_R   0.477395 0.299457 0.500573 0.871424
C13   C     C_R   0.356128 0.134679 0.505395 0.460457
C14   C     C_R   0.438686 0.866427 0.497788 -0.325777
C15   C     C_R   0.558626 0.132664 0.491090 -0.324538
C16   C     C_R   0.499541 0.499154 0.610737 0.907011
C17   C     C_R   0.500006 0.498312 0.389622 0.908335
C18   C     C_R   0.445673 0.972946 0.496276 0.128554
C19   C     C_R   0.550936 0.026228 0.488384 0.118675
C20   C     C_R   0.958639 0.434856 0.433161 0.360099
C21   C     C_R   0.041633 0.536940 0.573134 0.307608
C22   C     C_R   0.841088 0.436990 0.440836 0.392657
C23   C     C_R   0.590296 0.500670 0.761602 0.458829
C24   C     C_R   0.158235 0.546327 0.562666 0.390233
C25   C     C_R   0.855647 0.516023 0.532921 0.506672
C26   C     C_R   0.143052 0.496032 0.465797 0.506004
C27   C     C_R   0.973546 0.510059 0.527918 -0.338612
C28   C     C_R   0.025332 0.479678 0.475316 -0.322157
C29   C     C_R   0.531868 0.384771 0.117530 0.573947
C30   C     C_R   0.446847 0.562686 0.885277 0.551176
C31   C     C_R   0.461759 0.554208 0.123899 0.549025
C32   C     C_R   0.516431 0.393069 0.878554 0.572002
C33   C     C_R   0.455575 0.557324 0.064572 -0.027350
C34   C     C_R   0.592788 0.524044 0.234305 0.465637
C35   C     C_R   0.519032 0.388235 0.938137 -0.037627
C36   C     C_R   0.488986 0.471577 0.031375 -0.019840
C37   C     C_R   0.484894 0.473589 0.971454 -0.022958
C38   C     C_R   0.527217 0.384200 0.057919 -0.035681
C39   C     C_R   0.447482 0.561338 0.944962 -0.032970
C40   C     C_R   0.417354 0.643900 0.037842 -0.159390
C41   C     C_R   0.555981 0.301126 0.964977 -0.160777
C42   C     C_R   0.413348 0.645893 0.978500 -0.160132
C43   C     C_R   0.560107 0.299153 0.024390 -0.159604
C44   C     C_3   0.190373 0.610644 0.394717 0.155145
C45   C     C_R   0.595050 0.502724 0.701843 -0.326810
C46   C     C_3   0.206131 0.621586 0.329929 -0.821051
C47   C     C_3   0.818439 0.671094 0.574709 0.177148
C48   C     C_3   0.738493 0.722731 0.617647 -0.810638
C49   C     C_3   0.219487 0.691390 0.609865 0.143350
C50   C     C_3   0.313756 0.734607 0.644953 -0.785085
C51   C     C_3   0.772033 0.300228 0.386508 0.142688
C52   C     C_3   0.665351 0.266130 0.358433 -0.782464
C53   C     C_3   0.047789 0.293082 0.399900 0.106806
C54   C     C_3   0.093130 0.237571 0.346031 -0.331060
C55   C     C_3   0.134981 0.132394 0.360478 -0.918775
C56   C     C_R   0.589566 0.535335 0.293754 -0.315739
C57   C     C_3   0.982367 0.453951 0.655559 0.134461
C58   C     C_3   0.938584 0.469283 0.717631 -0.323807
C59   C     C_3   0.902599 0.365708 0.746394 -0.892197
C60   C     C_3   0.714449 0.612522 0.802949 0.060080
C61   C     C_3   0.803470 0.618548 0.846090 -0.795521
C62   C     C_3   0.775254 0.520865 0.202957 0.084821
C63   C     C_3   0.864371 0.567732 0.159867 -0.787584
C64   C     C_3   0.233255 0.367847 0.786914 0.078133
C65   C     C_3   0.141416 0.346749 0.834091 -0.789119
C66   C     C_3   0.237264 0.413386 0.218088 0.065966
C67   C     C_R   0.496379 0.494904 0.673299 -0.163793
C68   C     C_3   0.150472 0.349353 0.186412 -0.792789
C69   C     C_3   0.209210 0.182174 0.564389 0.133541
C70   C     C_3   0.101866 0.238288 0.566667 -0.871864
C71   C     C_3   0.743767 0.794179 0.403246 0.115335
C72   C     C_3   0.842552 0.728662 0.388740 -0.820337
C73   C     C_R   0.500512 0.488994 0.327886 -0.152241
C74   C     C_R   0.393007 0.482110 0.704917 -0.341209
H1    H     H_    0.390997 0.710497 0.062606 0.191840
H2    H     H_    0.357292 0.826621 0.505496 0.170990
H3    H     H_    0.727839 0.013663 0.469265 0.146662
H4    H     H_    0.267593 0.985040 0.507107 0.141183
H5    H     H_    0.259785 0.655879 0.414412 0.148868
H6    H     H_    0.110493 0.646131 0.408366 0.104204
H7    H     H_    0.137058 0.577658 0.309510 0.257313
H8    H     H_    0.205401 0.704718 0.318172 0.212026
H9    H     H_    0.287001 0.592665 0.313775 0.257825
H10   H     H_    0.802285 0.696362 0.531043 0.194151
H11   H     H_    0.904655 0.699425 0.583326 0.142691
H12   H     H_    0.582488 0.234621 0.940181 0.189703
H13   H     H_    0.755926 0.702048 0.661972 0.235324
H14   H     H_    0.749198 0.808416 0.612904 0.209915
H15   H     H_    0.651047 0.697257 0.610108 0.250455
H16   H     H_    0.139215 0.712697 0.631805 0.161394
H17   H     H_    0.229706 0.728827 0.566869 0.097750
H18   H     H_    0.395409 0.716319 0.623575 0.250631
H19   H     H_    0.311008 0.820271 0.648879 0.195994
H20   H     H_    0.305248 0.700175 0.688550 0.269226
H21   H     H_    0.775164 0.255360 0.426773 0.088618
H22   H     H_    0.841930 0.280597 0.355852 0.167989
H23   H     H_    0.384156 0.714027 0.959023 0.190986
H24   H     H_    0.662392 0.306986 0.316977 0.254348
H25   H     H_    0.662600 0.181097 0.350241 0.202584
H26   H     H_    0.591324 0.283915 0.386735 0.256252
H27   H     H_    0.980571 0.241783 0.422017 0.083833
H28   H     H_    0.116666 0.304957 0.428999 0.199829
H29   H     H_    0.026797 0.225955 0.315452 0.211107
H30   H     H_    0.163303 0.286181 0.325087 0.244200
H31   H     H_    0.203304 0.142570 0.389981 0.291456
H32   H     H_    0.167459 0.094208 0.320500 0.270109
H33   H     H_    0.066048 0.081391 0.380987 0.254875
H34   H     H_    0.589531 0.231142 0.043883 0.190943
H35   H     H_    0.063155 0.416386 0.655681 0.123025
H36   H     H_    0.921184 0.402030 0.633425 0.153619
H37   H     H_    0.004682 0.510222 0.741795 0.223672
H38   H     H_    0.866219 0.518262 0.718476 0.264038
H39   H     H_    0.830932 0.327519 0.725236 0.278759
H40   H     H_    0.876674 0.379103 0.792271 0.297041
H41   H     H_    0.972533 0.313498 0.743731 0.239303
H42   H     H_    0.641469 0.652464 0.822322 0.167172
H43   H     H_    0.747625 0.654506 0.763437 0.138871
H44   H     H_    0.879087 0.581674 0.828119 0.254192
H45   H     H_    0.675398 0.511436 0.678137 0.225395
H46   H     H_    0.826161 0.701060 0.856400 0.215080
H47   H     H_    0.771438 0.577875 0.886166 0.258466
H48   H     H_    0.760790 0.436834 0.192285 0.163037
H49   H     H_    0.806963 0.528871 0.246530 0.155874
H50   H     H_    0.881775 0.651374 0.169652 0.260896
H51   H     H_    0.942321 0.527028 0.162060 0.200622
H52   H     H_    0.835822 0.559573 0.115760 0.260367
H53   H     H_    0.291987 0.304511 0.787965 0.149842
H54   H     H_    0.194943 0.366218 0.744927 0.135042
H55   H     H_    0.080622 0.407921 0.834245 0.263199
H56   H     H_    0.655458 0.581438 0.313152 0.180314
H57   H     H_    0.097395 0.270008 0.826816 0.204835
H58   H     H_    0.177774 0.346319 0.876486 0.259096
H59   H     H_    0.253908 0.489430 0.195901 0.168484
H60   H     H_    0.202167 0.426716 0.262568 0.162667
H61   H     H_    0.132167 0.272757 0.207466 0.258940
H62   H     H_    0.072407 0.390653 0.187064 0.202239
H63   H     H_    0.181728 0.337098 0.141149 0.261378
H64   H     H_    0.265229 0.220465 0.595358 0.134323
H65   H     H_    0.187648 0.100271 0.577645 0.123864
H66   H     H_    0.044426 0.202044 0.535973 0.246531
H67   H     H_    0.316036 0.476608 0.683592 0.220951
H68   H     H_    0.060523 0.233651 0.610627 0.196678
H69   H     H_    0.120512 0.321017 0.555207 0.245879
H70   H     H_    0.758081 0.868871 0.379533 0.139941
H71   H     H_    0.667728 0.750935 0.388570 0.135598
H72   H     H_    0.829928 0.653373 0.411547 0.257704
H73   H     H_    0.850852 0.713394 0.341817 0.215537
H74   H     H_    0.920421 0.770023 0.401886 0.237502
H75   H     H_    0.349297 0.389375 0.329785 0.204211
H76   H     H_    0.640479 0.172404 0.486722 0.178625
N1    N     N_R   0.499539 0.468998 0.148799 -0.319367
N2    N     N_R   0.482181 0.479882 0.853632 -0.322829
N3    N     N_R   0.207800 0.519350 0.510590 -0.212228
N4    N     N_R   0.792200 0.480650 0.489410 -0.201541
O1    O     O_R   0.421690 0.658830 0.502820 -0.638668
O2    O     O_2   0.412858 0.646447 0.858821 -0.561503
O3    O     O_2   0.430247 0.635417 0.156693 -0.571324
O4    O     O_2   0.548235 0.312198 0.845606 -0.561602
O5    O     O_3   0.189646 0.504555 0.410260 -0.556107
O6    O     O_3   0.803934 0.561936 0.580437 -0.569547
O7    O     O_3   0.222699 0.582249 0.605978 -0.571098
O8    O     O_3   0.775744 0.408663 0.396084 -0.563425
O9    O     O_3   0.006844 0.388976 0.384416 -0.605662
O10   O     O_3   0.996572 0.551635 0.628397 -0.612292
O11   O     O_3   0.687202 0.507225 0.789974 -0.599189
O12   O     O_R   0.578310 0.341170 0.497180 -0.626684
O13   O     O_3   0.677030 0.573897 0.199723 -0.589495
O14   O     O_3   0.286668 0.466450 0.796513 -0.578250
O15   O     O_3   0.334823 0.358605 0.218219 -0.584923
O16   O     O_3   0.259761 0.187843 0.508055 -0.606936
O17   O     O_3   0.734244 0.812485 0.463019 -0.634630
O18   O     O_R   0.609320 0.646410 0.496030 -0.585802
O19   O     O_R   0.390680 0.353590 0.503970 -0.570725
O20   O     O_R   0.406170 0.506240 0.587240 -0.565588
O21   O     O_R   0.593830 0.493760 0.412760 -0.562044
O22   O     O_R   0.593790 0.493820 0.580450 -0.574963
O23   O     O_R   0.406210 0.506180 0.419550 -0.586321
O24   O     O_2   0.568589 0.302471 0.144143 -0.563166
Zn1   Zn    Zn3+2 0.374720 0.508290 0.504530 0.990248
Zn2   Zn    Zn3+2 0.625280 0.491710 0.495470 0.997184

loop_
_geom_bond_atom_site_label_1
_geom_bond_atom_site_label_2
_ccdc_geom_bond_type
C69   H65   S    
C66   C68   S    
N3    Zn1   S    
C34   C56   A    
C23   C45   A    
N4    Zn2   S    
C1    C8    S    
C14   C18   A    
C66   O15   S    
C2    C4    A    
C24   O7    S    
C49   H16   S    
C63   H50   S    
C10   H4    S    
C53   C54   S    
C70   H66   S    
C41   H12   S    
C70   H69   S    
C5    N2    S    
C55   H31   S    
C58   H38   S    
C47   H11   S    
C54   H30   S    
C36   C37   A    
C35   C37   A    
C8    C11   A    
C12   O12   A    
C22   O8    S    
O18   Zn2   S    
O19   Zn1   S    
C17   O23   A    
C66   H59   S    
C33   C36   A    
C51   O8    S    
C61   H47   S    
C18   C19   A    
C1    O1    A    
C3    C74   A    
C66   H60   S    
C9    C19   A    
C57   H35   S    
C57   H36   S    
C53   H27   S    
C64   H54   S    
C5    C23   A    
C29   C38   A    
C45   C67   A    
C48   H14   S    
O1    Zn1   S    
C49   O7    S    
C51   H22   S    
C43   H34   S    
C16   O22   A    
C2    H75   S    
C30   O2    S    
C62   O13   S    
C25   N4    A    
C21   O10   S    
C46   H8    S    
C61   H46   S    
C17   C73   S    
C41   C43   A    
C68   H63   S    
C49   H17   S    
C62   H49   S    
C65   H57   S    
C44   C46   S    
C3    O14   S    
C39   C42   A    
C32   O4    S    
C47   O6    S    
C44   H5    S    
C7    C12   S    
C37   C39   A    
C70   H68   S    
C33   C40   A    
C4    O15   S    
C55   H32   S    
C51   C52   S    
C32   C35   A    
C54   H29   S    
C44   H6    S    
C4    C6    A    
C42   H23   S    
C16   C67   S    
C50   H20   S    
C7    C15   A    
C20   C28   A    
O23   Zn1   S    
C58   C59   S    
C72   H74   S    
C20   O9    S    
C52   H26   S    
C6    C34   A    
C55   H33   S    
C60   C61   S    
C14   H2    S    
C15   C19   A    
C31   O3    S    
C62   C63   S    
C29   N1    A    
C46   H7    S    
C31   N1    A    
O22   Zn2   S    
C30   N2    A    
C47   C48   S    
C32   N2    A    
C68   H62   S    
C53   H28   S    
C59   H39   S    
C64   H53   S    
C25   O6    S    
C31   C33   A    
C48   H13   S    
C26   O5    S    
C67   C74   A    
C9    H3    S    
C47   H10   S    
C9    C11   A    
C63   H51   S    
C2    C73   A    
C6    N1    S    
C50   H18   S    
C13   O16   S    
C71   H71   S    
C74   H67   S    
C20   C22   A    
C48   H15   S    
C60   H43   S    
C71   O17   S    
C60   H42   S    
O12   Zn2   S    
C34   O13   S    
C11   O17   S    
C62   H48   S    
C65   H58   S    
C24   N3    A    
C22   N4    A    
C16   O20   A    
C69   H64   S    
C54   C55   S    
C8    C14   A    
C56   C73   A    
C1    O18   A    
C61   H44   S    
C68   H61   S    
C53   O9    S    
C40   C42   A    
C3    C5    A    
C10   C13   A    
C65   H55   S    
C58   H37   S    
C50   H19   S    
O21   Zn2   S    
C25   C27   A    
C72   H73   S    
C52   H25   S    
C26   C28   A    
C60   O11   S    
C40   H1    S    
C23   O11   S    
C29   O24   S    
C64   C65   S    
C36   C38   A    
C38   C43   A    
C64   O14   S    
C45   H45   S    
C57   C58   S    
C57   O10   S    
C10   C18   A    
C59   H40   S    
C72   H72   S    
C52   H24   S    
C30   C39   A    
C69   O16   S    
C21   C27   A    
C69   C70   S    
C35   C41   A    
C63   H52   S    
C46   H9    S    
C7    C13   A    
C71   C72   S    
C59   H41   S    
C49   C50   S    
C21   C24   A    
C27   C28   A    
C44   O5    S    
C12   O19   A    
C26   N3    A    
O20   Zn1   S    
C15   H76   S    
C56   H56   S    
C17   O21   A    
C51   H21   S    
C71   H70   S    
