data_mof_unit_65014.cif
_audit_creation_date              2012-12-10T18:45:43-0500
_audit_creation_method            fapswitch 2.2
_symmetry_space_group_name_H-M    P1
_symmetry_Int_Tables_number       1
_space_group_crystal_system       triclinic
_cell_length_a                    18.131613
_cell_length_b                    18.126778
_cell_length_c                    43.087619
_cell_angle_alpha                 89.999663
_cell_angle_beta                  89.999733
_cell_angle_gamma                 89.995214
_cell_volume                      14161.5096037

loop_
_atom_site_label
_atom_site_type_symbol
_atom_type_description
_atom_site_fract_x
_atom_site_fract_y
_atom_site_fract_z
_atom_type_partial_charge
C1    C     C_R   0.500000 1.000000 0.334209 0.954572
C2    C     C_R   0.500000 1.000000 0.868577 -0.517617
C3    C     C_3   0.732653 0.301344 0.228967 0.724492
C4    C     C_3   0.301676 0.267735 0.770824 0.733518
C5    C     C_3   0.698437 0.732378 0.229109 0.733560
C6    C     C_3   0.732666 0.301330 0.771041 0.724511
C7    C     C_3   0.267336 0.698668 0.228961 0.724488
C8    C     C_R   0.486516 0.065560 0.114805 0.523187
C9    C     C_R   0.513488 0.934440 0.885195 0.523160
C10   C     C_R   0.936164 0.520028 0.114879 0.521617
C11   C     C_R   0.063828 0.479948 0.885121 0.521569
C12   C     C_R   0.513485 0.934440 0.114805 0.523196
C13   C     C_R   0.000000 0.500000 0.131468 -0.512529
C14   C     C_R   0.486511 0.065559 0.885195 0.523157
C15   C     C_R   0.063836 0.479974 0.114879 0.521611
C16   C     C_R   0.936171 0.520052 0.885121 0.521579
C17   C     C_R   0.987039 0.565667 0.614800 0.523222
C18   C     C_R   0.012955 0.434332 0.385200 0.523248
C19   C     C_R   0.436213 0.020182 0.614881 0.521542
C20   C     C_R   0.563801 0.979863 0.385120 0.521593
C21   C     C_R   0.012962 0.434334 0.614800 0.523222
C22   C     C_R   0.987044 0.565667 0.385200 0.523259
C23   C     C_R   0.563787 0.979819 0.614881 0.521551
C24   C     C_R   1.000000 0.500000 0.868532 -0.512486
C25   C     C_R   0.436198 0.020136 0.385120 0.521586
C26   C     C_R   0.486532 0.065536 0.082424 0.550368
C27   C     C_R   0.513472 0.934465 0.917576 0.550366
C28   C     C_R   0.936168 0.520035 0.082487 0.551605
C29   C     C_R   0.063824 0.479942 0.917513 0.551605
C30   C     C_R   0.513469 0.934465 0.082424 0.550367
C31   C     C_R   0.486527 0.065534 0.917576 0.550366
C32   C     C_R   0.063833 0.479968 0.082486 0.551604
C33   C     C_R   0.936175 0.520058 0.917513 0.551606
C34   C     C_R   0.987058 0.565640 0.582419 0.550324
C35   C     C_R   0.000000 0.500000 0.631420 -0.517761
C36   C     C_R   0.012936 0.434358 0.417581 0.550327
C37   C     C_R   0.436216 0.020190 0.582489 0.551621
C38   C     C_R   0.563797 0.979855 0.417512 0.551614
C39   C     C_R   0.012942 0.434360 0.582419 0.550324
C40   C     C_R   0.987063 0.565641 0.417581 0.550327
C41   C     C_R   0.563784 0.979811 0.582489 0.551621
C42   C     C_R   0.436202 0.020144 0.417513 0.551614
C43   C     C_R   0.500000 0.000000 0.065841 -0.420312
C44   C     C_R   0.500000 1.000000 0.934159 -0.420301
C45   C     C_R   0.000000 0.500001 0.065884 -0.419438
C46   C     C_R   1.000000 0.500000 0.368580 -0.517795
C47   C     C_R   1.000000 0.500000 0.934115 -0.419428
C48   C     C_R   0.000000 0.500000 0.565838 -0.420377
C49   C     C_R   0.999999 0.500000 0.434162 -0.420389
C50   C     C_R   0.500000 0.000001 0.565886 -0.419389
C51   C     C_R   0.500000 1.000000 0.434116 -0.419396
C52   C     C_1   0.186268 0.259904 0.190795 0.333552
C53   C     C_1   0.813514 0.739899 0.809240 0.333706
C54   C     C_1   0.740946 0.185483 0.190921 0.315007
C55   C     C_1   0.259061 0.814511 0.809080 0.315032
C56   C     C_1   0.813814 0.740180 0.190809 0.333492
C57   C     C_R   0.500000 0.000000 0.631469 -0.512399
C58   C     C_1   0.186518 0.260128 0.809245 0.333721
C59   C     C_1   0.259025 0.814553 0.190927 0.314992
C60   C     C_1   0.740982 0.185440 0.809072 0.314990
C61   C     C_1   0.686485 0.760101 0.690760 0.333581
C62   C     C_1   0.313732 0.240096 0.309205 0.333422
C63   C     C_1   0.240938 0.685489 0.690920 0.315157
C64   C     C_1   0.759055 0.314517 0.309079 0.315134
C65   C     C_1   0.313482 0.239872 0.690755 0.333596
C66   C     C_1   0.686185 0.759820 0.309191 0.333362
C67   C     C_1   0.759019 0.314560 0.690928 0.315115
C68   C     C_R   0.500000 1.000000 0.368531 -0.512448
C69   C     C_1   0.240974 0.685448 0.309073 0.315119
C70   C     C_1   0.186666 0.113468 0.234720 0.319188
C71   C     C_1   0.813272 0.886486 0.765401 0.319026
C72   C     C_1   0.886680 0.186387 0.235194 0.318508
C73   C     C_1   0.113321 0.813608 0.764811 0.318565
C74   C     C_1   0.813360 0.886555 0.234771 0.319264
C75   C     C_1   0.186737 0.113521 0.765419 0.319002
C76   C     C_1   0.113312 0.813621 0.235212 0.318534
C77   C     C_1   0.886689 0.186377 0.764784 0.318605
C78   C     C_1   0.686728 0.613515 0.734599 0.318947
C79   C     C_R   1.000000 0.500000 0.468481 0.431973
C80   C     C_1   0.313334 0.386532 0.265279 0.319109
C81   C     C_1   0.386679 0.686392 0.735189 0.318518
C82   C     C_1   0.613320 0.313612 0.264806 0.318460
C83   C     C_1   0.313262 0.386479 0.734581 0.318924
C84   C     C_1   0.686639 0.613445 0.265229 0.319186
C85   C     C_1   0.613311 0.313623 0.735216 0.318559
C86   C     C_1   0.386687 0.686379 0.264788 0.318486
C87   C     C_R   1.000000 0.500000 0.531519 0.431969
C88   C     C_R   0.500000 0.000000 0.468466 0.429756
C89   C     C_R   0.500000 1.000000 0.665791 0.954566
C90   C     C_R   0.500000 0.000000 0.531536 0.429770
C91   C     C_R   0.500000 1.000000 0.968480 0.431807
C92   C     C_R   0.500000 0.000000 0.031520 0.431812
C93   C     C_R   1.000000 0.500000 0.968465 0.429821
C94   C     C_R   0.000000 0.500001 0.031534 0.429815
C95   C     C_R   0.641447 0.141467 0.250036 0.839396
C96   C     C_R   0.358553 0.858533 0.749964 0.839410
C97   C     C_R   0.858537 0.641449 0.250039 0.842517
C98   C     C_R   0.141459 0.358547 0.749963 0.842505
C99   C     C_R   0.358553 0.858532 0.250036 0.839402
C100  C     C_R   1.000000 0.500000 0.334228 0.952144
C101  C     C_R   0.641447 0.141468 0.749964 0.839410
C102  C     C_R   0.141462 0.358550 0.250039 0.842518
C103  C     C_R   0.858540 0.641452 0.749962 0.842514
C104  C     C_R   0.141447 0.641467 0.750035 0.839402
C105  C     C_R   0.858553 0.358532 0.249964 0.839387
C106  C     C_R   0.358540 0.141453 0.750037 0.842594
C107  C     C_R   0.641463 0.858551 0.249961 0.842605
C108  C     C_R   0.858553 0.358532 0.750036 0.839401
C109  C     C_R   0.141447 0.641468 0.249964 0.839393
C110  C     C_R   0.641460 0.858548 0.750038 0.842603
C111  C     C_R   1.000000 0.500000 0.665772 0.952127
C112  C     C_R   0.358537 0.141450 0.249961 0.842606
C113  C     C_3   0.219649 0.185053 0.242547 -0.226556
C114  C     C_3   0.780321 0.814924 0.757511 -0.226524
C115  C     C_3   0.815021 0.219520 0.242773 -0.223645
C116  C     C_3   0.184979 0.780478 0.757229 -0.223681
C117  C     C_3   0.780362 0.814958 0.242570 -0.226571
C118  C     C_3   0.219684 0.185079 0.757520 -0.226523
C119  C     C_3   0.184975 0.780484 0.242781 -0.223640
C120  C     C_3   0.815025 0.219515 0.757217 -0.223688
C121  C     C_3   0.719679 0.685076 0.742489 -0.226557
C122  C     C_R   1.000000 0.500000 0.834209 0.954472
C123  C     C_3   0.280351 0.314947 0.257453 -0.226589
C124  C     C_3   0.315020 0.719522 0.742771 -0.223697
C125  C     C_3   0.684979 0.280480 0.257227 -0.223660
C126  C     C_3   0.280316 0.314921 0.742480 -0.226555
C127  C     C_3   0.719638 0.685042 0.257430 -0.226603
C128  C     C_3   0.684975 0.280485 0.742783 -0.223705
C129  C     C_3   0.315024 0.719516 0.257219 -0.223654
C130  C     C_3   0.219532 0.254273 0.221762 -0.236302
C131  C     C_3   0.780368 0.745634 0.778254 -0.236342
C132  C     C_3   0.746103 0.219162 0.221823 -0.225589
C133  C     C_R   0.000000 0.500000 0.165791 0.954491
C134  C     C_3   0.253900 0.780835 0.778177 -0.225590
C135  C     C_3   0.780508 0.745766 0.221769 -0.236304
C136  C     C_3   0.219647 0.254379 0.778257 -0.236346
C137  C     C_3   0.253884 0.780854 0.221826 -0.225588
C138  C     C_3   0.746119 0.219142 0.778173 -0.225588
C139  C     C_3   0.719632 0.754366 0.721746 -0.236360
C140  C     C_3   0.280468 0.245727 0.278238 -0.236315
C141  C     C_3   0.246099 0.719165 0.721823 -0.225644
C142  C     C_3   0.753897 0.280838 0.278177 -0.225642
C143  C     C_3   0.280353 0.245620 0.721743 -0.236364
C144  C     C_R   0.500000 1.000000 0.834227 0.952431
C145  C     C_3   0.719492 0.754234 0.278231 -0.236316
C146  C     C_3   0.753881 0.280857 0.721826 -0.225643
C147  C     C_3   0.246116 0.719146 0.278174 -0.225643
C148  C     C_3   0.198339 0.301569 0.250073 -0.244679
C149  C     C_3   0.801663 0.698433 0.749929 -0.244655
C150  C     C_3   0.698425 0.198346 0.250066 -0.242873
C151  C     C_3   0.301574 0.801655 0.749934 -0.242879
C152  C     C_3   0.801660 0.698429 0.250073 -0.244676
C153  C     C_3   0.198336 0.301567 0.749930 -0.244648
C154  C     C_3   0.301575 0.801654 0.250066 -0.242876
C155  C     C_R   0.500000 0.000000 0.165773 0.952449
C156  C     C_3   0.698425 0.198346 0.749934 -0.242876
C157  C     C_3   0.698337 0.801567 0.750071 -0.244647
C158  C     C_3   0.301661 0.198431 0.249927 -0.244671
C159  C     C_3   0.198426 0.698345 0.750066 -0.242863
C160  C     C_3   0.801575 0.301654 0.249934 -0.242858
C161  C     C_3   0.301664 0.198433 0.750071 -0.244640
C162  C     C_3   0.698340 0.801571 0.249927 -0.244668
C163  C     C_3   0.801575 0.301654 0.750066 -0.242861
C164  C     C_3   0.198425 0.698346 0.249934 -0.242861
C165  C     C_3   0.198408 0.232348 0.270874 0.733471
C166  C     C_R   0.500000 0.000000 0.131423 -0.517653
C167  C     C_3   0.801665 0.767725 0.729169 0.733437
C168  C     C_3   0.767347 0.198656 0.271033 0.724528
C169  C     C_3   0.232650 0.801347 0.728969 0.724545
C170  C     C_3   0.801563 0.767622 0.270891 0.733474
C171  C     C_3   0.198324 0.232265 0.729176 0.733433
C172  C     C_3   0.232663 0.801332 0.271039 0.724523
C173  C     C_3   0.767334 0.198670 0.728959 0.724546
C174  C     C_3   0.698335 0.732275 0.770831 0.733521
C175  C     C_3   0.301592 0.267652 0.229126 0.733556
C176  C     C_3   0.267350 0.698653 0.771031 0.724510
F1    F     F_    0.144803 0.214428 0.292436 -0.569797
F2    F     F_    0.355197 0.285571 0.207564 -0.569729
F3    F     F_    0.284968 0.645307 0.792757 -0.578851
F4    F     F_    0.715038 0.354687 0.207240 -0.578864
F5    F     F_    0.355373 0.285742 0.792334 -0.569798
F6    F     F_    0.644859 0.714489 0.207530 -0.569700
F7    F     F_    0.715063 0.354658 0.792776 -0.578847
F8    F     F_    0.284941 0.645337 0.207226 -0.578859
F9    F     F_    0.472083 0.129920 0.129753 -0.525667
F10   F     F_    0.527926 0.870082 0.870247 -0.525718
F11   F     F_    0.873800 0.541175 0.129902 -0.534770
F12   F     F_    0.855350 0.785721 0.707652 -0.569854
F13   F     F_    0.126183 0.458774 0.870097 -0.534863
F14   F     F_    0.527918 0.870081 0.129753 -0.525645
F15   F     F_    0.472073 0.129917 0.870246 -0.525724
F16   F     F_    0.126201 0.458827 0.129902 -0.534787
F17   F     F_    0.873817 0.541225 0.870097 -0.534854
F18   F     F_    0.973144 0.630150 0.629743 -0.525582
F19   F     F_    0.026844 0.369847 0.370257 -0.525531
F20   F     F_    0.373905 0.041486 0.629906 -0.534973
F21   F     F_    0.626125 0.958605 0.370095 -0.534864
F22   F     F_    0.026857 0.369850 0.629744 -0.525588
F23   F     F_    0.784962 0.145312 0.292760 -0.578841
F24   F     F_    0.973155 0.630152 0.370256 -0.525510
F25   F     F_    0.626096 0.958515 0.629906 -0.534963
F26   F     F_    0.373874 0.041394 0.370095 -0.534881
F27   F     F_    0.471595 0.129678 0.067403 -0.528425
F28   F     F_    0.528414 0.870324 0.932597 -0.528438
F29   F     F_    0.873884 0.541443 0.067481 -0.529589
F30   F     F_    0.126099 0.458507 0.932519 -0.529616
F31   F     F_    0.528406 0.870323 0.067403 -0.528419
F32   F     F_    0.471585 0.129675 0.932597 -0.528440
F33   F     F_    0.126118 0.458560 0.067480 -0.529594
F34   F     F_    0.215031 0.854693 0.707243 -0.578833
F35   F     F_    0.873900 0.541493 0.932520 -0.529612
F36   F     F_    0.972638 0.629899 0.567396 -0.528407
F37   F     F_    0.027350 0.370099 0.432604 -0.528395
F38   F     F_    0.373985 0.041752 0.567483 -0.529657
F39   F     F_    0.626044 0.958336 0.432518 -0.529626
F40   F     F_    0.027362 0.370102 0.567397 -0.528409
F41   F     F_    0.972648 0.629900 0.432603 -0.528389
F42   F     F_    0.626015 0.958249 0.567483 -0.529653
F43   F     F_    0.373955 0.041663 0.432518 -0.529632
F44   F     F_    0.855141 0.785511 0.292470 -0.569767
F45   F     F_    0.144627 0.214257 0.707666 -0.569865
F46   F     F_    0.215058 0.854664 0.292774 -0.578836
F47   F     F_    0.784937 0.145341 0.707224 -0.578830
F48   F     F_    0.644650 0.714279 0.792348 -0.569786
N1    N     N_R   0.486429 0.937079 0.015437 -0.052275
N2    N     N_R   0.014148 0.562795 0.484563 -0.052348
N3    N     N_R   0.564027 0.006403 0.515440 -0.051490
N4    N     N_R   0.435973 0.993598 0.484562 -0.051467
N5    N     N_R   0.014148 0.562795 0.515436 -0.052352
N6    N     N_R   0.985851 0.437205 0.484564 -0.052349
N7    N     N_R   0.435973 0.993599 0.515441 -0.051492
N8    N     N_R   0.564026 0.006403 0.484561 -0.051468
N9    N     N_1   0.160003 0.264414 0.166396 -0.096887
N10   N     N_1   0.839688 0.735306 0.833653 -0.096538
N11   N     N_1   0.736826 0.158886 0.166573 -0.132616
N12   N     N_R   0.513571 0.062921 0.984563 -0.052278
N13   N     N_1   0.263184 0.841105 0.833428 -0.132610
N14   N     N_1   0.840116 0.735706 0.166416 -0.097014
N15   N     N_1   0.160358 0.264731 0.833661 -0.096495
N16   N     N_1   0.263132 0.841165 0.166582 -0.132638
N17   N     N_1   0.736877 0.158824 0.833417 -0.132645
N18   N     N_1   0.660311 0.764694 0.666347 -0.096490
N19   N     N_1   0.339998 0.235585 0.333604 -0.096865
N20   N     N_1   0.236815 0.658895 0.666572 -0.132415
N21   N     N_1   0.763176 0.341114 0.333427 -0.132420
N22   N     N_1   0.339642 0.235268 0.666339 -0.096447
N23   N     N_R   0.064013 0.506541 0.015439 -0.051493
N24   N     N_1   0.659883 0.764295 0.333584 -0.096993
N25   N     N_1   0.763124 0.341176 0.666583 -0.132451
N26   N     N_1   0.236866 0.658835 0.333418 -0.132440
N27   N     N_1   0.160732 0.057012 0.228564 -0.143070
N28   N     N_1   0.839181 0.942922 0.771607 -0.143229
N29   N     N_1   0.943194 0.160337 0.229233 -0.143223
N30   N     N_1   0.056808 0.839656 0.770774 -0.143088
N31   N     N_1   0.839306 0.943019 0.228636 -0.142976
N32   N     N_1   0.160832 0.057087 0.771632 -0.143236
N33   N     N_1   0.056796 0.839675 0.229259 -0.143230
N34   N     N_R   0.935987 0.493461 0.984560 -0.051506
N35   N     N_1   0.943206 0.160323 0.770736 -0.143028
N36   N     N_1   0.660819 0.557078 0.728393 -0.143268
N37   N     N_1   0.339268 0.442988 0.271436 -0.143110
N38   N     N_1   0.443192 0.660344 0.729225 -0.143105
N39   N     N_1   0.556807 0.339663 0.270767 -0.143241
N40   N     N_1   0.339168 0.442913 0.728368 -0.143275
N41   N     N_1   0.660693 0.556981 0.271363 -0.143016
N42   N     N_1   0.556795 0.339677 0.729264 -0.143046
N43   N     N_1   0.443203 0.660325 0.270741 -0.143249
N44   N     N_R   0.513571 0.062921 0.015436 -0.052276
N45   N     N_R   0.486429 0.937078 0.984563 -0.052278
N46   N     N_R   0.935987 0.493461 0.015439 -0.051494
N47   N     N_R   0.064013 0.506540 0.984560 -0.051508
N48   N     N_R   0.985851 0.437205 0.515437 -0.052353
O1    O     O_3   0.500000 0.000000 0.250000 -0.569880
O2    O     O_R   0.438450 0.000020 0.680680 -0.577826
O3    O     O_R   0.000020 0.561550 0.319320 -0.575540
O4    O     O_R   0.999980 0.438450 0.680680 -0.575565
O5    O     O_R   0.938450 0.500020 0.819320 -0.577775
O6    O     O_R   0.061550 0.499980 0.180680 -0.577754
O7    O     O_R   0.499980 0.938450 0.819320 -0.575685
O8    O     O_R   0.500020 0.061550 0.180680 -0.575670
O9    O     O_R   0.061550 0.499980 0.819320 -0.577781
O10   O     O_R   0.938450 0.500020 0.180680 -0.577750
O11   O     O_R   0.500020 0.061550 0.819320 -0.575682
O12   O     O_3   0.500000 0.000000 0.750000 -0.569872
O13   O     O_R   0.499980 0.938450 0.180680 -0.575658
O14   O     O_R   0.648010 0.086580 0.268180 -0.590282
O15   O     O_R   0.351990 0.913420 0.731820 -0.590275
O16   O     O_R   0.913420 0.648010 0.268180 -0.584845
O17   O     O_R   0.086580 0.351990 0.731820 -0.584831
O18   O     O_R   0.351990 0.913420 0.268180 -0.590277
O19   O     O_R   0.648010 0.086580 0.731820 -0.590279
O20   O     O_R   0.086580 0.351990 0.268180 -0.584842
O21   O     O_R   0.913420 0.648010 0.731820 -0.584830
O22   O     O_R   0.148010 0.586580 0.768180 -0.590264
O23   O     O_3   1.000000 0.500000 0.250000 -0.569894
O24   O     O_R   0.851990 0.413420 0.231820 -0.590275
O25   O     O_R   0.413420 0.148010 0.768180 -0.584754
O26   O     O_R   0.586580 0.851990 0.231820 -0.584767
O27   O     O_R   0.851990 0.413420 0.768180 -0.590267
O28   O     O_R   0.148010 0.586580 0.231820 -0.590269
O29   O     O_R   0.586580 0.851990 0.768180 -0.584753
O30   O     O_R   0.413420 0.148010 0.231820 -0.584764
O31   O     O_R   0.413460 0.851950 0.231830 -0.626324
O32   O     O_R   0.586540 0.148050 0.768170 -0.626293
O33   O     O_R   0.148050 0.413460 0.231830 -0.621383
O34   O     O_3   1.000000 0.500000 0.750000 -0.569887
O35   O     O_R   0.851950 0.586540 0.768170 -0.621397
O36   O     O_R   0.586540 0.148050 0.231830 -0.626316
O37   O     O_R   0.413460 0.851950 0.768170 -0.626298
O38   O     O_R   0.851950 0.586540 0.231830 -0.621375
O39   O     O_R   0.148050 0.413460 0.768170 -0.621393
O40   O     O_R   0.913460 0.351950 0.731830 -0.626188
O41   O     O_R   0.086540 0.648050 0.268170 -0.626218
O42   O     O_R   0.648050 0.913460 0.731830 -0.621397
O43   O     O_R   0.351950 0.086540 0.268170 -0.621385
O44   O     O_R   0.086540 0.648050 0.731830 -0.626193
O45   O     O_R   0.438450 0.000020 0.319320 -0.577792
O46   O     O_R   0.913460 0.351950 0.268170 -0.626210
O47   O     O_R   0.351950 0.086540 0.731830 -0.621393
O48   O     O_R   0.648050 0.913460 0.268170 -0.621377
O49   O     O_R   0.561550 0.999980 0.680680 -0.577819
O50   O     O_R   0.999980 0.438450 0.319320 -0.575552
O51   O     O_R   0.000020 0.561550 0.680680 -0.575567
O52   O     O_R   0.561550 0.999980 0.319320 -0.577788
Zn1   Zn    Zn3+2 0.499980 0.087890 0.224030 1.063461
Zn2   Zn    Zn3+2 0.000020 0.412110 0.275970 1.063462
Zn3   Zn    Zn3+2 0.412110 0.999980 0.724030 1.061568
Zn4   Zn    Zn3+2 0.587890 0.000020 0.275970 1.061597
Zn5   Zn    Zn3+2 0.000020 0.412110 0.724030 1.063466
Zn6   Zn    Zn3+2 0.999980 0.587890 0.275970 1.063464
Zn7   Zn    Zn3+2 0.587890 0.000020 0.724030 1.061570
Zn8   Zn    Zn3+2 0.412110 0.999980 0.275970 1.061595
Zn9   Zn    Zn3+2 0.500020 0.912110 0.775970 1.063466
Zn10  Zn    Zn3+2 0.912110 0.499980 0.224030 1.061581
Zn11  Zn    Zn3+2 0.087890 0.500020 0.775970 1.061554
Zn12  Zn    Zn3+2 0.500020 0.912110 0.224030 1.063462
Zn13  Zn    Zn3+2 0.499980 0.087890 0.775970 1.063466
Zn14  Zn    Zn3+2 0.087890 0.500020 0.224030 1.061579
Zn15  Zn    Zn3+2 0.912110 0.499980 0.775970 1.061557
Zn16  Zn    Zn3+2 0.999980 0.587890 0.724030 1.063466

loop_
_geom_bond_atom_site_label_1
_geom_bond_atom_site_label_2
_ccdc_geom_bond_type
C132  C150  S    
C32   C45   A    
C71   N28   T    
C72   N29   T    
C41   F42   S    
O34   Zn16  S    
C15   C32   A    
C66   N24   T    
C60   N17   T    
C134  C176  S    
C23   F25   S    
C56   N14   T    
O28   Zn14  S    
C147  C164  S    
C129  C154  S    
C126  C143  S    
O2    Zn3   S    
C1    C68   S    
C8    C26   A    
O30   Zn1   S    
C16   F17   S    
C19   C37   A    
C120  C163  S    
C117  C170  S    
C50   C90   S    
C176  F3    S    
C1    O45   A    
O42   Zn7   S    
C112  O30   A    
O21   Zn16  S    
C155  O13   A    
C94   N23   A    
C96   O37   A    
C12   C30   A    
C148  C165  S    
C156  C173  S    
C100  O3    A    
C98   O17   A    
C116  C159  S    
C7    C137  S    
C87   N5    A    
O41   Zn6   S    
O37   Zn9   S    
C82   C125  S    
C152  C170  S    
C107  C162  S    
C150  C168  S    
C141  C169  S    
C47   C93   S    
C48   C87   S    
C55   N13   T    
C139  C167  S    
C110  C157  S    
C112  C158  S    
C127  C145  S    
C67   N25   T    
C88   N8    A    
C92   N1    A    
C75   N32   T    
C33   C47   A    
C30   C43   A    
C131  C149  S    
C34   C48   A    
C17   C34   A    
C104  C159  S    
C117  C135  S    
C37   F38   S    
C118  C136  S    
C140  C165  S    
C102  O33   A    
C145  C170  S    
C13   C133  S    
C20   C68   A    
O3    Zn6   S    
C107  O26   A    
O49   Zn7   S    
C21   C35   A    
C95   O14   A    
C54   C132  S    
C23   C41   A    
C115  C160  S    
C26   F27   S    
O16   Zn6   S    
C136  C153  S    
C118  C171  S    
C134  C151  S    
C123  C140  S    
C37   C50   A    
C97   C152  S    
C121  C149  S    
O48   Zn4   S    
C2    C14   A    
C122  O9    A    
C129  C147  S    
C128  C156  S    
C142  C168  S    
C73   N30   T    
C92   N44   A    
C6    C163  S    
C139  C157  S    
C4    C161  S    
C53   N10   T    
C143  C161  S    
N4    N7    A    
C60   C138  S    
C80   C123  S    
C95   O36   A    
C65   N22   T    
O26   Zn12  S    
C32   F33   S    
C168  F23   S    
C165  F1    S    
C105  O24   A    
C14   C31   A    
C114  C167  S    
C72   C115  S    
O19   Zn7   S    
C73   C116  S    
C29   C47   A    
O6    Zn14  S    
C36   F37   S    
C105  C160  S    
C30   F31   S    
C40   C49   A    
C99   C154  S    
C96   O15   A    
C20   C38   A    
O46   Zn2   S    
O23   Zn6   S    
C140  C158  S    
C27   C44   A    
O23   Zn2   S    
O5    Zn15  S    
O36   Zn1   S    
C4    F5    S    
C157  C174  S    
C112  O43   A    
C141  C159  S    
O25   Zn13  S    
C97   O38   A    
C17   F18   S    
C171  F45   S    
O8    Zn1   S    
C115  C132  S    
C70   C113  S    
C113  C130  S    
O11   Zn13  S    
C9    F10   S    
O34   Zn5   S    
C38   C51   A    
O33   Zn14  S    
C3    F4    S    
C87   N48   A    
C93   N47   A    
C144  O11   A    
C95   C150  S    
C111  O4    A    
O7    Zn9   S    
C124  C151  S    
O47   Zn3   S    
C159  C176  S    
C124  C141  S    
C58   N15   T    
C97   O16   A    
C1    O52   A    
C147  C172  S    
C108  O27   A    
C23   C57   A    
O40   Zn5   S    
O12   Zn13  S    
O9    Zn11  S    
C85   N42   T    
C119  C164  S    
C123  C175  S    
C124  C176  S    
C130  C175  S    
C76   N33   T    
C131  C174  S    
C43   C92   S    
C151  C169  S    
C4    C126  S    
C121  C139  S    
C59   N16   T    
C6    C128  S    
O44   Zn16  S    
C128  C146  S    
O50   Zn2   S    
O13   Zn12  S    
C169  F34   S    
O4    Zn5   S    
C144  O7    A    
C172  F46   S    
C158  C175  S    
C123  C148  S    
O1    Zn4   S    
C77   N35   T    
C110  O29   A    
C98   O39   A    
C78   N36   T    
C85   C128  S    
C62   C140  S    
C115  C168  S    
C2    C9    A    
C105  O46   A    
C107  O48   A    
C100  O50   A    
C40   F41   S    
C114  C131  S    
C149  C167  S    
C38   F39   S    
C77   C120  S    
O34   Zn11  S    
C69   C147  S    
C99   O31   A    
C19   C57   A    
C25   C68   A    
C57   C89   S    
C86   N43   T    
C22   F24   S    
C113  C165  S    
C65   C143  S    
C116  C134  S    
C108  O40   A    
C104  O22   A    
C133  O10   A    
C94   N46   A    
C2    C144  S    
O32   Zn13  S    
C5    C135  S    
C78   C121  S    
C101  O32   A    
C52   N9    T    
O1    Zn8   S    
C53   C131  S    
C99   O18   A    
C79   N2    A    
C74   N31   T    
C4    C136  S    
O15   Zn3   S    
C28   F29   S    
C75   C118  S    
O31   Zn12  S    
C18   C46   A    
O34   Zn15  S    
C103  O21   A    
C175  F2    S    
C108  C163  S    
C3    C132  S    
O23   Zn10  S    
C90   N3    A    
C62   N19   T    
C42   F43   S    
C101  C156  S    
C133  O6    A    
C49   C79   S    
C71   C114  S    
C11   F13   S    
C51   C88   S    
N23   N47   A    
C121  C174  S    
C109  O28   A    
O52   Zn4   S    
C5    C127  S    
C24   C122  S    
C63   C141  S    
N1    N45   A    
C44   C91   S    
C69   N26   T    
C39   F40   S    
O17   Zn5   S    
C22   C46   A    
C89   O2    A    
C117  C162  S    
O12   Zn3   S    
C173  F47   S    
O35   Zn15  S    
C41   C50   A    
C101  O19   A    
C9    C27   A    
C102  O20   A    
C10   C28   A    
C61   N18   T    
C109  O41   A    
C18   F19   S    
O23   Zn14  S    
C111  O51   A    
C109  C164  S    
C25   C42   A    
O14   Zn4   S    
C55   C134  S    
C7    C164  S    
C6    F7    S    
C5    C162  S    
C143  C171  S    
C31   F32   S    
C52   C130  S    
C64   C142  S    
C137  C154  S    
N34   N46   A    
C106  O25   A    
C20   F21   S    
C7    C129  S    
C125  C150  S    
C103  C149  S    
C93   N34   A    
C126  C153  S    
O22   Zn11  S    
N12   N44   A    
C17   C35   A    
O12   Zn7   S    
C18   C36   A    
C36   C49   A    
C135  C152  S    
C39   C48   A    
C15   F16   S    
C118  C161  S    
O1    Zn1   S    
O27   Zn15  S    
C21   F22   S    
C114  C157  S    
C88   N4    A    
O10   Zn10  S    
N6    N48   A    
C7    F8    S    
C12   C166  A    
C106  C161  S    
C145  C162  S    
C59   C137  S    
C155  C166  S    
C146  C173  S    
C11   C24   A    
C66   C145  S    
C102  C148  S    
C64   N21   T    
C116  C169  S    
C113  C158  S    
C119  C172  S    
C84   C127  S    
N3    N8    A    
C98   C153  S    
C81   N38   T    
C16   C24   A    
C83   N40   T    
C54   N11   T    
C45   C94   S    
O20   Zn2   S    
C26   C43   A    
C170  F44   S    
O45   Zn8   S    
C28   C45   A    
C76   C119  S    
C31   C44   A    
C81   C124  S    
C130  C148  S    
C27   F28   S    
C119  C137  S    
C174  F48   S    
C25   F26   S    
C61   C139  S    
C58   C136  S    
C96   C151  S    
C91   N12   A    
O1    Zn12  S    
C29   F30   S    
C6    C138  S    
C79   N6    A    
C155  O8    A    
C127  C152  S    
O39   Zn11  S    
C21   C39   A    
C125  C142  S    
C22   C40   A    
C153  C171  S    
C67   C146  S    
C10   F11   S    
C154  C172  S    
O12   Zn9   S    
C8    C166  A    
C14   F15   S    
C106  O47   A    
C103  O35   A    
C13   C15   A    
C3    C160  S    
O24   Zn10  S    
C90   N7    A    
C122  O5    A    
C56   C135  S    
C35   C111  S    
C138  C156  S    
C74   C117  S    
C46   C100  S    
C167  F12   S    
C80   N37   T    
C142  C160  S    
C91   N45   A    
C10   C13   A    
C3    C125  S    
C86   C129  S    
C8    F9    S    
N2    N5    A    
C12   F14   S    
C146  C163  S    
C42   C51   A    
C19   F20   S    
C89   O49   A    
C5    F6    S    
C16   C33   A    
C33   F35   S    
C63   N20   T    
C104  O44   A    
C70   N27   T    
C84   N41   T    
C34   F36   S    
C120  C173  S    
O51   Zn16  S    
C120  C138  S    
C11   C29   A    
C82   N39   T    
C110  O42   A    
O29   Zn9   S    
C83   C126  S    
O43   Zn8   S    
O18   Zn8   S    
O38   Zn10  S    
