data_mof_unit_16309.cif
_audit_creation_date              2012-12-11T14:17:52-0500
_audit_creation_method            fapswitch 2.2
_symmetry_space_group_name_H-M    P1
_symmetry_Int_Tables_number       1
_space_group_crystal_system       triclinic
_cell_length_a                    11.225356
_cell_length_b                    11.079512
_cell_length_c                    18.773962
_cell_angle_alpha                 90.15314
_cell_angle_beta                  90.381618
_cell_angle_gamma                 120.433681
_cell_volume                      2013.13305572

loop_
_atom_site_label
_atom_site_type_symbol
_atom_type_description
_atom_site_fract_x
_atom_site_fract_y
_atom_site_fract_z
_atom_type_partial_charge
Br1   Br    Br    0.358889 0.146154 0.837486 -0.455092
Br2   Br    Br    0.860788 0.207017 0.837167 -0.487780
Br3   Br    Br    0.786776 0.647694 0.840682 -0.489231
Br4   Br    Br    0.141167 0.354861 0.161511 -0.450036
Br5   Br    Br    0.211380 0.858314 0.158600 -0.458166
Br6   Br    Br    0.651078 0.792235 0.163612 -0.471276
C1    C     C_R   0.518341 0.457033 0.147328 0.607537
C2    C     C_R   0.019829 0.424467 0.533713 -0.153571
C3    C     C_R   0.375645 0.925864 0.528277 -0.155591
C4    C     C_R   0.503277 0.640989 0.518777 -0.160531
C5    C     C_R   0.747035 0.109105 0.583194 -0.066744
C6    C     C_R   0.848983 0.609967 0.607051 -0.063330
C7    C     C_R   0.230144 0.271263 0.561869 -0.079167
C8    C     C_R   0.836870 0.648499 0.461744 -0.113296
C9    C     C_R   0.753166 0.025999 0.444467 -0.094969
C10   C     C_R   0.370017 0.226653 0.456906 -0.067681
C11   C     C_R   0.864056 0.112006 0.558269 -0.119451
C12   C     C_R   0.543569 0.062216 0.147022 0.601252
C13   C     C_R   0.813383 0.705657 0.582965 -0.095690
C14   C     C_R   0.182895 0.136356 0.538337 -0.137560
C15   C     C_R   0.815510 0.730258 0.510640 -0.146167
C16   C     C_R   0.867460 0.070443 0.488795 -0.162211
C17   C     C_R   0.251076 0.114294 0.484512 -0.112439
C18   C     C_R   0.520784 0.453038 0.355612 0.541310
C19   C     C_R   0.544377 0.058442 0.352768 0.542640
C20   C     C_R   0.873615 0.454206 0.361246 0.541065
C21   C     C_R   0.414804 0.547293 0.639446 0.550014
C22   C     C_R   0.056911 0.540035 0.648343 0.532814
C23   C     C_R   0.937290 0.481372 0.146915 0.614596
C24   C     C_R   0.479467 0.935870 0.645755 0.538824
C25   C     C_R   0.508531 0.998574 0.924830 0.042005
C26   C     C_R   0.002838 0.508991 0.924686 0.044705
C27   C     C_R   0.488605 0.494456 0.925830 0.041704
C28   C     C_R   0.993829 0.505596 0.074448 0.040871
C29   C     C_R   0.510294 0.003866 0.074410 0.041138
C30   C     C_R   0.492495 0.491306 0.075467 0.042309
C31   C     C_R   0.408445 0.014390 0.961676 0.003277
C32   C     C_R   0.987653 0.392264 0.962127 0.005241
C33   C     C_R   0.605125 0.596482 0.963776 0.003472
C34   C     C_R   0.456269 0.518612 0.853120 0.616724
C35   C     C_R   0.009690 0.404170 0.037157 0.002215
C36   C     C_R   0.395673 0.990189 0.036259 0.002316
C37   C     C_R   0.594003 0.608285 0.038556 0.003742
C38   C     C_R   0.618303 0.005373 0.036587 -0.138683
C39   C     C_R   0.990957 0.612031 0.035778 -0.137652
C40   C     C_R   0.384678 0.382237 0.036691 -0.138050
C41   C     C_R   0.003302 0.617817 0.963030 -0.134334
C42   C     C_R   0.613976 0.995922 0.963745 -0.139003
C43   C     C_R   0.379203 0.387559 0.963870 -0.138896
C44   C     C_R   0.318201 0.049346 0.927280 0.173270
C45   C     C_R   0.061909 0.543037 0.852779 0.600917
C46   C     C_R   0.954911 0.265629 0.928092 0.171616
C47   C     C_R   0.731813 0.687561 0.930852 0.173601
C48   C     C_R   0.045482 0.313491 0.071014 0.171257
C49   C     C_R   0.269718 0.955193 0.068970 0.172617
C50   C     C_R   0.687444 0.734707 0.073110 0.170654
C51   C     C_R   0.201949 0.029059 0.962858 -0.161403
C52   C     C_R   0.975094 0.169306 0.964833 -0.162383
C53   C     C_R   0.831019 0.802542 0.968801 -0.163119
C54   C     C_R   0.029443 0.197967 0.033832 -0.163638
C55   C     C_R   0.173680 0.973624 0.031320 -0.163725
C56   C     C_R   0.482051 0.938324 0.852709 0.601084
C57   C     C_R   0.804690 0.830910 0.037436 -0.161961
C58   C     C_R   0.494297 0.986432 0.572605 0.003266
C59   C     C_R   0.978382 0.490820 0.582052 0.000498
C60   C     C_R   0.420040 0.527058 0.562440 -0.005955
C61   C     C_R   0.907473 0.470050 0.437448 -0.001341
C62   C     C_R   0.518204 0.994674 0.424080 -0.002039
C63   C     C_R   0.492602 0.481858 0.427606 0.007495
C64   C     C_R   0.625330 0.047044 0.541545 0.012512
C65   C     C_R   0.896616 0.546036 0.558704 0.024020
C66   C     C_R   0.349274 0.389261 0.532261 0.042986
C67   C     C_R   0.388279 0.934091 0.454217 -0.176830
C68   C     C_R   0.876408 0.552114 0.484650 0.010826
C69   C     C_R   0.633080 0.024133 0.468795 0.028086
C70   C     C_R   0.406392 0.366342 0.472085 0.027988
C71   C     C_R   0.977957 0.405984 0.463681 -0.123709
C72   C     C_R   0.531025 0.617706 0.449282 -0.143509
Cr1   Cr    Cr6+3 0.768550 0.541320 0.250660 1.074073
Cr2   Cr    Cr6+3 0.458680 0.227230 0.250660 1.085032
Cr3   Cr    Cr6+3 0.772770 0.231450 0.250660 1.085911
Cr4   Cr    Cr6+3 0.541320 0.768550 0.749340 1.073737
Cr5   Cr    Cr6+3 0.227230 0.458680 0.749340 1.067354
Cr6   Cr    Cr6+3 0.231450 0.772770 0.749340 1.080045
H1    H     H_    0.709706 0.017547 0.062865 0.181407
H2    H     H_    0.059164 0.131144 0.059617 0.132009
H3    H     H_    0.077846 0.945172 0.056366 0.129920
H4    H     H_    0.875341 0.925928 0.064628 0.137283
H5    H     H_    0.297826 0.893137 0.420088 0.142068
H6    H     H_    0.011518 0.350946 0.428925 0.163013
H7    H     H_    0.590184 0.705611 0.414383 0.128909
H8    H     H_    0.092064 0.393915 0.548958 0.118995
H9    H     H_    0.272984 0.869661 0.550694 0.154493
H10   H     H_    0.548783 0.747008 0.538891 0.137455
H11   H     H_    0.748162 0.143150 0.637483 0.162899
H12   H     H_    0.976850 0.691235 0.061440 0.178291
H13   H     H_    0.848338 0.593653 0.663927 0.174145
H14   H     H_    0.168172 0.278724 0.602830 0.145478
H15   H     H_    0.828067 0.669821 0.407020 0.172721
H16   H     H_    0.757578 0.984625 0.392970 0.156779
H17   H     H_    0.431840 0.204396 0.422857 0.159905
H18   H     H_    0.949399 0.143181 0.594251 0.111217
H19   H     H_    0.787753 0.763396 0.620341 0.155459
H20   H     H_    0.093317 0.048517 0.562002 0.118225
H21   H     H_    0.792669 0.807858 0.491875 0.119433
H22   H     H_    0.957010 0.070179 0.468662 0.125352
H23   H     H_    0.305215 0.289230 0.062277 0.177826
H24   H     H_    0.208858 0.009732 0.464297 0.119320
H25   H     H_    0.016809 0.710821 0.937184 0.180336
H26   H     H_    0.692557 0.982380 0.938339 0.181641
H27   H     H_    0.286394 0.307872 0.937646 0.177493
H28   H     H_    0.133698 0.055227 0.936002 0.133370
H29   H     H_    0.949863 0.073721 0.938302 0.136485
H30   H     H_    0.928008 0.869105 0.943950 0.130342
O1    O     O_R   0.910960 0.572410 0.171010 -0.485034
O2    O     O_R   0.528530 0.639750 0.824400 -0.464950
O3    O     O_R   0.111220 0.471470 0.824400 -0.471483
O4    O     O_R   0.360250 0.888780 0.824400 -0.468174
O5    O     O_R   0.909330 0.572400 0.331540 -0.509237
O6    O     O_R   0.427600 0.336930 0.331540 -0.504711
O7    O     O_R   0.663070 0.090670 0.331540 -0.523551
O8    O     O_R   0.572400 0.909330 0.668460 -0.528646
O9    O     O_R   0.336930 0.427600 0.668460 -0.507811
O10   O     O_R   0.090670 0.663070 0.668460 -0.518220
O11   O     O_R   0.638240 0.528520 0.324410 -0.524465
O12   O     O_R   0.427590 0.338550 0.171010 -0.485376
O13   O     O_R   0.471480 0.109720 0.324410 -0.508655
O14   O     O_R   0.890280 0.361760 0.324410 -0.476978
O15   O     O_R   0.528520 0.638240 0.675590 -0.482737
O16   O     O_R   0.109720 0.471480 0.675590 -0.524991
O17   O     O_R   0.361760 0.890280 0.675590 -0.485240
O18   O     O_3   0.666667 0.333333 0.250630 -0.319047
O19   O     O_3   0.333333 0.666667 0.749370 -0.316732
O20   O     O_R   0.661450 0.089040 0.171010 -0.488922
O21   O     O_R   0.572410 0.910960 0.828990 -0.487782
O22   O     O_R   0.338550 0.427590 0.828990 -0.485380
O23   O     O_R   0.089040 0.661450 0.828990 -0.492559
O24   O     O_R   0.639750 0.528530 0.175600 -0.470727
O25   O     O_R   0.471470 0.111220 0.175600 -0.467319
O26   O     O_R   0.888780 0.360250 0.175600 -0.465951

loop_
_geom_bond_atom_site_label_1
_geom_bond_atom_site_label_2
_ccdc_geom_bond_type
Cr3   O26   S    
C9    C69   A    
Cr2   O6    S    
Cr2   O18   S    
Cr1   O1    S    
C57   H4    S    
C3    C58   A    
C1    C30   S    
C42   H26   S    
C61   C71   A    
C9    H16   S    
C66   C70   A    
C41   H25   S    
C47   C53   A    
C5    C64   A    
C8    H15   S    
C48   C54   A    
C62   C69   A    
C34   O22   A    
C40   C43   A    
C27   C33   A    
C20   C61   S    
C8    C68   A    
C8    C15   A    
C13   C15   A    
C24   C58   S    
C51   H28   S    
C32   C46   A    
C4    H10   S    
C52   C54   A    
C24   O17   A    
C31   C36   A    
C63   C70   A    
C7    H14   S    
C29   C36   A    
C55   H3    S    
C13   H19   S    
C9    C16   A    
C60   C66   A    
C24   O8    A    
Cr1   O5    S    
C52   H29   S    
C30   C40   A    
C2    H8    S    
C26   C32   A    
Br1   C44   S    
C43   H27   S    
C4    C60   A    
C23   O1    A    
C2    C59   A    
C25   C56   S    
C63   C72   A    
C28   C35   A    
C3    C67   A    
Cr1   O11   S    
C18   C63   S    
C39   C41   A    
C4    C72   A    
Cr6   O19   S    
C71   H6    S    
C18   O6    A    
C27   C34   S    
Cr5   O19   S    
Cr3   O20   S    
C20   O5    A    
C17   H24   S    
Cr5   O16   S    
C61   C68   A    
C21   O9    A    
Cr3   O18   S    
C33   C37   A    
C62   C67   A    
C16   H22   S    
C23   C28   S    
C25   C31   A    
Cr3   O7    S    
C56   O21   A    
C11   H18   S    
C26   C45   S    
Br2   C46   S    
C36   C49   A    
C65   C68   A    
C37   C50   A    
C14   C17   A    
C40   H23   S    
C6    H13   S    
C50   C57   A    
C28   C39   A    
C20   O14   A    
Cr4   O15   S    
C51   C55   A    
C29   C38   A    
Cr5   O22   S    
C46   C52   A    
C32   C35   A    
C45   O23   A    
C7    C66   A    
C6    C65   A    
Cr6   O23   S    
C10   C17   A    
C58   C64   A    
C25   C42   A    
Cr3   O14   S    
C2    C71   A    
C21   O15   A    
C26   C41   A    
C38   H1    S    
C3    H9    S    
C12   C29   S    
C5    H11   S    
C23   O26   A    
C5    C11   A    
C54   H2    S    
C7    C14   A    
Br4   C48   S    
C10   C70   A    
C44   C51   A    
Br5   C49   S    
Br6   C50   S    
C34   O2    A    
C1    O24   A    
C22   O10   A    
C19   C62   S    
C14   H20   S    
Cr2   O13   S    
C72   H7    S    
Cr6   O10   S    
Cr2   O25   S    
C19   O7    A    
Cr6   O17   S    
C53   C57   A    
C11   C16   A    
Cr5   O3    S    
Cr4   O19   S    
C22   C59   S    
Cr4   O21   S    
Cr4   O2    S    
C21   C60   S    
C59   C65   A    
C31   C44   A    
Br3   C47   S    
C33   C47   A    
Cr2   O12   S    
C53   H30   S    
Cr1   O18   S    
C49   C55   A    
C6    C13   A    
C45   O3    A    
C12   O20   A    
C22   O16   A    
C1    O12   A    
C19   O13   A    
C12   O25   A    
C35   C48   A    
C56   O4    A    
C67   H5    S    
C10   H17   S    
Cr1   O24   S    
Cr6   O4    S    
C64   C69   A    
C30   C37   A    
Cr5   O9    S    
C18   O11   A    
C39   H12   S    
C27   C43   A    
Cr4   O8    S    
C15   H21   S    
C38   C42   A    
