data_mof_unit_65825.cif
_audit_creation_date              2012-12-10T17:08:21-0500
_audit_creation_method            fapswitch 2.2
_symmetry_space_group_name_H-M    P1
_symmetry_Int_Tables_number       1
_space_group_crystal_system       triclinic
_cell_length_a                    18.285177
_cell_length_b                    18.284562
_cell_length_c                    34.507965
_cell_angle_alpha                 90.013895
_cell_angle_beta                  89.992744
_cell_angle_gamma                 90.000393
_cell_volume                      11537.2701703

loop_
_atom_site_label
_atom_site_type_symbol
_atom_type_description
_atom_site_fract_x
_atom_site_fract_y
_atom_site_fract_z
_atom_type_partial_charge
C1    C     C_R   0.000015 0.500089 0.894121 0.932878
C2    C     C_R   0.499939 0.999983 0.894120 0.932888
C3    C     C_R   0.500006 0.000060 0.394126 0.936497
C4    C     C_R   0.000062 0.499997 0.394126 0.936589
C5    C     C_R   0.499752 0.999914 0.851650 -0.331573
C6    C     C_R   0.000095 0.500357 0.851650 -0.331787
C7    C     C_R   0.000128 0.500017 0.351664 -0.311687
C8    C     C_R   0.500035 0.000142 0.351664 -0.311789
C9    C     C_R   0.528326 0.939428 0.790787 -0.103563
C10   C     C_R   0.939849 0.529482 0.790810 -0.102145
C11   C     C_R   0.470727 0.060201 0.790810 -0.093484
C12   C     C_R   0.060625 0.471896 0.790788 -0.095034
C13   C     C_R   0.031779 0.441095 0.290801 -0.082113
C14   C     C_R   0.441111 0.031808 0.290821 -0.082698
C15   C     C_R   0.968362 0.558938 0.290823 -0.096599
C16   C     C_R   0.558943 0.968378 0.290803 -0.096120
C17   C     C_R   0.499508 0.999808 0.770401 -0.025435
C18   C     C_R   0.000248 0.500717 0.770401 -0.025428
C19   C     C_R   0.000011 0.499999 0.270406 -0.024250
C20   C     C_R   0.500007 0.000036 0.270406 -0.024271
C21   C     C_R   0.556948 0.879771 0.770337 -0.197578
C22   C     C_R   0.880251 0.558227 0.770375 -0.195107
C23   C     C_R   0.442005 0.119813 0.770379 -0.203798
C24   C     C_R   0.120300 0.443312 0.770341 -0.206181
C25   C     C_R   0.063304 0.382938 0.270334 -0.215441
C26   C     C_R   0.382957 0.063343 0.270374 -0.211573
C27   C     C_R   0.936710 0.617056 0.270386 -0.192979
C28   C     C_R   0.617054 0.936722 0.270346 -0.196666
C29   C     C_R   0.063455 0.382551 0.229992 0.713741
C30   C     C_R   0.382564 0.063499 0.230032 0.716351
C31   C     C_R   0.936286 0.617353 0.230043 0.704965
C32   C     C_R   0.617346 0.936303 0.230004 0.702094
C33   C     C_R   0.557233 0.879421 0.730008 0.708836
C34   C     C_R   0.879891 0.558492 0.730042 0.710886
C35   C     C_R   0.441744 0.120180 0.730048 0.718156
C36   C     C_R   0.120656 0.443032 0.730014 0.716111
C37   C     C_R   0.031811 0.440809 0.209211 -0.148202
C38   C     C_R   0.440813 0.031848 0.209230 -0.147871
C39   C     C_R   0.967870 0.559091 0.209232 -0.138751
C40   C     C_R   0.559085 0.967894 0.209213 -0.138770
C41   C     C_R   0.528613 0.939216 0.709231 -0.149203
C42   C     C_R   0.939610 0.529724 0.709245 -0.149293
C43   C     C_R   0.470493 0.060452 0.709248 -0.159181
C44   C     C_R   0.060849 0.471618 0.709235 -0.158960
C45   C     C_R   0.999900 0.499969 0.229573 -0.173370
C46   C     C_R   0.499971 0.999929 0.229573 -0.173382
C47   C     C_R   0.499522 0.999818 0.729582 -0.174101
C48   C     C_R   0.000245 0.500708 0.729582 -0.174074
C49   C     C_R   0.031528 0.441361 0.168605 0.599868
C50   C     C_R   0.441357 0.031562 0.168623 0.601514
C51   C     C_R   0.968043 0.558525 0.168621 0.585851
C52   C     C_R   0.558512 0.968064 0.168603 0.583764
C53   C     C_R   0.528617 0.939871 0.668640 0.588648
C54   C     C_R   0.940121 0.529410 0.668649 0.590450
C55   C     C_R   0.470756 0.059925 0.668654 0.606578
C56   C     C_R   0.060179 0.471564 0.668646 0.604990
C57   C     C_R   0.999836 0.499974 0.148363 -0.358688
C58   C     C_R   0.499959 0.999857 0.148363 -0.358119
C59   C     C_R   0.499796 0.999950 0.648381 -0.379687
C60   C     C_R   0.000079 0.500328 0.648381 -0.379529
C61   C     C_R   0.999932 0.500002 0.105874 0.907540
C62   C     C_R   0.499993 0.999947 0.105873 0.907085
C63   C     C_R   0.499955 0.999997 0.605881 0.903413
C64   C     C_R   0.000008 0.500080 0.605880 0.903862
C65   C     C_R   0.859347 0.639273 0.000516 0.878138
C66   C     C_R   0.359431 0.860633 0.999520 0.886898
C67   C     C_R   0.140693 0.360785 0.000521 0.915548
C68   C     C_R   0.639881 0.140038 0.000075 0.912672
C69   C     C_R   0.139376 0.640556 0.999528 0.887437
C70   C     C_R   0.639270 0.859334 0.000520 0.909605
C71   C     C_R   0.860027 0.360071 0.000004 0.907952
C72   C     C_R   0.360928 0.140879 0.000601 0.887184
C73   C     C_R   0.360705 0.140638 0.499464 0.887284
C74   C     C_R   0.860779 0.359306 0.500519 0.904367
C75   C     C_R   0.640037 0.860117 0.500068 0.921576
C76   C     C_R   0.139348 0.640573 0.500443 0.878958
C77   C     C_R   0.640868 0.139085 0.500593 0.876925
C78   C     C_R   0.140616 0.360684 0.499468 0.887618
C79   C     C_R   0.359418 0.860649 0.500451 0.909408
C80   C     C_R   0.860065 0.639970 0.500005 0.916605
C81   C     C_R   0.174777 0.717315 0.927558 -0.074647
C82   C     C_R   0.402229 0.295080 0.009911 -0.076441
C83   C     C_R   0.721856 0.386424 0.039343 -0.086939
C84   C     C_R   0.676280 0.784142 0.072820 -0.066632
C85   C     C_R   0.783999 0.676114 0.072782 -0.078335
C86   C     C_R   0.614620 0.277543 0.040382 -0.099040
C87   C     C_R   0.293987 0.402385 0.010947 -0.065151
C88   C     C_R   0.282637 0.825212 0.927557 -0.067364
C89   C     C_R   0.794964 0.097817 0.510198 -0.087465
C90   C     C_R   0.886016 0.777788 0.539771 -0.069156
C91   C     C_R   0.281490 0.826354 0.572223 -0.077749
C92   C     C_R   0.215258 0.323077 0.427083 -0.054882
C93   C     C_R   0.323169 0.215268 0.427089 -0.048570
C94   C     C_R   0.173406 0.718644 0.572172 -0.089788
C95   C     C_R   0.777187 0.885083 0.540731 -0.080797
C96   C     C_R   0.902302 0.206041 0.511163 -0.076844
C97   C     C_R   0.192824 0.753378 0.893288 -0.109131
C98   C     C_R   0.421263 0.368602 0.013333 -0.135498
C99   C     C_R   0.656152 0.398003 0.058937 -0.120706
C100  C     C_R   0.695224 0.748967 0.107214 -0.071948
C101  C     C_R   0.748888 0.695115 0.107192 -0.084942
C102  C     C_R   0.602957 0.343558 0.059682 -0.144715
C103  C     C_R   0.367321 0.422027 0.014089 -0.111328
C104  C     C_R   0.246571 0.807145 0.893288 -0.110328
C105  C     C_R   0.868453 0.078782 0.513779 -0.137000
C106  C     C_R   0.897439 0.843364 0.559516 -0.110683
C107  C     C_R   0.244721 0.808968 0.606386 -0.106832
C108  C     C_R   0.250104 0.303792 0.392643 -0.096533
C109  C     C_R   0.303882 0.250066 0.392646 -0.099542
C110  C     C_R   0.190844 0.755316 0.606357 -0.119410
C111  C     C_R   0.843028 0.896601 0.560207 -0.134996
C112  C     C_R   0.921897 0.132716 0.514485 -0.112148
C113  C     C_R   0.266261 0.788494 0.962605 0.019024
C114  C     C_R   0.273288 0.328361 0.005879 0.019672
C115  C     C_R   0.680730 0.264607 0.020334 0.024588
C116  C     C_R   0.766857 0.712068 0.037606 0.007521
C117  C     C_R   0.712119 0.766890 0.037617 0.000766
C118  C     C_R   0.735301 0.319582 0.020049 0.019860
C119  C     C_R   0.328218 0.273741 0.005616 0.029261
C120  C     C_R   0.211496 0.733713 0.962606 0.015913
C121  C     C_R   0.828311 0.226730 0.505986 0.015066
C122  C     C_R   0.764413 0.819104 0.520528 0.026089
C123  C     C_R   0.210799 0.734394 0.537246 0.020624
C124  C     C_R   0.287542 0.232745 0.462325 0.007400
C125  C     C_R   0.232740 0.287499 0.462323 0.003864
C126  C     C_R   0.265630 0.789115 0.537261 0.013937
C127  C     C_R   0.819371 0.764516 0.520267 0.021170
C128  C     C_R   0.773683 0.171809 0.505740 0.024984
C129  C     C_R   0.193342 0.698731 0.997947 -0.314574
C130  C     C_R   0.307186 0.199335 0.002230 -0.309669
C131  C     C_R   0.802439 0.305527 0.001153 -0.309769
C132  C     C_R   0.693141 0.801052 0.002156 -0.321795
C133  C     C_R   0.801060 0.693123 0.002150 -0.312993
C134  C     C_R   0.694541 0.197547 0.001293 -0.308148
C135  C     C_R   0.199091 0.307098 0.002297 -0.324130
C136  C     C_R   0.301251 0.806665 0.997944 -0.306693
C137  C     C_R   0.699309 0.192834 0.502219 -0.317329
C138  C     C_R   0.805513 0.697550 0.501157 -0.304372
C139  C     C_R   0.301206 0.806703 0.502005 -0.319473
C140  C     C_R   0.198836 0.306762 0.497819 -0.322929
C141  C     C_R   0.306801 0.198880 0.497822 -0.315254
C142  C     C_R   0.193258 0.698801 0.501993 -0.310535
C143  C     C_R   0.697549 0.805463 0.501275 -0.303498
C144  C     C_R   0.807079 0.300918 0.502285 -0.331590
C145  C     C_R   0.226803 0.719709 0.032658 0.553398
C146  C     C_R   0.233291 0.179806 0.000384 0.569189
C147  C     C_R   0.815602 0.238002 0.983454 0.572742
C148  C     C_R   0.725724 0.779170 0.967360 0.573298
C149  C     C_R   0.779213 0.725703 0.967358 0.562272
C150  C     C_R   0.761929 0.184412 0.983446 0.559985
C151  C     C_R   0.179770 0.233177 0.000344 0.583175
C152  C     C_R   0.280284 0.773213 0.032657 0.557013
C153  C     C_R   0.679797 0.266722 0.500247 0.557407
C154  C     C_R   0.738204 0.684579 0.483206 0.581899
C155  C     C_R   0.280725 0.772759 0.467339 0.569294
C156  C     C_R   0.220906 0.274408 0.532631 0.563179
C157  C     C_R   0.274409 0.220959 0.532633 0.567777
C158  C     C_R   0.227228 0.719257 0.467335 0.556862
C159  C     C_R   0.684618 0.738257 0.483192 0.570121
C160  C     C_R   0.733174 0.320240 0.500212 0.572364
C161  C     C_R   0.471008 0.059998 0.831327 0.558837
C162  C     C_R   0.060302 0.471893 0.831301 0.560481
C163  C     C_R   0.528276 0.939729 0.831302 0.572216
C164  C     C_R   0.940030 0.529148 0.831329 0.570632
C165  C     C_R   0.968674 0.558727 0.331354 0.575273
C166  C     C_R   0.558737 0.968684 0.331335 0.570861
C167  C     C_R   0.031635 0.441347 0.331336 0.545691
C168  C     C_R   0.441367 0.031658 0.331355 0.550190
H1    H     H_    0.130986 0.677696 0.926254 0.138900
H2    H     H_    0.446144 0.255718 0.011256 0.129653
H3    H     H_    0.762149 0.429784 0.039840 0.098376
H4    H     H_    0.632496 0.823753 0.074185 0.158102
H5    H     H_    0.823478 0.632205 0.074107 0.151890
H6    H     H_    0.572018 0.236545 0.041755 0.097188
H7    H     H_    0.254195 0.445840 0.013198 0.140261
H8    H     H_    0.322243 0.869015 0.926254 0.135804
H9    H     H_    0.755565 0.053929 0.511557 0.130605
H10   H     H_    0.929350 0.737468 0.540296 0.098554
H11   H     H_    0.321244 0.870032 0.573516 0.132679
H12   H     H_    0.175730 0.366928 0.425712 0.162795
H13   H     H_    0.367060 0.175779 0.425725 0.158634
H14   H     H_    0.129574 0.679051 0.573416 0.126702
H15   H     H_    0.736208 0.927711 0.542066 0.096118
H16   H     H_    0.945758 0.245844 0.513368 0.141791
H17   H     H_    0.164283 0.740192 0.866705 0.152417
H18   H     H_    0.478077 0.384231 0.015896 0.147677
H19   H     H_    0.646689 0.449238 0.073843 0.140415
H20   H     H_    0.667413 0.762892 0.133916 0.196340
H21   H     H_    0.762734 0.667226 0.133875 0.192850
H22   H     H_    0.552399 0.352512 0.075300 0.145295
H23   H     H_    0.382301 0.478932 0.017582 0.150417
H24   H     H_    0.259740 0.835685 0.866704 0.150948
H25   H     H_    0.884035 0.021978 0.516505 0.146382
H26   H     H_    0.948533 0.852706 0.574566 0.140716
H27   H     H_    0.257463 0.837930 0.632904 0.151705
H28   H     H_    0.235991 0.331397 0.365917 0.178995
H29   H     H_    0.331525 0.235957 0.365922 0.176255
H30   H     H_    0.161773 0.742655 0.632851 0.148626
H31   H     H_    0.851875 0.947077 0.575919 0.143093
H32   H     H_    0.978775 0.117742 0.518080 0.151226
H33   H     H_    0.579301 0.832964 0.785506 0.242240
H34   H     H_    0.833460 0.580606 0.785559 0.242742
H35   H     H_    0.419627 0.166606 0.785565 0.238047
H36   H     H_    0.167112 0.420970 0.785512 0.237606
H37   H     H_    0.088000 0.337321 0.285504 0.229414
H38   H     H_    0.337346 0.088044 0.285560 0.230168
H39   H     H_    0.912091 0.662700 0.285580 0.237870
H40   H     H_    0.662696 0.912097 0.285524 0.237197
O1    O     O_3   1.000000 0.500000 0.999990 -0.560864
O2    O     O_3   0.500000 0.000000 0.999990 -0.561432
O3    O     O_3   0.500000 0.000000 0.499990 -0.561418
O4    O     O_3   1.000000 0.500000 0.499990 -0.560814
O5    O     O_R   0.060750 0.500000 0.912560 -0.594949
O6    O     O_R   0.500000 0.060750 0.912560 -0.576645
O7    O     O_R   0.939250 0.500000 0.912560 -0.567923
O8    O     O_R   0.500000 0.939250 0.912560 -0.586536
O9    O     O_R   0.560750 0.000000 0.412560 -0.585259
O10   O     O_R   0.000000 0.560750 0.412560 -0.568709
O11   O     O_R   0.439250 0.000000 0.412560 -0.579796
O12   O     O_R   0.000000 0.439250 0.412560 -0.596048
O13   O     O_R   0.000000 0.560690 0.087420 -0.580615
O14   O     O_R   0.439310 0.000000 0.087420 -0.574102
O15   O     O_R   0.000000 0.439310 0.087420 -0.597721
O16   O     O_R   0.560690 0.000000 0.087420 -0.605023
O17   O     O_R   0.500000 0.060690 0.587420 -0.577307
O18   O     O_R   0.939310 0.500000 0.587420 -0.590548
O19   O     O_R   0.500000 0.939310 0.587420 -0.600302
O20   O     O_R   0.060690 0.500000 0.587420 -0.586187
O21   O     O_R   0.853830 0.585440 0.977070 -0.592914
O22   O     O_R   0.414560 0.853830 0.977070 -0.665202
O23   O     O_R   0.146170 0.414560 0.977070 -0.641012
O24   O     O_R   0.585440 0.146170 0.977070 -0.642306
O25   O     O_R   0.146170 0.585440 0.977070 -0.667026
O26   O     O_R   0.585440 0.853830 0.977070 -0.585081
O27   O     O_R   0.853830 0.414560 0.977070 -0.641776
O28   O     O_R   0.414560 0.146170 0.977070 -0.648248
O29   O     O_R   0.353830 0.085440 0.477070 -0.657892
O30   O     O_R   0.914560 0.353830 0.477070 -0.650933
O31   O     O_R   0.646170 0.914560 0.477070 -0.633228
O32   O     O_R   0.085440 0.646170 0.477070 -0.603805
O33   O     O_R   0.646170 0.085440 0.477070 -0.658831
O34   O     O_R   0.085440 0.353830 0.477070 -0.659910
O35   O     O_R   0.353830 0.914560 0.477070 -0.595322
O36   O     O_R   0.914560 0.646170 0.477070 -0.633066
O37   O     O_R   0.085460 0.353830 0.022910 -0.563334
O38   O     O_R   0.646170 0.085460 0.022910 -0.606976
O39   O     O_R   0.914540 0.646170 0.022910 -0.636475
O40   O     O_R   0.353830 0.914540 0.022910 -0.569829
O41   O     O_R   0.914540 0.353830 0.022910 -0.600371
O42   O     O_R   0.353830 0.085460 0.022910 -0.574341
O43   O     O_R   0.085460 0.646170 0.022910 -0.577030
O44   O     O_R   0.646170 0.914540 0.022910 -0.624333
O45   O     O_R   0.585460 0.853830 0.522910 -0.593073
O46   O     O_R   0.146170 0.585460 0.522910 -0.644086
O47   O     O_R   0.414540 0.146170 0.522910 -0.558403
O48   O     O_R   0.853830 0.414540 0.522910 -0.576319
O49   O     O_R   0.414540 0.853830 0.522910 -0.632147
O50   O     O_R   0.853830 0.585460 0.522910 -0.585902
O51   O     O_R   0.585460 0.146170 0.522910 -0.587053
O52   O     O_R   0.146170 0.414540 0.522910 -0.565819
Zn1   Zn    Zn3+2 0.000000 0.586740 0.032740 1.052728
Zn2   Zn    Zn3+2 0.413260 0.000000 0.032740 1.091549
Zn3   Zn    Zn3+2 1.000000 0.413260 0.032740 1.087652
Zn4   Zn    Zn3+2 0.586740 0.000000 0.032740 1.050519
Zn5   Zn    Zn3+2 0.500000 0.086740 0.532740 1.086521
Zn6   Zn    Zn3+2 0.913260 0.500000 0.532740 1.090294
Zn7   Zn    Zn3+2 0.500000 0.913260 0.532740 1.058059
Zn8   Zn    Zn3+2 0.086740 0.500000 0.532740 1.052568
Zn9   Zn    Zn3+2 0.913250 0.500000 0.967240 1.061008
Zn10  Zn    Zn3+2 0.500000 0.913250 0.967240 1.054722
Zn11  Zn    Zn3+2 0.086750 0.500000 0.967240 1.024994
Zn12  Zn    Zn3+2 0.500000 0.086750 0.967240 1.034327
Zn13  Zn    Zn3+2 0.413250 0.000000 0.467240 1.056395
Zn14  Zn    Zn3+2 0.000000 0.413250 0.467240 1.020359
Zn15  Zn    Zn3+2 0.586750 0.000000 0.467240 1.030144
Zn16  Zn    Zn3+2 0.000000 0.586750 0.467240 1.062788
F1    F     F_    0.209016 0.686507 0.066605 -0.590016
F2    F     F_    0.212972 0.108558 0.997198 -0.576940
F3    F     F_    0.880532 0.224454 0.965702 -0.568238
F4    F     F_    0.707154 0.811529 0.933302 -0.557321
F5    F     F_    0.811607 0.707133 0.933300 -0.566619
F6    F     F_    0.775343 0.119509 0.965634 -0.582109
F7    F     F_    0.108587 0.212692 0.997081 -0.552038
F8    F     F_    0.313477 0.791028 0.066605 -0.591122
F9    F     F_    0.608568 0.287025 0.496945 -0.580178
F10   F     F_    0.724858 0.619827 0.465226 -0.564487
F11   F     F_    0.314402 0.790098 0.433456 -0.577015
F12   F     F_    0.188719 0.293184 0.566713 -0.558484
F13   F     F_    0.293188 0.188821 0.566717 -0.558675
F14   F     F_    0.209903 0.685565 0.433450 -0.587752
F15   F     F_    0.619915 0.725023 0.465152 -0.576731
F16   F     F_    0.712722 0.391416 0.496840 -0.554542
F17   F     F_    0.441902 0.117633 0.850930 -0.621304
F18   F     F_    0.117908 0.442689 0.850869 -0.619526
F19   F     F_    0.557481 0.882127 0.850874 -0.593594
F20   F     F_    0.882396 0.558244 0.850935 -0.594882
F21   F     F_    0.936873 0.614855 0.351007 -0.611239
F22   F     F_    0.614861 0.936874 0.350970 -0.613312
F23   F     F_    0.063614 0.385308 0.350972 -0.651633
F24   F     F_    0.385335 0.063642 0.351010 -0.649116
F25   F     F_    0.094607 0.324786 0.211570 -0.558279
F26   F     F_    0.324804 0.094661 0.211629 -0.555949
F27   F     F_    0.904946 0.675032 0.211648 -0.571870
F28   F     F_    0.675020 0.904961 0.211589 -0.574705
F29   F     F_    0.585548 0.820197 0.711600 -0.556121
F30   F     F_    0.820687 0.586845 0.711650 -0.554050
F31   F     F_    0.413401 0.179392 0.711660 -0.542464
F32   F     F_    0.179893 0.414741 0.711610 -0.544626
F33   F     F_    0.063528 0.385844 0.148589 -0.554405
F34   F     F_    0.385845 0.063568 0.148624 -0.554199
F35   F     F_    0.935880 0.613954 0.148618 -0.584188
F36   F     F_    0.613937 0.935897 0.148583 -0.585917
F37   F     F_    0.558107 0.882904 0.648686 -0.558736
F38   F     F_    0.883106 0.558759 0.648694 -0.557625
F39   F     F_    0.441382 0.116936 0.648705 -0.527307
F40   F     F_    0.117146 0.442062 0.648698 -0.528614

loop_
_geom_bond_atom_site_label_1
_geom_bond_atom_site_label_2
_ccdc_geom_bond_type
O2    Zn2   S    
C79   C139  S    
C2    O8    A    
C55   C59   A    
C130  C146  A    
C109  H29   S    
C34   C42   A    
C99   H19   S    
C66   O40   A    
O45   Zn7   S    
C97   H17   S    
O46   Zn8   S    
C100  H20   S    
C101  H21   S    
C21   C33   A    
C104  H24   S    
O37   Zn3   S    
O28   Zn12  S    
C119  C130  A    
C108  C109  A    
C30   C38   A    
C117  C132  A    
C118  C131  A    
C8    C168  A    
C93   H13   S    
C30   F26   S    
C84   C117  A    
C83   H3    S    
C51   C57   A    
C79   O35   A    
C144  C160  A    
C129  C145  A    
C138  C154  A    
C67   O23   A    
C155  C158  A    
C82   C98   A    
C26   H38   S    
C142  C158  A    
C136  C152  A    
O26   Zn10  S    
O40   Zn2   S    
C25   C29   A    
C27   C31   A    
C1    C6    S    
C84   C100  A    
C168  F24   S    
C21   H33   S    
C28   C32   A    
C147  C150  A    
C121  C128  A    
C3    C8    S    
C123  C126  A    
C63   O19   A    
C116  C133  A    
O22   Zn10  S    
C68   O38   A    
C72   O28   A    
C86   H6    S    
C5    C161  A    
C40   C46   A    
C113  C120  A    
C15   C27   A    
C16   C20   A    
C115  C118  A    
O5    Zn11  S    
O6    Zn12  S    
O41   Zn3   S    
C52   C58   A    
C140  C156  A    
C87   C103  A    
C95   C122  A    
C141  C157  A    
C105  C112  A    
C2    O6    A    
C153  F9    S    
C28   H40   S    
C107  C110  A    
C36   C44   A    
C158  F14   S    
C37   C45   A    
C85   C116  A    
C145  F1    S    
C57   C61   S    
C115  C134  A    
O27   Zn9   S    
C59   C63   S    
C81   H1    S    
C60   C64   S    
C91   H11   S    
C31   F27   S    
C32   F28   S    
C95   H15   S    
C10   C18   A    
C11   C23   A    
C34   F30   S    
C69   O43   A    
C80   O36   A    
O4    Zn8   S    
O2    Zn12  S    
C149  F5    S    
C43   C47   A    
C112  H32   S    
C44   C48   A    
C39   C51   A    
O31   Zn15  S    
O49   Zn7   S    
O3    Zn5   S    
O19   Zn7   S    
C92   C125  A    
C106  H26   S    
C24   C36   A    
C96   C121  A    
C77   O33   A    
C5    C163  A    
C70   C132  S    
C165  F21   S    
O11   Zn13  S    
C49   C57   A    
C88   C113  A    
O4    Zn6   S    
C69   O25   A    
O42   Zn2   S    
C92   C108  A    
C131  C147  A    
C62   O16   A    
O52   Zn8   S    
C35   C43   A    
C114  C119  A    
C39   C45   A    
C121  C144  A    
O21   Zn9   S    
C122  C143  A    
C4    C7    S    
C160  F16   S    
O17   Zn5   S    
C88   C104  A    
C61   O13   A    
C106  C111  A    
C125  C140  A    
C22   C34   A    
C126  C139  A    
C120  C129  A    
C79   O49   A    
C52   F36   S    
C86   C115  A    
C74   O30   A    
C139  C155  A    
O2    Zn10  S    
O3    Zn7   S    
C41   C47   A    
C42   C48   A    
C41   C53   A    
O39   Zn1   S    
C8    C166  A    
O43   Zn1   S    
C43   C55   A    
C26   C30   A    
C4    O10   A    
C124  C141  A    
C2    C5    S    
C103  H23   S    
C86   C102  A    
C70   O44   A    
O38   Zn4   S    
O9    Zn15  S    
C7    C167  A    
O29   Zn13  S    
C17   C47   A    
C84   H4    S    
C18   C48   A    
C163  F19   S    
C19   C45   A    
O1    Zn1   S    
C87   H7    S    
C12   C24   A    
C88   H8    S    
C65   O21   A    
C153  C160  A    
C154  C159  A    
C67   O37   A    
C80   C138  S    
C100  C101  A    
C71   O41   A    
C154  F10   S    
C62   O14   A    
C38   C46   A    
C145  C152  A    
O44   Zn4   S    
C12   C162  A    
C146  C151  A    
C56   F40   S    
C77   O51   A    
C89   C105  A    
O36   Zn16  S    
C78   O52   A    
C15   C165  A    
C146  F2    S    
C33   F29   S    
C20   C46   A    
C152  F8    S    
C93   C109  A    
O50   Zn6   S    
C58   C62   S    
C90   H10   S    
C110  H30   S    
C75   O31   A    
C64   O20   A    
O15   Zn3   S    
C85   C101  A    
O16   Zn4   S    
C73   C141  S    
C10   C22   A    
C15   C19   A    
C77   C137  S    
O13   Zn1   S    
C35   F31   S    
C98   C103  A    
C11   C161  A    
C54   F38   S    
C9    C163  A    
C4    O12   A    
C167  F23   S    
C90   C127  A    
O1    Zn3   S    
C127  C138  A    
C108  H28   S    
O35   Zn13  S    
C94   C123  A    
C7    C165  A    
C83   C99   A    
C82   C119  A    
C25   H37   S    
C64   O18   A    
O14   Zn2   S    
C166  F22   S    
C51   F35   S    
O20   Zn8   S    
C22   H34   S    
O12   Zn14  S    
C50   C58   A    
C14   C20   A    
C90   C106  A    
C63   O17   A    
C13   C19   A    
O47   Zn5   S    
C75   O45   A    
C94   C110  A    
C56   C60   A    
C67   C135  S    
C55   F39   S    
C37   C49   A    
C44   C56   A    
C6    C164  A    
C23   C35   A    
C1    O5    A    
C80   O50   A    
C164  F20   S    
C14   C26   A    
C74   C144  S    
C11   C17   A    
O10   Zn16  S    
C161  F17   S    
C78   C140  S    
C143  C159  A    
O4    Zn14  S    
C36   F32   S    
C76   O32   A    
C33   C41   A    
O33   Zn15  S    
C68   C134  S    
C98   H18   S    
C42   C54   A    
C135  C151  A    
C123  C142  A    
C102  H22   S    
C159  F15   S    
C97   C104  A    
C148  F4    S    
C99   C102  A    
C3    O11   A    
C29   C37   A    
C94   H14   S    
C72   O42   A    
O30   Zn14  S    
C29   F25   S    
C89   C128  A    
C16   C28   A    
C82   H2    S    
C91   C126  A    
C93   C124  A    
C107  H27   S    
C53   C59   A    
C54   C60   A    
C105  H25   S    
C96   C112  A    
C81   C120  A    
C78   O34   A    
O3    Zn15  S    
C83   C118  A    
C156  C157  A    
C70   O26   A    
C13   C167  A    
C92   H12   S    
C134  C150  A    
C122  C127  A    
C116  C117  A    
C150  F6    S    
C87   C114  A    
C111  H31   S    
C73   O47   A    
C6    C162  A    
C16   C166  A    
C113  C136  A    
O23   Zn11  S    
C1    O7    A    
C85   H5    S    
C114  C135  A    
O24   Zn12  S    
C89   H9    S    
O1    Zn9   S    
C65   O39   A    
C13   C25   A    
C96   H16   S    
C49   F33   S    
O8    Zn10  S    
O4    Zn16  S    
O2    Zn4   S    
C137  C153  A    
C132  C148  A    
C157  F13   S    
C133  C149  A    
C148  C149  A    
O34   Zn14  S    
C40   C52   A    
C71   C131  S    
O7    Zn9   S    
O32   Zn16  S    
C23   H35   S    
C128  C137  A    
C61   O15   A    
C73   O29   A    
O51   Zn5   S    
C151  F7    S    
C3    O9    A    
C50   F34   S    
C75   C143  S    
O18   Zn6   S    
C9    C17   A    
C71   O27   A    
C66   C136  S    
C155  F11   S    
C9    C21   A    
C156  F12   S    
C76   O46   A    
O48   Zn6   S    
C24   H36   S    
C10   C164  A    
O3    Zn13  S    
O25   Zn11  S    
C147  F3    S    
C72   C130  S    
C38   C50   A    
C66   O22   A    
C95   C111  A    
C81   C97   A    
C69   C129  S    
C31   C39   A    
C27   H39   S    
C32   C40   A    
C74   O48   A    
C68   O24   A    
O1    Zn11  S    
C12   C18   A    
C53   F37   S    
C162  F18   S    
C14   C168  A    
C65   C133  S    
C124  C125  A    
C91   C107  A    
C76   C142  S    
