data_mof_unit_29999.cif
_audit_creation_date              2012-10-26T19:58:22-0400
_audit_creation_method            fapswitch 2.2
_symmetry_space_group_name_H-M    P1
_symmetry_Int_Tables_number       1
_space_group_crystal_system       triclinic
_cell_length_a                    7.449592
_cell_length_b                    8.691701
_cell_length_c                    13.398476
_cell_angle_alpha                 94.405657
_cell_angle_beta                  77.411078
_cell_angle_gamma                 103.283996
_cell_volume                      823.708257518

loop_
_atom_site_label
_atom_site_type_symbol
_atom_type_description
_atom_site_fract_x
_atom_site_fract_y
_atom_site_fract_z
_atom_type_partial_charge
C1    C     C_R   0.545334 0.800201 0.503209 0.537044
C2    C     C_R   0.334078 0.490886 0.807544 0.029324
C3    C     C_2   0.570667 0.968237 0.504835 -0.155731
C4    C     C_R   0.398772 0.496088 0.694730 0.558554
C5    C     C_2   0.428969 0.031742 0.495795 -0.146668
C6    C     C_R   0.454503 0.199795 0.497078 0.540925
C7    C     C_R   0.601569 0.510910 0.305953 0.531128
C8    C     C_R   0.877413 0.677583 0.053622 -0.131830
C9    C     C_R   0.662585 0.535840 0.195802 -0.006188
C10   C     C_R   0.147772 0.411483 0.850149 0.235633
C11   C     C_R   0.097260 0.382407 0.954946 -0.132919
C12   C     C_R   0.416885 0.503245 0.976174 0.015965
C13   C     C_R   0.229702 0.423730 0.016364 -0.160648
C14   C     C_R   0.463031 0.550174 0.873031 -0.019804
C15   C     C_R   0.558752 0.541067 0.035763 0.033475
C16   C     C_R   0.737330 0.637802 0.995049 0.046799
C17   C     C_R   0.771858 0.698151 0.897752 -0.113102
C18   C     C_R   0.635678 0.657650 0.838542 -0.103893
C19   C     C_R   0.528376 0.486091 0.135037 -0.132084
C20   C     C_R   0.839689 0.627878 0.154017 -0.143016
Cu1   Cu    Cu3+1 0.321300 0.483160 0.488710 1.056686
Cu2   Cu    Cu3+1 0.678700 0.516840 0.511290 0.989406
H1    H     H_    0.945231 0.667281 0.200146 0.131899
H2    H     H_    0.707056 0.040007 0.513365 0.136803
H3    H     H_    0.928997 0.698898 0.629892 0.324547
H4    H     H_    0.894969 0.309760 0.830640 0.320042
H5    H     H_    0.292550 0.959965 0.487317 0.149346
H6    H     H_    0.989324 0.381834 0.420431 0.189620
H7    H     H_    0.904352 0.778075 0.867428 0.118127
H8    H     H_    0.014042 0.751316 0.022807 0.116663
H9    H     H_    0.399013 0.406675 0.168465 0.114412
H10   H     H_    0.178572 0.395991 0.095927 0.110667
H11   H     H_    0.954792 0.323353 0.989190 0.112521
H12   H     H_    0.665493 0.715927 0.766596 0.125932
N1    N     N_2   0.947230 0.542220 0.528320 0.033333
N2    N     N_2   0.052770 0.457780 0.471680 -0.166372
O1    O     O_R   0.383920 0.714220 0.492660 -0.452471
O2    O     O_3   0.018140 0.360515 0.788286 -0.659416
O3    O     O_R   0.685730 0.742660 0.511730 -0.524983
O4    O     O_R   0.275440 0.478800 0.636790 -0.379310
O5    O     O_R   0.577250 0.507240 0.655860 -0.524955
O6    O     O_R   0.314270 0.257340 0.488270 -0.503351
O7    O     O_R   0.616080 0.285780 0.507340 -0.516615
O8    O     O_R   0.422750 0.492760 0.344140 -0.519054
O9    O     O_R   0.724560 0.521200 0.363210 -0.525894
O10   O     O_3   0.027002 0.641636 0.595601 -0.540545

loop_
_geom_bond_atom_site_label_1
_geom_bond_atom_site_label_2
_ccdc_geom_bond_type
C15   C16   A    
C2    C4    S    
C20   H1    S    
Cu1   O8    S    
C11   C13   A    
C14   C18   A    
C13   H10   S    
N1    N2    D    
C12   C15   A    
C1    O1    A    
C10   O2    S    
C19   H9    S    
C17   C18   A    
C8    H8    S    
C8    C16   A    
Cu1   N2    S    
C7    O8    A    
C15   C19   A    
Cu2   N1    S    
C18   H12   S    
C3    H2    S    
C8    C20   A    
Cu1   O4    S    
Cu2   O3    S    
C7    O9    A    
Cu1   Cu2   S    
C12   C14   A    
C6    O7    A    
C6    O6    A    
C5    C6    S    
C2    C14   A    
Cu2   O5    S    
C4    O5    A    
C1    O3    A    
Cu1   O6    S    
C2    C10   A    
C11   H11   S    
Cu2   O9    S    
C17   H7    S    
C12   C13   A    
H6    N2    S    
Cu1   O1    S    
C10   C11   A    
C7    C9    S    
H4    O2    S    
C9    C20   A    
C3    C5    D    
C5    H5    S    
N1    O10   S    
H3    O10   S    
C9    C19   A    
Cu2   O7    S    
C4    O4    A    
C16   C17   A    
C1    C3    S    
