data_mof_unit_60972.cif
_audit_creation_date              2013-03-05T15:45:19-0500
_audit_creation_method            fapswitch 2.2
_symmetry_space_group_name_H-M    P1
_symmetry_Int_Tables_number       1
_space_group_crystal_system       triclinic
_cell_length_a                    30.780948
_cell_length_b                    30.765929
_cell_length_c                    24.651234
_cell_angle_alpha                 89.993044
_cell_angle_beta                  128.059391
_cell_angle_gamma                 90.00009
_cell_volume                      18381.0677585

loop_
_atom_site_label
_atom_site_type_symbol
_atom_site_description
_atom_site_fract_x
_atom_site_fract_y
_atom_site_fract_z
_atom_type_partial_charge
O1    O     O_R   0.678820 0.231020 0.500020 -0.578891
O2    O     O_R   0.321180 0.231020 0.499980 -0.579245
O3    O     O_R   0.178820 0.731020 0.500020 -0.578915
O4    O     O_R   0.821180 0.731020 0.499980 -0.579165
O5    O     O_R   0.731040 0.178820 0.500000 -0.543932
O6    O     O_R   0.268960 0.178820 0.500000 -0.543674
O7    O     O_R   0.231040 0.678820 0.500000 -0.543920
O8    O     O_R   0.768960 0.678820 0.500000 -0.543735
C1    C     C_R   0.691363 0.190730 0.501053 0.956007
C2    C     C_R   0.308625 0.190728 0.498927 0.956171
C3    C     C_R   0.191363 0.690730 0.501053 0.956091
C4    C     C_R   0.808625 0.690728 0.498927 0.955964
O9    O     O_R   0.673970 0.276110 0.400150 -0.552794
O10   O     O_R   0.326030 0.276110 0.599850 -0.553106
O11   O     O_R   0.173970 0.776110 0.400150 -0.553005
O12   O     O_R   0.826030 0.776110 0.599850 -0.552554
O13   O     O_R   0.726190 0.223910 0.400130 -0.509145
O14   O     O_R   0.273810 0.223910 0.599870 -0.509261
O15   O     O_R   0.226190 0.723910 0.400130 -0.509349
O16   O     O_R   0.773810 0.723910 0.599870 -0.508745
C5    C     C_R   0.683820 0.249929 0.367489 1.001101
C6    C     C_R   0.316190 0.249885 0.632513 1.001654
C7    C     C_R   0.183822 0.749927 0.367495 1.001400
C8    C     C_R   0.816190 0.749890 0.632521 1.000879
Cu1   Cu    Cu3+1 0.719090 0.280910 0.500010 1.211598
Cu2   Cu    Cu3+1 0.280910 0.280910 0.499990 1.211015
Cu3   Cu    Cu3+1 0.219090 0.780910 0.500010 1.211502
Cu4   Cu    Cu3+1 0.780910 0.780910 0.499990 1.211323
Cu5   Cu    Cu3+1 0.780930 0.219110 0.499990 1.220918
Cu6   Cu    Cu3+1 0.219070 0.219110 0.500010 1.220727
Cu7   Cu    Cu3+1 0.280930 0.719110 0.499990 1.220744
Cu8   Cu    Cu3+1 0.719070 0.719110 0.500010 1.221051
O17   O     O_R   0.768980 0.321200 0.500000 -0.547434
O18   O     O_R   0.231020 0.321200 0.500000 -0.547210
O19   O     O_R   0.268980 0.821200 0.500000 -0.547391
O20   O     O_R   0.731020 0.821200 0.500000 -0.547346
O21   O     O_R   0.821200 0.269000 0.499980 -0.549547
O22   O     O_R   0.178800 0.269000 0.500020 -0.549173
O23   O     O_R   0.321200 0.769000 0.499980 -0.549587
O24   O     O_R   0.678800 0.769000 0.500020 -0.549021
O25   O     O_R   0.773830 0.276110 0.599860 -0.527382
O26   O     O_R   0.226170 0.276110 0.400140 -0.527761
O27   O     O_R   0.273830 0.776110 0.599860 -0.527374
O28   O     O_R   0.726170 0.776110 0.400140 -0.527743
O29   O     O_R   0.826050 0.223920 0.599850 -0.551501
O30   O     O_R   0.173950 0.223920 0.400150 -0.551460
O31   O     O_R   0.326050 0.723920 0.599850 -0.551547
O32   O     O_R   0.673950 0.723920 0.400150 -0.551467
C9    C     C_R   0.807998 0.309373 0.497225 0.956760
C10   C     C_R   0.192004 0.309372 0.502779 0.957205
C11   C     C_R   0.307998 0.809373 0.497225 0.956945
C12   C     C_R   0.692004 0.809372 0.502779 0.956849
C13   C     C_R   0.817195 0.251196 0.632419 1.008922
C14   C     C_R   0.182760 0.251232 0.367581 1.007920
C15   C     C_R   0.317196 0.751197 0.632419 1.009011
C16   C     C_R   0.682760 0.751232 0.367582 1.007879
C17   C     C_R   0.633241 0.211302 0.254517 0.536346
C18   C     C_R   0.364648 0.211804 0.745603 0.536882
C19   C     C_R   0.133065 0.711271 0.254545 0.536118
C20   C     C_R   0.864197 0.711901 0.745641 0.537480
C21   C     C_R   0.596107 0.211383 0.182621 0.583965
C22   C     C_R   0.399876 0.212190 0.817525 0.583549
C23   C     C_R   0.095922 0.711355 0.182650 0.584034
C24   C     C_R   0.899426 0.712292 0.817563 0.583451
C25   C     C_R   0.571787 0.250368 0.146271 -0.377164
C26   C     C_R   0.424001 0.251275 0.854107 -0.376303
C27   C     C_R   0.071790 0.750370 0.146304 -0.377194
C28   C     C_R   0.924049 0.751298 0.854145 -0.376318
C29   C     C_R   0.584640 0.289757 0.183020 0.169591
C30   C     C_R   0.411355 0.290510 0.816813 0.171931
C31   C     C_R   0.084837 0.789789 0.183043 0.169567
C32   C     C_R   0.911913 0.790452 0.816847 0.172147
C33   C     C_R   0.621813 0.289264 0.255420 0.537125
C34   C     C_R   0.376977 0.289514 0.744441 0.536464
C35   C     C_R   0.122005 0.789289 0.255443 0.537291
C36   C     C_R   0.877499 0.789446 0.744480 0.536084
C37   C     C_R   0.646101 0.250147 0.291475 -0.414819
C38   C     C_R   0.353364 0.250314 0.708529 -0.413861
C39   C     C_R   0.146107 0.750143 0.291492 -0.414891
C40   C     C_R   0.853378 0.750323 0.708553 -0.413757
N1    N     N_R   0.541583 0.277946 0.034240 -0.149674
N2    N     N_R   0.506847 0.278174 0.965667 -0.143032
N3    N     N_R   0.041846 0.777723 0.034291 -0.149650
N4    N     N_R   0.007122 0.777954 0.965719 -0.142877
C41   C     C_R   0.463344 0.250373 0.930493 0.561275
C42   C     C_R   0.534431 0.249618 0.070329 0.572951
C43   C     C_R   0.963373 0.750386 0.930536 0.560979
C44   C     C_R   0.034438 0.749617 0.070371 0.573119
N5    N     N_R   0.456855 0.221537 0.966757 -0.096732
N6    N     N_R   0.491766 0.221113 0.035360 -0.104255
N7    N     N_R   0.956621 0.721772 0.966797 -0.096622
N8    N     N_R   0.991522 0.721339 0.035400 -0.104435
C45   C     C_R   0.711904 0.165737 0.629542 0.474462
C46   C     C_R   0.287451 0.165061 0.370287 0.474745
C47   C     C_R   0.211906 0.665734 0.629542 0.474465
C48   C     C_R   0.787455 0.665065 0.370288 0.474729
C49   C     C_R   0.714806 0.161194 0.687718 0.551306
C50   C     C_R   0.284272 0.160303 0.311933 0.551779
C51   C     C_R   0.214809 0.661191 0.687719 0.551327
C52   C     C_R   0.784277 0.660308 0.311935 0.551767
C53   C     C_R   0.671127 0.142941 0.682282 0.464676
C54   C     C_R   0.328004 0.142264 0.317261 0.465179
C55   C     C_R   0.171131 0.642938 0.682284 0.464710
C56   C     C_R   0.828009 0.642268 0.317263 0.465170
C57   C     C_R   0.625455 0.125901 0.619261 0.174443
C58   C     C_R   0.373999 0.125586 0.380376 0.173964
C59   C     C_R   0.125457 0.625899 0.619262 0.174441
C60   C     C_R   0.874002 0.625588 0.380378 0.173970
C61   C     C_R   0.625724 0.124313 0.561263 -0.179823
C62   C     C_R   0.374002 0.124129 0.438586 -0.180124
C63   C     C_R   0.125725 0.624313 0.561264 -0.179813
C64   C     C_R   0.874004 0.624131 0.438586 -0.180140
C65   C     C_R   0.666080 0.149517 0.564990 -0.244307
C66   C     C_R   0.333613 0.149232 0.434913 -0.244216
C67   C     C_R   0.166081 0.649516 0.564990 -0.244300
C68   C     C_R   0.833615 0.649234 0.434914 -0.244209
C69   C     C_R   0.659775 0.157468 0.504157 -0.153181
C70   C     C_R   0.340225 0.157451 0.495879 -0.152564
C71   C     C_R   0.159775 0.657468 0.504157 -0.153250
C72   C     C_R   0.840225 0.657451 0.495879 -0.152381
C73   C     C_R   0.619972 0.135890 0.443324 0.545772
C74   C     C_R   0.380323 0.136119 0.556846 0.545343
C75   C     C_R   0.119970 0.635891 0.443323 0.545844
C76   C     C_R   0.880320 0.636117 0.556845 0.545164
C77   C     C_R   0.586632 0.104871 0.441798 0.231401
C78   C     C_R   0.413640 0.105074 0.558367 0.232370
C79   C     C_R   0.086631 0.604872 0.441798 0.231336
C80   C     C_R   0.913637 0.605072 0.558366 0.232539
C81   C     C_R   0.588958 0.098283 0.500610 -0.153749
C82   C     C_R   0.411039 0.098288 0.499388 -0.153263
C83   C     C_R   0.088958 0.598283 0.500609 -0.153739
C84   C     C_R   0.911038 0.598288 0.499388 -0.153273
C85   C     C_R   0.913845 0.247900 0.743888 0.171705
C86   C     C_R   0.086145 0.247711 0.255782 0.172096
C87   C     C_R   0.413847 0.747899 0.743889 0.171633
C88   C     C_R   0.586145 0.747708 0.255784 0.172092
C89   C     C_R   0.950453 0.248412 0.816577 0.201645
C90   C     C_R   0.049917 0.246580 0.182999 0.199660
C91   C     C_R   0.450449 0.748390 0.816580 0.201705
C92   C     C_R   0.549916 0.746573 0.183002 0.199661
C93   C     C_R   0.929832 0.253920 0.854017 -0.339735
C94   C     C_R   0.071224 0.250702 0.146240 -0.342742
C95   C     C_R   0.429826 0.753895 0.854018 -0.339748
C96   C     C_R   0.571222 0.750697 0.146241 -0.342737
C97   C     C_R   0.872778 0.259622 0.817836 0.600539
C98   C     C_R   0.128176 0.256069 0.182387 0.603021
C99   C     C_R   0.372774 0.759604 0.817834 0.600584
C100  C     C_R   0.628173 0.756070 0.182387 0.603018
C101  C     C_R   0.836721 0.259453 0.746082 0.617037
C102  C     C_R   0.163852 0.257564 0.254102 0.618603
C103  C     C_R   0.336720 0.759445 0.746081 0.617019
C104  C     C_R   0.663849 0.757566 0.254101 0.618610
C105  C     C_R   0.856536 0.252967 0.708447 -0.387128
C106  C     C_R   0.143577 0.252703 0.291524 -0.390295
C107  C     C_R   0.356538 0.752968 0.708447 -0.387134
C108  C     C_R   0.643576 0.752704 0.291525 -0.390302
N9    N     N_R   0.954921 0.276940 0.966058 -0.094172
N10   N     N_R   0.046816 0.227990 0.034860 -0.095042
N11   N     N_R   0.454908 0.776915 0.966055 -0.094166
N12   N     N_R   0.546820 0.727985 0.034866 -0.095030
N13   N     N_R   0.987942 0.276073 0.034612 -0.137926
N14   N     N_R   0.013651 0.228756 0.966291 -0.131175
N15   N     N_R   0.487930 0.776053 0.034609 -0.137915
N16   N     N_R   0.513654 0.728745 0.966297 -0.131110
C109  C     C_R   0.034434 0.251497 0.070267 0.548433
C110  C     C_R   0.967091 0.253333 0.930438 0.539998
C111  C     C_R   0.534430 0.751487 0.070269 0.548397
C112  C     C_R   0.467085 0.753311 0.930439 0.539911
C113  C     C_R   0.825022 0.308840 0.391333 0.630750
C114  C     C_R   0.175096 0.308874 0.608772 0.630910
C115  C     C_R   0.325015 0.808844 0.391327 0.630895
C116  C     C_R   0.675087 0.808869 0.608764 0.630524
C117  C     C_R   0.842065 0.303137 0.351043 -0.296183
C118  C     C_R   0.158119 0.303193 0.649138 -0.294688
C119  C     C_R   0.342053 0.803143 0.351032 -0.296189
C120  C     C_R   0.658106 0.803186 0.649125 -0.294612
H1    H     H_    0.820841 0.279400 0.309892 0.244121
H2    H     H_    0.179387 0.279471 0.690322 0.244665
H3    H     H_    0.320825 0.779408 0.309878 0.244103
H4    H     H_    0.679370 0.779462 0.690307 0.244726
C121  C     C_R   0.885945 0.327138 0.363545 0.176376
C122  C     C_R   0.114246 0.327191 0.636664 0.176837
C123  C     C_R   0.385934 0.827143 0.363532 0.176400
C124  C     C_R   0.614234 0.827186 0.636651 0.176786
C125  C     C_R   0.910567 0.359391 0.414951 0.615055
C126  C     C_R   0.089562 0.359420 0.585203 0.615065
C127  C     C_R   0.410560 0.859393 0.414944 0.615058
C128  C     C_R   0.589554 0.859418 0.585195 0.615064
C129  C     C_R   0.891212 0.367806 0.453496 -0.198115
C130  C     C_R   0.108858 0.367821 0.546585 -0.198219
C131  C     C_R   0.391208 0.867807 0.453493 -0.198112
C132  C     C_R   0.608854 0.867820 0.546581 -0.198198
C133  C     C_R   0.851661 0.339289 0.446073 -0.173964
C134  C     C_R   0.148404 0.339305 0.553993 -0.173827
C135  C     C_R   0.351657 0.839290 0.446070 -0.173950
C136  C     C_R   0.648399 0.839302 0.553989 -0.173885
C137  C     C_R   0.839597 0.342648 0.493036 -0.240391
C138  C     C_R   0.160408 0.342645 0.506970 -0.240157
C139  C     C_R   0.339597 0.842648 0.493036 -0.240344
C140  C     C_R   0.660408 0.842645 0.506970 -0.240283
C141  C     C_R   0.862019 0.376387 0.541273 0.572657
C142  C     C_R   0.137927 0.376360 0.458675 0.571108
C143  C     C_R   0.362022 0.876386 0.541276 0.572660
C144  C     C_R   0.637930 0.876362 0.458679 0.571150
C145  C     C_R   0.896308 0.406855 0.543898 0.560467
C146  C     C_R   0.103639 0.406827 0.456054 0.560958
C147  C     C_R   0.396310 0.906854 0.543901 0.560481
C148  C     C_R   0.603642 0.906829 0.456057 0.560915
C149  C     C_R   0.910730 0.403315 0.500167 -0.226123
C150  C     C_R   0.089280 0.403311 0.499854 -0.226009
C151  C     C_R   0.410730 0.903315 0.500167 -0.226109
C152  C     C_R   0.589280 0.903312 0.499853 -0.226042
O33   O     O_R   0.016230 0.454910 0.442200 -0.490111
O34   O     O_R   0.983770 0.454910 0.557800 -0.490036
O35   O     O_R   0.516230 0.954910 0.442200 -0.490096
O36   O     O_R   0.483770 0.954910 0.557800 -0.490042
O37   O     O_R   0.074030 0.454920 0.557790 -0.582016
O38   O     O_R   0.925970 0.454920 0.442210 -0.582320
O39   O     O_R   0.574030 0.954920 0.557790 -0.582068
O40   O     O_R   0.425970 0.954920 0.442210 -0.582294
C153  C     C_R   0.058076 0.439118 0.499848 0.989606
C154  C     C_R   0.941926 0.439121 0.500159 0.989438
C155  C     C_R   0.558076 0.939119 0.499848 0.989593
C156  C     C_R   0.441926 0.939121 0.500159 0.989452
O41   O     O_R   0.516200 0.045090 0.442190 -0.521099
O42   O     O_R   0.483800 0.045090 0.557810 -0.520982
O43   O     O_R   0.016200 0.545090 0.442190 -0.521105
O44   O     O_R   0.983800 0.545090 0.557810 -0.520973
O45   O     O_R   0.573990 0.045100 0.557780 -0.591409
O46   O     O_R   0.426010 0.045100 0.442220 -0.591602
O47   O     O_R   0.073990 0.545100 0.557780 -0.591394
O48   O     O_R   0.926010 0.545100 0.442220 -0.591611
C157  C     C_R   0.557561 0.061725 0.500049 0.858469
C158  C     C_R   0.442427 0.061719 0.499948 0.858506
C159  C     C_R   0.057561 0.561725 0.500049 0.858474
C160  C     C_R   0.942427 0.561719 0.499948 0.858490
Cu9   Cu    Cu3+1 0.965800 0.500000 0.431560 1.233680
Cu10  Cu    Cu3+1 0.034200 0.500000 0.568440 1.234174
Cu11  Cu    Cu3+1 0.465800 0.000000 0.431560 1.233715
Cu12  Cu    Cu3+1 0.534200 1.000000 0.568440 1.234109
F1    F     F_    0.655585 0.172998 0.288059 -0.514420
F2    F     F_    0.342941 0.173373 0.712195 -0.514700
F3    F     F_    0.155238 0.672944 0.288099 -0.514315
F4    F     F_    0.842031 0.673528 0.712257 -0.514968
N17   N     N_R   0.552332 0.079087 0.380640 0.187802
O49   O     O_R   0.566069 0.039052 0.380875 -0.224966
O50   O     O_R   0.514696 0.097785 0.322145 -0.165286
N18   N     N_R   0.448192 0.079472 0.619702 0.187923
O51   O     O_R   0.434602 0.039459 0.619897 -0.224981
O52   O     O_R   0.485866 0.098350 0.677989 -0.165862
N19   N     N_R   0.052330 0.579089 0.380638 0.187822
O53   O     O_R   0.066066 0.539055 0.380871 -0.224940
O54   O     O_R   0.014693 0.597788 0.322144 -0.165185
N20   N     N_R   0.948187 0.579468 0.619699 0.187873
O55   O     O_R   0.934596 0.539455 0.619890 -0.225054
O56   O     O_R   0.985861 0.598344 0.677988 -0.166077
N21   N     N_R   0.935469 0.245835 0.706383 0.185737
O57   O     O_R   0.925783 0.277209 0.664827 -0.303269
O58   O     O_R   0.963198 0.211983 0.711761 -0.214384
N22   N     N_R   0.064384 0.244152 0.293044 0.191326
O59   O     O_R   0.074917 0.274082 0.336980 -0.300625
O60   O     O_R   0.032681 0.211670 0.281712 -0.216398
N23   N     N_R   0.435478 0.745847 0.706390 0.185690
O61   O     O_R   0.425713 0.777193 0.664753 -0.303391
O62   O     O_R   0.463391 0.712074 0.711959 -0.214255
N24   N     N_R   0.564385 0.744148 0.293048 0.191325
O63   O     O_R   0.574916 0.774079 0.336982 -0.300603
O64   O     O_R   0.532685 0.711664 0.281720 -0.216392
N25   N     N_R   0.008739 0.246973 0.851766 0.196059
O65   O     O_R   0.032044 0.210941 0.854329 -0.193941
O66   O     O_R   0.039185 0.280678 0.886123 -0.229136
N26   N     N_R   0.991693 0.241153 0.146773 0.197546
O67   O     O_R   0.964980 0.210308 0.101424 -0.240551
O68   O     O_R   0.965355 0.266590 0.159780 -0.186163
N27   N     N_R   0.508734 0.746933 0.851775 0.196125
O69   O     O_R   0.532049 0.710852 0.854540 -0.194026
O70   O     O_R   0.539174 0.780664 0.886016 -0.229046
N28   N     N_R   0.491693 0.741141 0.146778 0.197548
O71   O     O_R   0.464986 0.710291 0.101437 -0.240535
O72   O     O_R   0.465351 0.766577 0.159780 -0.186152
F5    F     F_    0.851351 0.264224 0.851924 -0.508778
F6    F     F_    0.149294 0.261042 0.147980 -0.510996
F7    F     F_    0.351344 0.764203 0.851919 -0.508748
F8    F     F_    0.649290 0.761044 0.147978 -0.511001
F9    F     F_    0.781885 0.264505 0.713338 -0.524751
F10   F     F_    0.218690 0.262843 0.287073 -0.527012
F11   F     F_    0.281884 0.764500 0.713334 -0.524751
F12   F     F_    0.718686 0.762849 0.287070 -0.526997
F13   F     F_    0.851023 0.379623 0.586718 -0.561220
F14   F     F_    0.148865 0.379574 0.413171 -0.561917
F15   F     F_    0.351028 0.879620 0.586724 -0.561212
F16   F     F_    0.648871 0.879577 0.413178 -0.561902
F17   F     F_    0.780235 0.286011 0.373293 -0.657274
F18   F     F_    0.219867 0.286037 0.626768 -0.657063
F19   F     F_    0.280227 0.786015 0.373288 -0.657172
F20   F     F_    0.719858 0.786031 0.626763 -0.657345
N29   N     N_R   0.904768 0.318805 0.323447 0.188106
O73   O     O_R   0.939637 0.344689 0.326448 -0.199649
O74   O     O_R   0.886169 0.285490 0.282206 -0.247713
N30   N     N_R   0.095490 0.318877 0.676841 0.188167
O75   O     O_R   0.060641 0.344768 0.673873 -0.199845
O76   O     O_R   0.114135 0.285575 0.718127 -0.247919
N31   N     N_R   0.404752 0.818811 0.323429 0.188120
O77   O     O_R   0.439642 0.844683 0.326453 -0.199618
O78   O     O_R   0.386131 0.785509 0.282161 -0.247707
N32   N     N_R   0.595474 0.818871 0.676824 0.188142
O79   O     O_R   0.560628 0.844765 0.673859 -0.199873
O80   O     O_R   0.614112 0.785566 0.718103 -0.247883
F21   F     F_    0.955814 0.380038 0.430409 -0.613042
F22   F     F_    0.044309 0.380050 0.569761 -0.612812
F23   F     F_    0.455808 0.880039 0.430401 -0.613025
F24   F     F_    0.544302 0.880050 0.569753 -0.612819
F25   F     F_    0.584678 0.173334 0.148254 -0.519934
F26   F     F_    0.411619 0.173877 0.851375 -0.517155
F27   F     F_    0.084300 0.673280 0.148281 -0.519939
F28   F     F_    0.910678 0.674044 0.851410 -0.517208
F29   F     F_    0.914914 0.440489 0.588894 -0.542327
F30   F     F_    0.084967 0.440432 0.410985 -0.542050
F31   F     F_    0.414919 0.940486 0.588899 -0.542312
F32   F     F_    0.584973 0.940436 0.410992 -0.542060
N33   N     N_R   0.558769 0.330002 0.147741 0.202826
O81   O     O_R   0.505888 0.331552 0.098069 -0.253663
O82   O     O_R   0.586924 0.366013 0.169302 -0.191136
N34   N     N_R   0.430575 0.331748 0.851365 0.201581
O83   O     O_R   0.448947 0.360925 0.831830 -0.189019
O84   O     O_R   0.423228 0.342288 0.896324 -0.249407
N35   N     N_R   0.059177 0.830077 0.147754 0.202801
O85   O     O_R   0.006320 0.831761 0.098006 -0.253978
O86   O     O_R   0.087503 0.866004 0.169357 -0.191131
N36   N     N_R   0.931710 0.831653 0.851397 0.201712
O87   O     O_R   0.950772 0.860342 0.832105 -0.189031
O88   O     O_R   0.924295 0.842690 0.896127 -0.249220
F33   F     F_    0.633855 0.327002 0.290773 -0.553509
F34   F     F_    0.363851 0.327346 0.708958 -0.554309
F35   F     F_    0.134231 0.827050 0.290804 -0.553588
F36   F     F_    0.864871 0.827235 0.709038 -0.554137
F37   F     F_    0.615560 0.143427 0.385706 -0.574547
F38   F     F_    0.385006 0.143879 0.614600 -0.575759
F39   F     F_    0.115557 0.643429 0.385705 -0.574263
F40   F     F_    0.885000 0.643874 0.614597 -0.576463
F41   F     F_    0.755764 0.183731 0.637828 -0.635311
F42   F     F_    0.243539 0.182807 0.362155 -0.636086
F43   F     F_    0.255766 0.683728 0.637827 -0.635322
F44   F     F_    0.743543 0.682812 0.362155 -0.636090
F45   F     F_    0.759164 0.176723 0.749284 -0.497451
F46   F     F_    0.239570 0.175406 0.250265 -0.498350
F47   F     F_    0.259169 0.676719 0.749286 -0.497441
F48   F     F_    0.739577 0.675414 0.250267 -0.498349
F49   F     F_    0.672131 0.143714 0.738113 -0.493236
F50   F     F_    0.326695 0.142875 0.261198 -0.492621
F51   F     F_    0.172135 0.643711 0.738116 -0.493219
F52   F     F_    0.826702 0.642880 0.261202 -0.492619
N37   N     N_R   0.576745 0.117218 0.612917 0.175479
O89   O     O_R   0.531948 0.138841 0.568106 -0.309992
O90   O     O_R   0.580432 0.096113 0.661380 -0.213000
N38   N     N_R   0.422677 0.117136 0.386527 0.176117
O91   O     O_R   0.467463 0.138747 0.431391 -0.309393
O92   O     O_R   0.419026 0.096077 0.338061 -0.212630
N39   N     N_R   0.076747 0.617218 0.612919 0.175483
O93   O     O_R   0.031950 0.638840 0.568108 -0.309970
O94   O     O_R   0.080434 0.596113 0.661382 -0.212993
N40   N     N_R   0.922681 0.617136 0.386530 0.176115
O95   O     O_R   0.967466 0.638748 0.431394 -0.309392
O96   O     O_R   0.919029 0.596077 0.338065 -0.212634

loop_
_geom_bond_atom_site_label_1
_geom_bond_atom_site_label_2
_geom_bond_distance
_ccdc_geom_bond_type
C51   C55   1.385208 A    
C85   C89   1.411143 A    
C43   N7    1.358716 A    
C94   C98   1.403028 A    
C48   F44   1.353180 S    
C88   C92   1.413148 A    
C26   C41   1.483723 S    
C10   C138  1.458898 S    
N31   O78   1.301738 A    
C90   N26   1.436666 S    
C87   C91   1.411151 A    
C93   C110  1.483482 S    
C47   C51   1.387881 A    
C52   C56   1.385402 A    
Cu6   O22   1.973025 S    
C120  C124  1.396913 A    
C101  C105  1.403655 A    
N20   O56   1.300941 A    
C76   F40   1.360778 S    
C98   C102  1.392759 A    
C104  C108  1.404503 A    
N34   O83   1.301217 A    
C30   C34   1.405671 A    
C103  C107  1.403659 A    
O4    C4    1.293967 A    
O5    Cu5   1.973633 S    
N1    C42   1.356749 A    
C93   C97   1.406806 A    
C145  F29   1.358705 S    
N3    C44   1.356706 A    
C147  F31   1.358707 S    
N17   O49   1.301108 A    
C149  C154  1.461452 S    
C148  F32   1.358677 S    
N37   O90   1.301679 A    
N18   O52   1.300938 A    
Cu1   Cu5   2.690641 S    
N36   O87   1.301314 A    
Cu3   Cu7   2.690641 S    
C92   N28   1.436665 S    
Cu4   Cu8   2.690634 S    
C6    C38   1.475549 S    
C115  C135  1.416642 A    
C42   N6    1.356920 A    
Cu1   O25   1.950859 S    
C89   N25   1.433309 S    
C113  C133  1.416642 A    
Cu3   O19   1.973632 S    
C50   C54   1.385405 A    
Cu4   O28   1.950906 S    
O13   C5    1.301974 A    
Cu5   O29   1.948174 S    
C126  C130  1.422285 A    
O15   C7    1.301913 A    
C74   F38   1.360772 S    
O44   Cu10  1.974460 S    
C57   N37   1.433455 S    
O11   Cu3   1.948152 S    
N31   O77   1.301463 A    
C28   C32   1.418546 A    
N32   O79   1.301437 A    
O9    C5    1.300027 A    
O2    Cu2   1.973024 S    
C124  N32   1.443813 S    
O10   Cu2   1.948105 S    
C84   C160  1.477506 S    
C99   F7    1.358154 S    
O6    Cu6   1.973635 S    
N25   O66   1.300951 A    
O19   C11   1.296468 A    
O41   Cu11  1.974501 S    
C116  C136  1.416636 A    
O35   Cu11  1.975025 S    
C45   F41   1.353087 S    
C132  C136  1.417999 A    
N30   O75   1.301438 A    
C119  C123  1.396930 A    
C114  C118  1.390981 A    
N23   O62   1.300487 A    
C121  C125  1.407500 A    
C103  F11   1.358275 S    
C14   C106  1.477787 S    
C104  F12   1.358194 S    
C17   C21   1.396404 A    
C71   C75   1.387647 A    
N2    C41   1.358350 A    
C19   C23   1.396369 A    
C121  N29   1.443828 S    
C20   C24   1.396066 A    
C17   C37   1.403786 A    
C130  C150  1.423455 A    
O41   C157  1.295543 A    
C26   C30   1.418580 A    
C115  C119  1.390990 A    
O46   C158  1.286640 A    
C23   F27   1.358159 S    
C79   C83   1.421248 A    
O3    C3    1.293874 A    
C77   C81   1.421252 A    
C32   N36   1.436608 S    
N33   O81   1.301411 A    
C53   F49   1.357689 S    
N39   O93   1.298436 A    
C142  F14   1.359064 S    
C78   C82   1.421406 A    
C48   C68   1.415258 A    
C55   C59   1.404317 A    
C55   F51   1.357693 S    
C35   C39   1.406229 A    
N13   C109  1.356893 A    
N10   C109  1.356634 A    
C131  C151  1.423433 A    
C75   F39   1.360777 S    
N10   N14   1.331279 A    
O23   C11   1.295592 A    
C13   C105  1.477743 S    
C16   C108  1.477780 S    
C97   F5    1.358145 S    
C118  C122  1.396917 A    
C9    C137  1.458950 S    
C15   C107  1.477739 S    
C52   F48   1.356842 S    
C24   C28   1.409030 A    
O34   Cu10  1.975068 S    
C46   F42   1.353179 S    
N40   O95   1.298459 A    
O48   C160  1.286640 A    
C88   N24   1.436325 S    
N21   O57   1.301239 A    
C70   C74   1.387636 A    
C18   F2    1.358108 S    
C132  C152  1.423450 A    
C91   C95   1.416239 A    
C56   F52   1.357676 S    
C138  C142  1.398608 A    
C80   N20   1.433423 S    
C12   C140  1.458899 S    
C145  C149  1.400408 A    
O34   C154  1.287475 A    
C62   C66   1.418256 A    
O20   C12   1.296458 A    
C140  C144  1.398608 A    
C29   N33   1.438559 S    
O29   C13   1.301175 A    
Cu9   Cu10  2.656919 S    
C147  C151  1.400405 A    
N29   O74   1.301739 A    
C91   N27   1.433282 S    
O46   Cu11  1.972643 S    
C135  C139  1.420873 A    
C22   C26   1.408988 A    
C96   C111  1.474963 S    
O36   Cu12  1.975068 S    
C144  C148  1.382939 A    
C54   F50   1.357675 S    
C34   F34   1.359089 S    
N7    N8    1.332002 A    
N35   O86   1.301236 A    
N26   O67   1.301253 A    
C68   C72   1.409616 A    
C99   C103  1.392849 A    
C73   C77   1.384822 A    
C21   C25   1.405196 A    
C146  C150  1.400427 A    
C75   C79   1.384823 A    
N3    N4    1.331246 A    
C146  F30   1.358677 S    
O8    C4    1.290487 A    
C44   N8    1.356894 A    
N38   O92   1.301688 A    
O25   C13   1.300924 A    
N24   O64   1.301134 A    
C65   C69   1.409748 A    
O27   C15   1.300924 A    
Cu2   Cu6   2.690634 S    
C67   C71   1.409743 A    
C61   C81   1.439330 A    
O48   Cu9   1.972643 S    
C45   C49   1.387880 A    
C64   C68   1.418259 A    
Cu2   O26   1.950906 S    
O16   Cu8   1.951085 S    
C63   C83   1.439331 A    
C57   C61   1.435657 A    
C20   C40   1.403017 A    
C33   C37   1.406293 A    
O14   C6    1.301453 A    
C59   C63   1.435655 A    
Cu6   O30   1.948130 S    
C36   C40   1.404965 A    
N22   O59   1.301308 A    
C125  C129  1.422285 A    
C59   N39   1.433459 S    
O42   C158  1.295472 A    
C128  C132  1.422287 A    
O10   C6    1.300598 A    
O3    Cu3   1.973018 S    
C49   F45   1.356881 S    
C134  C138  1.420860 A    
C48   C52   1.388088 A    
C21   F25   1.358155 S    
N28   O72   1.301184 A    
O45   C157  1.286538 A    
C131  C135  1.417987 A    
C129  C133  1.417980 A    
C120  H4    1.082717 S    
N26   O68   1.301183 A    
C28   C43   1.483808 S    
C113  C117  1.390998 A    
N28   O71   1.301251 A    
O47   C159  1.286540 A    
C102  F10   1.358193 S    
C116  C120  1.390983 A    
Cu1   O17   1.973632 S    
C18   C22   1.396067 A    
C31   N35   1.438593 S    
O13   Cu5   1.951039 S    
C77   N17   1.433408 S    
Cu11  Cu12  2.656919 S    
O15   Cu7   1.951039 S    
N37   O89   1.298436 A    
C25   C42   1.474209 S    
C27   C44   1.474028 S    
N36   O88   1.301407 A    
O47   Cu10  1.972594 S    
N12   N16   1.331275 A    
C46   C50   1.388089 A    
O17   C9    1.296473 A    
C143  F15   1.359060 S    
C122  C126  1.407504 A    
C17   F1    1.357977 S    
N14   C110  1.358284 A    
O33   C153  1.287487 A    
C51   F47   1.356880 S    
N32   O80   1.301739 A    
C29   C33   1.406038 A    
C118  H2    1.082719 S    
C98   F6    1.358340 S    
C136  C140  1.420865 A    
C76   C80   1.384915 A    
C85   N21   1.435465 S    
C117  C121  1.396913 A    
Cu7   O31   1.948174 S    
N25   O65   1.300601 A    
C139  C143  1.398650 A    
Cu8   O32   1.948130 S    
N30   O76   1.301738 A    
C50   F46   1.356840 S    
C141  F13   1.359061 S    
C20   F4    1.358115 S    
O42   Cu12  1.974460 S    
C100  C104  1.392757 A    
O1    C1    1.293874 A    
O37   C153  1.285684 A    
N19   O53   1.301104 A    
C90   C94   1.414245 A    
C19   C39   1.403737 A    
C114  C134  1.416633 A    
C41   N5    1.358699 A    
C35   F35   1.359002 S    
C82   C158  1.477509 S    
C60   C64   1.435568 A    
O39   Cu12  1.972952 S    
C128  F24   1.354328 S    
C95   C99   1.406798 A    
N20   O55   1.301125 A    
C123  C127  1.407510 A    
O21   C9    1.295591 A    
O28   C16   1.301265 A    
N16   C112  1.358272 A    
O30   C14   1.300953 A    
C125  F21   1.354314 S    
C45   C65   1.415463 A    
C64   C84   1.439167 A    
C127  F23   1.354321 S    
N17   O50   1.300940 A    
N9    N13   1.331122 A    
C56   C60   1.404383 A    
C47   F43   1.353087 S    
N18   O51   1.301126 A    
C30   N34   1.436701 S    
C116  F20   1.354893 S    
C89   C93   1.416247 A    
C92   C96   1.414247 A    
O5    C1    1.290586 A    
C113  F17   1.354917 S    
O6    C2    1.290488 A    
C115  F19   1.354916 S    
O33   Cu9   1.975025 S    
C83   C159  1.477414 S    
N35   O85   1.301409 A    
C129  C149  1.423430 A    
O26   C14   1.301264 A    
C86   C106  1.415848 A    
N40   O96   1.301689 A    
C25   C29   1.415671 A    
C151  C156  1.461458 S    
C62   C82   1.439166 A    
C27   C31   1.415661 A    
C18   C38   1.402856 A    
O39   C155  1.285684 A    
Cu3   O27   1.950859 S    
Cu4   O20   1.973634 S    
C34   C38   1.404774 A    
Cu5   O21   1.973023 S    
O38   Cu9   1.972903 S    
N5    N6    1.332007 A    
C97   C101  1.392856 A    
O12   Cu4   1.948105 S    
C87   N23   1.435514 S    
C1    C69   1.445716 S    
N29   O73   1.301443 A    
N4    C43   1.358357 A    
C96   C100  1.403028 A    
C3    C71   1.445717 S    
O36   C156  1.287478 A    
N1    N2    1.331266 A    
C46   C66   1.415258 A    
O7    C3    1.290586 A    
C85   C105  1.413913 A    
N27   O70   1.300951 A    
C73   F37   1.360776 S    
C88   C108  1.415848 A    
C60   N40   1.433728 S    
N19   O54   1.300938 A    
O43   Cu9   1.974501 S    
C87   C107  1.413933 A    
N11   C112  1.358158 A    
C19   F3    1.357977 S    
N12   C111  1.356634 A    
C69   C73   1.387648 A    
C4    C72   1.445688 S    
C8    C40   1.475854 S    
C36   F36   1.359082 S    
C47   C67   1.415463 A    
N33   O82   1.301233 A    
O40   Cu11  1.972903 S    
C137  C141  1.398651 A    
O14   Cu6   1.951085 S    
C127  C131  1.422276 A    
C148  C152  1.400425 A    
O11   C7    1.299979 A    
O12   C8    1.300655 A    
C150  C153  1.461507 S    
O1    Cu1   1.973018 S    
O9    Cu1   1.948152 S    
C24   F28   1.358067 S    
C80   C84   1.421404 A    
C22   F26   1.358034 S    
O4    Cu4   1.973024 S    
Cu2   O18   1.973634 S    
O38   C154  1.285661 A    
C58   N38   1.433731 S    
C53   C57   1.404316 A    
C23   C27   1.405166 A    
O18   C10   1.296452 A    
O7    Cu7   1.973633 S    
C78   N18   1.433422 S    
O8    Cu8   1.973635 S    
O16   C8    1.301555 A    
N22   O60   1.301135 A    
C33   F33   1.358998 S    
C119  H3    1.082712 S    
O24   C12   1.295579 A    
C143  C147  1.382966 A    
C124  C128  1.407502 A    
C81   C157  1.477414 S    
N21   O58   1.300476 A    
C74   C78   1.384915 A    
N15   C111  1.356890 A    
C2    C70   1.445689 S    
C117  H1    1.082713 S    
C32   C36   1.405548 A    
N39   O94   1.301678 A    
O45   Cu12  1.972594 S    
C123  N31   1.443812 S    
C66   C70   1.409614 A    
C11   C139  1.458950 S    
N34   O84   1.301431 A    
N27   O69   1.300609 A    
C142  C146  1.382942 A    
N11   N15   1.331118 A    
O2    C2    1.293967 A    
O40   C156  1.285660 A    
O31   C15   1.301175 A    
C58   C62   1.435567 A    
O32   C16   1.300950 A    
C141  C145  1.382963 A    
C100  F8    1.358338 S    
C101  F9    1.358274 S    
O35   C155  1.287484 A    
N9    C110  1.358145 A    
C86   C90   1.413155 A    
O22   C10   1.295580 A    
C61   C65   1.418492 A    
O43   C159  1.295542 A    
C126  F22   1.354331 S    
N23   O61   1.301244 A    
C94   C109  1.474966 S    
C31   C35   1.406018 A    
C133  C137  1.420882 A    
N38   O91   1.298460 A    
Cu7   O23   1.973023 S    
C54   C58   1.404384 A    
C79   N19   1.433410 S    
Cu8   O24   1.973025 S    
C95   C112  1.483487 S    
O44   C160  1.295472 A    
C122  N30   1.443813 S    
C144  F16   1.359063 S    
N24   O63   1.301308 A    
C130  C134  1.417998 A    
C114  F18   1.354894 S    
C86   N22   1.436324 S    
C102  C106  1.404505 A    
C5    C37   1.475440 S    
C63   C67   1.418493 A    
C7    C39   1.475225 S    
O37   Cu10  1.972952 S    
C49   C53   1.385209 A    
C72   C76   1.387635 A    
C152  C155  1.461507 S    
