data_mof_unit_11421.cif
_audit_creation_date              2012-12-10T17:52:39-0500
_audit_creation_method            fapswitch 2.2
_symmetry_space_group_name_H-M    P1
_symmetry_Int_Tables_number       1
_space_group_crystal_system       triclinic
_cell_length_a                    14.750917
_cell_length_b                    14.734777
_cell_length_c                    23.517576
_cell_angle_alpha                 76.517316
_cell_angle_beta                  103.129869
_cell_angle_gamma                 114.784199
_cell_volume                      4464.11851214

loop_
_atom_site_label
_atom_site_type_symbol
_atom_type_description
_atom_site_fract_x
_atom_site_fract_y
_atom_site_fract_z
_atom_type_partial_charge
C1    C     C_R   0.880489 0.312435 0.509178 0.802677
C2    C     C_R   0.119511 0.687565 0.490822 0.802676
C3    C     C_R   0.082736 0.498809 0.773221 -0.107978
C4    C     C_R   0.917264 0.501190 0.226779 -0.107978
C5    C     C_R   0.083164 0.498647 0.714038 -0.163834
C6    C     C_R   0.916836 0.501352 0.285962 -0.163832
C7    C     C_R   0.999766 0.500716 0.671450 -0.034343
C8    C     C_R   0.000234 0.499284 0.328549 -0.034343
C9    C     C_R   0.916212 0.503539 0.689101 -0.228642
C10   C     C_R   0.083788 0.496461 0.310899 -0.228646
C11   C     C_R   0.915957 0.503673 0.748342 -0.105261
C12   C     C_R   0.084043 0.496327 0.251658 -0.105260
C13   C     C_R   0.999165 0.501240 0.790614 0.353279
C14   C     C_R   0.000835 0.498760 0.209386 0.353278
C15   C     C_R   0.812922 0.205385 0.510829 -0.053286
C16   C     C_R   0.187078 0.794614 0.489173 -0.053285
C17   C     C_R   0.780417 0.033053 0.504166 -0.181340
C18   C     C_R   0.219583 0.966943 0.495843 -0.181343
C19   C     C_R   0.847889 0.132463 0.507226 -0.164809
C20   C     C_R   0.152111 0.867534 0.492779 -0.164806
C21   C     C_R   0.710188 0.177888 0.511688 -0.238907
C22   C     C_R   0.289812 0.822112 0.488315 -0.238907
C23   C     C_R   0.999959 0.500175 0.608964 0.811061
C24   C     C_R   0.000041 0.499825 0.391035 0.811059
C25   C     C_R   0.639576 0.079002 0.506090 0.091487
C26   C     C_R   0.360425 0.920995 0.493919 0.091490
C27   C     C_R   0.676852 0.006041 0.503036 0.142171
C28   C     C_R   0.323149 0.993955 0.496976 0.142165
C29   C     C_R   0.533523 0.050937 0.502756 0.056906
C30   C     C_R   0.466478 0.949059 0.497257 0.056914
C31   C     C_R   0.507842 0.878540 0.495923 -0.197084
C32   C     C_R   0.492159 0.121454 0.504094 -0.197079
C33   C     C_R   0.610680 0.906878 0.498456 -0.177308
C34   C     C_R   0.389321 0.093116 0.501560 -0.177302
C35   C     C_R   0.719401 0.677932 0.408809 -0.313321
C36   C     C_R   0.280600 0.322069 0.591191 -0.313351
C37   C     C_R   0.797560 0.643989 0.419871 0.168666
C38   C     C_R   0.202440 0.356011 0.580128 0.168679
C39   C     C_R   0.713514 0.507395 0.490493 0.009440
C40   C     C_R   0.286487 0.492606 0.509508 0.009440
C41   C     C_R   0.628766 0.536155 0.478483 -0.045896
C42   C     C_R   0.371236 0.463848 0.521519 -0.045886
C43   C     C_R   0.635218 0.625479 0.437929 0.043499
C44   C     C_R   0.364784 0.374524 0.562073 0.043481
C45   C     C_R   0.067215 0.581315 0.117363 0.534555
C46   C     C_R   0.932784 0.418685 0.882636 0.534554
C47   C     C_R   0.539462 0.481167 0.505918 0.020225
C48   C     C_R   0.460541 0.518837 0.494085 0.020237
C49   C     C_R   0.473883 0.610897 0.455803 -0.320267
C50   C     C_R   0.526121 0.389108 0.544202 -0.320242
C51   C     C_R   0.557917 0.662086 0.426598 0.430193
C52   C     C_R   0.442087 0.337919 0.573405 0.430183
C53   C     C_R   0.934780 0.416669 0.122394 0.532629
C54   C     C_R   0.065220 0.583332 0.877606 0.532629
C55   C     C_R   0.932820 0.415519 0.062638 -0.014309
C56   C     C_R   0.067180 0.584481 0.937362 -0.014309
C57   C     C_R   0.000284 0.499728 0.030088 -0.017685
C58   C     C_R   0.999716 0.500273 0.969912 -0.017685
C59   C     C_R   0.068297 0.583402 0.057565 -0.015010
C60   C     C_R   0.931703 0.416598 0.942434 -0.015010
C61   C     C_R   0.865335 0.332437 0.034806 -0.161074
C62   C     C_R   0.134665 0.667563 0.965193 -0.161074
C63   C     C_R   0.864776 0.332975 0.975325 -0.162850
C64   C     C_R   0.135224 0.667026 0.024675 -0.162849
Cu1   Cu    Cu3+1 0.081740 0.475680 0.515360 0.965931
Cu2   Cu    Cu3+1 0.918260 0.524320 0.484640 0.965932
H1    H     H_    0.812727 0.266767 0.058856 0.189150
H2    H     H_    0.187273 0.733233 0.941143 0.189150
H3    H     H_    0.808931 0.977610 0.501323 0.151000
H4    H     H_    0.191069 0.022385 0.498689 0.151000
H5    H     H_    0.463347 0.799993 0.493111 0.144630
H6    H     H_    0.536655 0.199999 0.506911 0.144636
H7    H     H_    0.282518 0.555262 0.476202 0.125709
H8    H     H_    0.717483 0.444739 0.523799 0.125711
H9    H     H_    0.724505 0.745343 0.376649 0.192864
H10   H     H_    0.275494 0.254657 0.623351 0.192854
H11   H     H_    0.420595 0.646382 0.447795 0.134908
H12   H     H_    0.579412 0.353625 0.552213 0.134929
H13   H     H_    0.811782 0.267688 0.955247 0.188407
H14   H     H_    0.188217 0.732312 0.044753 0.188407
H15   H     H_    0.147302 0.496888 0.805673 0.147598
H16   H     H_    0.852698 0.503110 0.194327 0.147599
H17   H     H_    0.149026 0.497639 0.701638 0.188396
H18   H     H_    0.850973 0.502360 0.298362 0.188396
H19   H     H_    0.850848 0.505048 0.657253 0.155460
H20   H     H_    0.149152 0.494953 0.342747 0.155460
H21   H     H_    0.851198 0.505841 0.761454 0.140862
H22   H     H_    0.148802 0.494161 0.238545 0.140863
H23   H     H_    0.638660 0.850372 0.496761 0.172197
H24   H     H_    0.361342 0.149621 0.503258 0.172207
H25   H     H_    0.312253 0.763901 0.483777 0.141041
H26   H     H_    0.687746 0.236102 0.516220 0.141046
H27   H     H_    0.073269 0.847346 0.494746 0.195551
H28   H     H_    0.926730 0.152652 0.505259 0.195554
N1    N     N_R   0.001123 0.498816 0.148412 -0.467821
N2    N     N_R   0.998876 0.501184 0.851588 -0.467821
N3    N     N_R   0.795430 0.560810 0.461550 -0.218594
N4    N     N_R   0.204570 0.439190 0.538450 -0.218594
O1    O     O_R   0.977900 0.338110 0.520250 -0.573201
O2    O     O_R   0.022100 0.661890 0.479750 -0.573200
O3    O     O_R   0.839850 0.379180 0.494310 -0.597630
O4    O     O_R   0.160150 0.620820 0.505690 -0.597630
O5    O     O_R   0.069020 0.479430 0.595090 -0.554521
O6    O     O_R   0.930980 0.520570 0.404910 -0.554522
O7    O     O_R   0.930970 0.520500 0.569150 -0.596030
O8    O     O_R   0.069030 0.479500 0.430850 -0.596030
O9    O     O_2   0.130978 0.661397 0.144163 -0.540276
O10   O     O_2   0.869021 0.338604 0.855837 -0.540274
O11   O     O_2   0.871439 0.336127 0.154398 -0.538278
O12   O     O_2   0.128561 0.663873 0.845602 -0.538279
O13   O     O_3   0.568907 0.754045 0.390785 -0.589875
C65   C     C_3   0.504905 0.736214 0.336468 0.044942
H29   H     H_    0.424057 0.700417 0.342857 0.146239
H30   H     H_    0.522002 0.686929 0.314567 0.147076
C66   C     C_3   0.521775 0.836719 0.295700 -0.726962
H31   H     H_    0.601585 0.873905 0.287672 0.250184
H32   H     H_    0.471766 0.823864 0.252766 0.208317
H33   H     H_    0.504320 0.887241 0.316104 0.253470
O14   O     O_3   0.431102 0.245962 0.609218 -0.589876
C67   C     C_3   0.495065 0.263802 0.663546 0.044925
H34   H     H_    0.477878 0.313019 0.685451 0.147092
H35   H     H_    0.575922 0.299680 0.657175 0.146228
C68   C     C_3   0.478259 0.163291 0.704298 -0.726949
H36   H     H_    0.495818 0.112843 0.683893 0.253452
H37   H     H_    0.528226 0.176155 0.747244 0.208314
H38   H     H_    0.398437 0.126017 0.712302 0.250203
C69   C     C_2   0.118641 0.297242 0.614483 0.883442
O15   O     O_2   0.113357 0.328072 0.657028 -0.606733
O16   O     O_R   0.052575 0.200736 0.602567 -0.784420
H39   H     H_    0.999925 0.166043 0.630190 0.333353
C70   C     C_2   0.881358 0.702757 0.385516 0.883444
O17   O     O_2   0.886641 0.671927 0.342971 -0.606731
O18   O     O_R   0.947426 0.799262 0.397433 -0.784418
H40   H     H_    0.000076 0.833955 0.369810 0.333353

loop_
_geom_bond_atom_site_label_1
_geom_bond_atom_site_label_2
_ccdc_geom_bond_type
C18   H4    S    
C20   H27   S    
C17   H3    S    
C53   N1    A    
C64   H14   S    
Cu1   O8    S    
O13   C65   S    
C38   N4    A    
C43   C51   A    
C1    O1    A    
C37   N3    A    
C38   C69   S    
C68   H36   S    
C39   C41   A    
C63   H13   S    
C27   C33   A    
C15   C19   A    
C35   H9    S    
C59   C64   A    
C60   C63   A    
Cu2   N3    S    
C35   C37   A    
Cu1   N4    S    
C29   C32   A    
C40   N4    A    
C30   C31   A    
C5    H17   S    
C39   N3    A    
C2    O4    A    
C58   C60   A    
C66   H31   S    
C23   O7    A    
C40   H7    S    
C54   O12   S    
C39   H8    S    
Cu2   O2    S    
C61   C63   A    
C62   C64   A    
C36   H10   S    
C68   H37   S    
C9    H19   S    
C23   O5    A    
C11   H21   S    
C66   H32   S    
C46   O10   S    
C3    H15   S    
C50   C52   A    
C22   H25   S    
C31   C33   A    
C1    C15   S    
C51   O13   S    
C56   C58   A    
C2    C16   S    
C54   N2    A    
C3    C13   A    
C67   C68   S    
C3    C5    A    
C44   C52   A    
C40   C42   A    
C28   C34   A    
C41   C43   A    
Cu2   O3    S    
C42   C44   A    
Cu1   O4    S    
C50   H12   S    
C65   H30   S    
C65   H29   S    
C67   H35   S    
C47   C50   A    
C53   C55   A    
C25   C29   A    
C54   C56   A    
C6    H18   S    
C12   H22   S    
C13   N2    S    
C17   C27   A    
Cu2   O6    S    
C18   C28   A    
Cu1   O1    S    
C4    C6    A    
C5    C7    A    
C17   C19   A    
C68   H38   S    
C6    C8    A    
C49   C51   A    
C37   C70   S    
C24   O6    A    
C32   C34   A    
C69   O16   S    
C29   C30   A    
C33   H23   S    
C61   H1    S    
C47   C48   A    
C16   C20   A    
C66   H33   S    
C41   C47   A    
C46   N2    A    
C42   C48   A    
C9    C11   A    
C19   H28   S    
C10   C12   A    
C48   C49   A    
C12   C14   A    
C26   C30   A    
C55   C57   A    
O18   H40   S    
C56   C62   A    
C36   C44   A    
C24   O8    A    
Cu1   O5    S    
Cu2   O7    S    
C70   O17   D    
C45   N1    A    
C1    O3    A    
C14   N1    S    
C35   C43   A    
C67   H34   S    
O16   H39   S    
C53   O11   S    
C7    C9    A    
C21   C25   A    
C34   H24   S    
C45   C59   A    
C16   C22   A    
C46   C60   A    
C70   O18   S    
O14   C67   S    
C25   C27   A    
C26   C28   A    
C62   H2    S    
C36   C38   A    
C11   C13   A    
C10   H20   S    
C57   C58   A    
C7    C23   S    
C55   C61   A    
C31   H5    S    
C8    C24   S    
C49   H11   S    
C18   C20   A    
C4    C14   A    
C57   C59   A    
C2    O2    A    
C52   O14   S    
C45   O9    S    
C15   C21   A    
C4    H16   S    
C8    C10   A    
Cu1   Cu2   S    
C22   C26   A    
C65   C66   S    
C69   O15   D    
C32   H6    S    
C21   H26   S    
