data_mof_unit_41145.cif
_audit_creation_date              2012-12-10T17:27:56-0500
_audit_creation_method            fapswitch 2.2
_symmetry_space_group_name_H-M    P1
_symmetry_Int_Tables_number       1
_space_group_crystal_system       triclinic
_cell_length_a                    10.621372
_cell_length_b                    12.039586
_cell_length_c                    12.818822
_cell_angle_alpha                 94.308248
_cell_angle_beta                  91.16924
_cell_angle_gamma                 86.805761
_cell_volume                      1631.84342139

loop_
_atom_site_label
_atom_site_type_symbol
_atom_type_description
_atom_site_fract_x
_atom_site_fract_y
_atom_site_fract_z
_atom_type_partial_charge
C1    C     C_R   0.498570 0.522734 0.700152 0.828676
C2    C     C_R   0.406807 0.615360 0.859380 -0.217321
C3    C     C_R   0.563932 0.461511 0.868262 -0.181313
C4    C     C_R   0.739313 0.501165 0.504146 0.906537
C5    C     C_R   0.545961 0.460388 0.974221 0.142252
C6    C     C_R   0.454643 0.535324 0.023309 0.091508
C7    C     C_R   0.432979 0.530131 0.129104 0.423833
C8    C     C_R   0.607768 0.388196 0.138986 -0.084191
C9    C     C_R   0.618337 0.385162 0.031041 -0.303139
C10   C     C_R   0.371828 0.950964 0.409190 -0.282153
C11   C     C_R   0.386642 0.835778 0.416697 0.033340
C12   C     C_R   0.938884 0.461975 0.598337 0.094897
C13   C     C_R   0.556056 0.859476 0.538124 -0.036415
C14   C     C_R   0.545265 0.976421 0.532897 0.069081
C15   C     C_R   0.450382 0.023473 0.468704 0.071384
C16   C     C_R   0.504768 0.477139 0.299707 0.990187
C17   C     C_R   0.439481 0.141384 0.464430 0.066456
C18   C     C_R   0.615022 0.162400 0.581199 0.045908
C19   C     C_R   0.627221 0.046807 0.589670 -0.307060
C20   C     C_R   0.260692 0.500022 0.503320 0.854172
C21   C     C_R   0.878146 0.425425 0.685587 -0.189568
C22   C     C_R   0.947917 0.388533 0.770847 -0.249656
C23   C     C_R   0.871635 0.503606 0.512151 -0.077028
C24   C     C_R   0.079553 0.387877 0.771625 0.070338
C25   C     C_R   0.140689 0.423988 0.685257 -0.148393
C26   C     C_R   0.070842 0.460776 0.597947 0.061308
C27   C     C_2   0.337460 0.193861 0.402017 0.421863
C28   C     C_2   0.151648 0.350854 0.863893 0.365743
C29   C     C_3   0.225363 0.536950 0.167341 -0.357607
C30   C     C_2   0.701558 0.317987 0.195685 0.419914
C31   C     C_R   0.930855 0.548554 0.430720 -0.159458
C32   C     C_R   0.059327 0.547736 0.430624 -0.218389
C33   C     C_R   0.128450 0.500975 0.511113 -0.061564
C34   C     C_R   0.514216 0.461899 0.187865 -0.212334
C35   C     C_R   0.493041 0.537124 0.811262 -0.013863
C36   C     C_R   0.386802 0.614049 0.965620 -0.158894
H1    H     H_    0.877445 0.582033 0.366051 0.160657
H2    H     H_    0.776596 0.427225 0.689780 0.132099
H3    H     H_    0.898709 0.361730 0.836996 0.124688
H4    H     H_    0.242338 0.425467 0.688011 0.180308
H5    H     H_    0.105383 0.582296 0.366955 0.151532
H6    H     H_    0.317545 0.673424 0.001828 0.182521
H7    H     H_    0.358659 0.249522 0.343334 0.085393
H8    H     H_    0.102163 0.325114 0.930545 0.051599
H9    H     H_    0.230363 0.467649 0.220252 0.165951
H10   H     H_    0.205849 0.503955 0.085379 0.176692
H11   H     H_    0.144381 0.594956 0.190501 0.189744
H12   H     H_    0.688775 0.328833 0.991911 0.136948
H13   H     H_    0.741457 0.241158 0.156858 0.060019
H14   H     H_    0.350862 0.673129 0.814104 0.156830
H15   H     H_    0.630956 0.401654 0.829384 0.124773
H16   H     H_    0.679215 0.216199 0.624368 0.136062
H17   H     H_    0.299935 0.981621 0.356055 0.185498
H18   H     H_    0.700969 0.012674 0.639496 0.150857
H19   H     H_    0.325605 0.780771 0.371390 0.165122
H20   H     H_    0.627381 0.821893 0.587972 0.127703
N1    N     N_R   0.523130 0.207800 0.519340 -0.135687
N2    N     N_R   0.476870 0.792180 0.480660 -0.106957
O1    O     O_R   0.506170 0.421690 0.658830 -0.621866
O2    O     O_2   0.266750 0.348564 0.866821 -0.571353
O3    O     O_3   0.336398 0.596294 0.176615 -0.614663
O4    O     O_2   0.741267 0.347611 0.282719 -0.561203
O5    O     O_R   0.491330 0.609320 0.646410 -0.627471
O6    O     O_R   0.690660 0.406170 0.506210 -0.586749
O7    O     O_R   0.675810 0.593790 0.493790 -0.637049
O8    O     O_R   0.508670 0.390680 0.353590 -0.629355
O9    O     O_R   0.493830 0.578310 0.341170 -0.580551
O10   O     O_R   0.324190 0.406210 0.506210 -0.618509
O11   O     O_R   0.309340 0.593830 0.493790 -0.619472
O12   O     O_2   0.227414 0.176362 0.417125 -0.570861
Zn1   Zn    Zn3+2 0.509910 0.374720 0.508290 0.975844
Zn2   Zn    Zn3+2 0.490090 0.625280 0.491710 0.961856

loop_
_geom_bond_atom_site_label_1
_geom_bond_atom_site_label_2
_ccdc_geom_bond_type
C2    C35   A    
O11   Zn2   S    
C32   H5    S    
C31   H1    S    
C24   C25   A    
C5    C9    A    
C6    C7    A    
O7    Zn2   S    
C4    O6    A    
C18   N1    A    
C36   H6    S    
O8    Zn1   S    
C3    C35   A    
C29   H10   S    
C13   H20   S    
C8    C30   S    
C32   C33   A    
C28   O2    D    
C25   C26   A    
C18   H16   S    
C25   H4    S    
C16   O9    A    
C8    C34   A    
C21   C22   A    
N1    Zn1   S    
C12   C23   A    
N2    Zn2   S    
C4    O7    A    
C27   O12   D    
C12   C21   A    
C29   H11   S    
O10   Zn1   S    
C22   H3    S    
C1    O5    A    
C19   H18   S    
C30   H13   S    
C6    C36   A    
O9    Zn2   S    
C22   C24   A    
C10   C15   A    
C1    O1    A    
C30   O4    D    
C12   C26   A    
C5    C6    A    
C7    C34   A    
C29   O3    S    
C20   O11   A    
C16   O8    A    
C10   C11   A    
C20   C33   S    
C23   C31   A    
C11   N2    A    
C20   O10   A    
C27   H7    S    
C11   H19   S    
O5    Zn2   S    
C1    C35   S    
C9    H12   S    
C18   C19   A    
O6    Zn1   S    
C2    C36   A    
O1    Zn1   S    
C15   C17   A    
C10   H17   S    
C3    H15   S    
C14   C15   A    
C7    O3    S    
C13   N2    A    
C2    H14   S    
C16   C34   S    
C4    C23   S    
C13   C14   A    
C14   C19   A    
C28   H8    S    
C31   C32   A    
C29   H9    S    
C21   H2    S    
C24   C28   S    
C26   C33   A    
C17   N1    A    
C8    C9    A    
C3    C5    A    
C17   C27   S    
