data_mof_unit_25479.cif
_audit_creation_date              2013-03-05T16:03:41-0500
_audit_creation_method            fapswitch 2.2
_symmetry_space_group_name_H-M    P1
_symmetry_Int_Tables_number       1
_space_group_crystal_system       triclinic
_cell_length_a                    14.760448
_cell_length_b                    14.159353
_cell_length_c                    19.235024
_cell_angle_alpha                 89.998007
_cell_angle_beta                  88.303084
_cell_angle_gamma                 90.003151
_cell_volume                      4018.32612143

loop_
_atom_site_label
_atom_site_type_symbol
_atom_site_description
_atom_site_fract_x
_atom_site_fract_y
_atom_site_fract_z
_atom_type_partial_charge
O1    O     O_R   0.367850 0.580280 0.500020 -0.619794
O2    O     O_R   0.632150 0.419720 0.499980 -0.613955
O3    O     O_R   0.632150 0.580280 0.499980 -0.619540
O4    O     O_R   0.367850 0.419720 0.500020 -0.613825
C1    C     C_R   0.326686 0.499771 0.500980 0.920425
C2    C     C_R   0.673317 0.499772 0.498949 0.920210
O5    O     O_R   0.499990 0.580300 0.398140 -0.623029
O6    O     O_R   0.500010 0.419700 0.601860 -0.627386
O7    O     O_R   0.500010 0.580300 0.601860 -0.622913
O8    O     O_R   0.499990 0.419700 0.398140 -0.627302
C3    C     C_R   0.499918 0.499957 0.365694 0.889852
C4    C     C_R   0.500129 0.499958 0.634306 0.890067
Zn1   Zn    Zn3+2 0.500000 0.607200 0.500000 0.958398
Zn2   Zn    Zn3+2 0.500000 0.392800 0.500000 0.961416
C5    C     C_R   0.497224 0.585149 0.253701 -0.207835
C6    C     C_R   0.497932 0.413808 0.745936 -0.219245
C7    C     C_R   0.503816 0.585153 0.746236 -0.208805
C8    C     C_R   0.503775 0.413771 0.254063 -0.218694
H1    H     H_    0.493727 0.651848 0.281353 0.166040
H2    H     H_    0.495829 0.347316 0.718028 0.163612
H3    H     H_    0.505767 0.651887 0.718570 0.166389
H4    H     H_    0.506558 0.347314 0.281965 0.163796
C9    C     C_R   0.498260 0.585384 0.181525 0.002960
C10   C     C_R   0.498417 0.412761 0.818061 0.005305
C11   C     C_R   0.503993 0.585437 0.818385 0.002366
C12   C     C_R   0.504580 0.412762 0.181913 0.004764
C13   C     C_R   0.501838 0.498871 0.145291 -0.005549
C14   C     C_R   0.501440 0.498903 0.854744 -0.006470
C15   C     C_R   0.500132 0.499665 0.290109 -0.055330
C16   C     C_R   0.500639 0.499681 0.709878 -0.055374
N1    N     N_R   0.438671 0.448672 0.036069 -0.154162
N2    N     N_R   0.565397 0.548145 0.964140 -0.154312
N3    N     N_R   0.438499 0.448772 0.967135 -0.150018
N4    N     N_R   0.565494 0.548177 0.033079 -0.149717
C17   C     C_R   0.501846 0.498522 0.930283 0.285596
C18   C     C_R   0.502125 0.498435 0.069867 0.285790
C19   C     C_R   0.816638 0.479839 0.433621 -0.084537
C20   C     C_R   0.183065 0.478851 0.565520 -0.085384
C21   C     C_R   0.770615 0.496071 0.497503 -0.120641
C22   C     C_R   0.229417 0.496075 0.501958 -0.120628
C23   C     C_R   0.812886 0.487247 0.561231 0.117572
C24   C     C_R   0.187493 0.488251 0.437990 0.117934
C25   C     C_R   0.902249 0.453566 0.561479 0.079116
C26   C     C_R   0.097954 0.455017 0.437178 0.078902
C27   C     C_R   0.952777 0.450950 0.498137 -0.066025
C28   C     C_R   0.047303 0.450900 0.500386 -0.065907
C29   C     C_R   0.909649 0.455111 0.432968 0.026841
C30   C     C_R   0.090347 0.453361 0.565593 0.026769
C31   C     C_R   0.943276 0.420661 0.622396 0.183046
C32   C     C_R   0.056922 0.423930 0.375787 0.182832
C33   C     C_R   0.038711 0.425700 0.626437 0.165210
C34   C     C_R   0.961528 0.429702 0.371617 0.165195
C35   C     C_R   0.558041 0.797542 0.455937 0.044986
C36   C     C_R   0.444748 0.202518 0.546093 0.045676
C37   C     C_R   0.441931 0.797513 0.544055 0.045128
C38   C     C_R   0.555244 0.202513 0.453914 0.045858
N5    N     N_R   0.500000 0.750030 0.500000 -0.153300
N6    N     N_R   0.500000 0.249970 0.500000 -0.152702
C39   C     C_R   0.438144 0.898763 0.544165 -0.053011
C40   C     C_R   0.554186 0.101407 0.450442 -0.053364
C41   C     C_R   0.561802 0.898788 0.455820 -0.052981
C42   C     C_R   0.445737 0.101401 0.549544 -0.053440
C43   C     C_R   0.499969 0.949353 0.499994 -0.010652
C44   C     C_R   0.499961 0.050754 0.499993 -0.010284
C45   C     C_R   0.377284 0.951636 0.588136 0.180368
C46   C     C_R   0.607250 0.048881 0.400960 0.180239
C47   C     C_R   0.622627 0.951680 0.411823 0.180214
C48   C     C_R   0.392627 0.048852 0.599001 0.180131
C49   C     C_1   0.492854 0.675099 0.145978 0.183143
N7    N     N_1   0.488516 0.746918 0.117544 -0.170572
C50   C     C_1   0.498599 0.322298 0.852945 0.181022
N8    N     N_1   0.498761 0.249857 0.880808 -0.171344
C51   C     C_1   0.503830 0.675522 0.853797 0.185870
N9    N     N_1   0.503654 0.747651 0.882099 -0.170180
C52   C     C_1   0.511024 0.322676 0.146712 0.181050
N10   N     N_1   0.516218 0.250551 0.118573 -0.172021
C53   C     C_1   0.767480 0.497279 0.370608 0.195990
N11   N     N_1   0.727529 0.511007 0.320694 -0.188003
C54   C     C_1   0.231182 0.496851 0.628951 0.196197
N12   N     N_1   0.270258 0.511083 0.679206 -0.187773
C55   C     C_3   0.764918 0.525458 0.626404 -0.894686
H5    H     H_    0.735072 0.595691 0.615374 0.246357
H6    H     H_    0.709534 0.477047 0.643713 0.232378
H7    H     H_    0.811898 0.537347 0.669419 0.257998
C56   C     C_3   0.236009 0.527128 0.373262 -0.894698
H8    H     H_    0.266582 0.596797 0.384981 0.246398
H9    H     H_    0.290879 0.478361 0.355528 0.232541
H10   H     H_    0.189238 0.540476 0.330345 0.257537
C57   C     C_3   0.887118 0.368799 0.677720 -0.896723
H11   H     H_    0.816556 0.356067 0.662026 0.255230
H12   H     H_    0.915418 0.297081 0.685595 0.243807
H13   H     H_    0.886412 0.408507 0.727508 0.248195
C58   C     C_3   0.112968 0.372753 0.320051 -0.895764
H14   H     H_    0.183007 0.358111 0.336234 0.255246
H15   H     H_    0.083431 0.301947 0.310611 0.244553
H16   H     H_    0.115263 0.414051 0.270960 0.247564
C59   C     C_3   0.083864 0.397171 0.693325 -0.853603
H17   H     H_    0.040228 0.356810 0.730261 0.242290
H18   H     H_    0.142808 0.350574 0.681460 0.249316
H19   H     H_    0.104564 0.461232 0.721930 0.249380
C60   C     C_3   0.916895 0.404810 0.303755 -0.853794
H20   H     H_    0.961406 0.368524 0.265097 0.242410
H21   H     H_    0.859153 0.355951 0.313876 0.249226
H22   H     H_    0.894667 0.470282 0.277651 0.249015
C61   C     C_1   0.610197 0.741594 0.406781 0.257294
N13   N     N_1   0.652409 0.697167 0.367075 -0.203832
C62   C     C_1   0.381368 0.258189 0.587067 0.261185
N14   N     N_1   0.330326 0.302438 0.620256 -0.222271
C63   C     C_1   0.389741 0.741519 0.593177 0.257188
N15   N     N_1   0.347509 0.697029 0.632842 -0.204412
C64   C     C_1   0.618775 0.258130 0.413025 0.260699
N16   N     N_1   0.669963 0.302306 0.379908 -0.221927
C65   C     C_3   0.290358 0.909946 0.619077 -0.894637
H23   H     H_    0.238457 0.965301 0.629598 0.251497
H24   H     H_    0.258718 0.861438 0.581496 0.240726
H25   H     H_    0.303624 0.873817 0.668941 0.250065
C66   C     C_3   0.640220 0.090946 0.332155 -0.890216
H26   H     H_    0.647525 0.035857 0.291272 0.256131
H27   H     H_    0.589679 0.141357 0.312032 0.237813
H28   H     H_    0.707160 0.125311 0.337807 0.246218
C67   C     C_3   0.709536 0.910034 0.380831 -0.894414
H29   H     H_    0.761411 0.965414 0.370286 0.251491
H30   H     H_    0.741227 0.861529 0.418388 0.240664
H31   H     H_    0.696235 0.873919 0.330970 0.250228
C68   C     C_3   0.359524 0.090918 0.667765 -0.890079
H32   H     H_    0.352007 0.035826 0.708631 0.256043
H33   H     H_    0.410094 0.141221 0.687989 0.237992
H34   H     H_    0.292660 0.125397 0.662006 0.246110

loop_
_geom_bond_atom_site_label_1
_geom_bond_atom_site_label_2
_geom_bond_distance
_ccdc_geom_bond_type
C33   C59   1.521022 S    
C58   H14   1.108021 S    
C37   C39   1.434724 A    
C51   N9    1.157311 T    
C9    C49   1.445935 S    
C64   N16   1.157281 T    
C8    C12   1.387582 A    
O3    C2    1.291687 A    
C59   H19   1.108513 S    
C59   H17   1.104091 S    
C21   C23   1.397435 A    
C53   N11   1.157939 T    
C11   C14   1.410727 A    
O5    C3    1.297580 A    
C12   C13   1.409277 A    
C60   H20   1.104398 S    
C36   C62   1.440197 S    
O1    C1    1.291610 A    
C11   C51   1.446013 S    
C66   H27   1.110394 S    
Zn1   N5    2.022380 S    
C20   C54   1.452361 S    
C6    C16   1.399778 A    
C41   C43   1.421887 A    
O7    Zn1   1.995948 S    
C67   H31   1.109528 S    
C42   C44   1.420635 A    
C59   H18   1.110264 S    
C35   C41   1.434646 A    
C30   C33   1.432164 A    
C14   C17   1.453194 S    
C31   C33   1.414891 A    
C46   C66   1.518184 S    
C68   H34   1.109596 S    
C32   C34   1.415085 A    
C62   N14   1.157274 T    
N1    N3    1.326022 A    
C9    C13   1.409612 A    
C19   C29   1.416537 A    
C38   C64   1.440243 S    
C20   C30   1.415298 A    
O3    Zn1   1.987495 S    
C6    H2    1.084684 S    
C65   H25   1.109536 S    
C22   C24   1.397956 A    
C46   C47   1.411466 A    
C40   C46   1.424256 A    
C6    C10   1.387628 A    
C37   C63   1.439305 S    
C7    C16   1.399263 A    
C23   C25   1.402760 A    
O2    C2    1.285938 A    
C24   C26   1.403404 A    
C47   C67   1.517740 S    
C55   H6    1.110324 S    
C26   C28   1.409505 A    
C5    C15   1.399667 A    
N1    C18   1.353654 A    
C27   C29   1.423833 A    
Zn2   N6    2.022382 S    
C28   C30   1.423087 A    
C34   C60   1.520874 S    
C56   H9    1.110330 S    
N2    C17   1.354204 A    
O8    Zn2   1.995952 S    
C66   H28   1.109588 S    
C8    C15   1.400219 A    
C35   N5    1.364470 A    
C25   C31   1.413793 A    
C36   C42   1.433392 A    
C56   H8    1.110655 S    
C19   C53   1.452117 S    
C55   H5    1.110668 S    
C38   C40   1.433252 A    
N2    N4    1.326086 A    
C5    H1    1.084384 S    
C52   N10   1.157306 T    
C35   C61   1.439171 S    
C41   C47   1.427582 A    
O6    C4    1.296543 A    
C45   C48   1.411579 A    
C23   C55   1.520881 S    
C12   C52   1.445967 S    
C24   C56   1.520884 S    
C57   H13   1.110312 S    
C25   C27   1.410055 A    
C67   H29   1.110428 S    
C58   H16   1.110320 S    
C37   N5    1.364496 A    
C68   H32   1.110617 S    
O1    Zn1   1.987455 S    
C55   H7    1.108042 S    
C65   H23   1.110437 S    
C36   N6    1.363701 A    
C56   H10   1.107939 S    
C26   C32   1.413281 A    
O6    Zn2   1.995974 S    
C4    C16   1.453869 S    
C8    H4    1.084646 S    
C45   C65   1.517742 S    
C10   C14   1.410497 A    
C31   C57   1.518706 S    
O4    C1    1.285964 A    
C32   C58   1.518684 S    
C29   C34   1.433519 A    
C43   C44   1.435780 A    
C13   C18   1.450682 S    
C60   H22   1.108568 S    
C61   N13   1.157215 T    
C39   C43   1.421881 A    
C60   H21   1.110417 S    
C42   C48   1.424380 A    
C40   C44   1.420616 A    
C7    C11   1.387881 A    
C50   N8    1.157307 T    
C19   C21   1.405269 A    
C66   H26   1.110625 S    
C39   C45   1.427555 A    
C20   C22   1.404554 A    
C5    C9    1.387935 A    
N3    C17   1.354105 A    
C38   N6    1.363661 A    
N4    C18   1.353645 A    
O4    Zn2   1.987496 S    
C49   N7    1.157320 T    
O2    Zn2   1.987453 S    
O7    C4    1.297558 A    
C7    H3    1.084406 S    
C67   H30   1.110137 S    
O8    C3    1.296487 A    
C54   N12   1.157895 T    
C27   C28   1.397202 A    
O5    Zn1   1.995978 S    
C3    C15   1.453799 S    
C58   H15   1.110334 S    
C57   H12   1.110139 S    
C1    C22   1.436250 S    
C68   H33   1.110383 S    
C2    C21   1.436562 S    
C57   H11   1.107703 S    
C63   N15   1.157273 T    
C48   C68   1.518173 S    
C10   C50   1.446027 S    
C65   H24   1.110133 S    
