data_mof_unit_7777.cif
_audit_creation_date              2012-12-10T16:50:15-0500
_audit_creation_method            fapswitch 2.2
_symmetry_space_group_name_H-M    P1
_symmetry_Int_Tables_number       1
_space_group_crystal_system       triclinic
_cell_length_a                    23.491303
_cell_length_b                    8.681164
_cell_length_c                    7.432574
_cell_angle_alpha                 103.025524
_cell_angle_beta                  94.402272
_cell_angle_gamma                 92.463016
_cell_volume                      1469.54428181

loop_
_atom_site_label
_atom_site_type_symbol
_atom_type_description
_atom_site_fract_x
_atom_site_fract_y
_atom_site_fract_z
_atom_type_partial_charge
C1    C     C_R   0.498173 0.199576 0.453142 0.875157
C2    C     C_R   0.501827 0.800424 0.546857 0.875163
C3    C     C_R   0.235122 0.556458 0.371451 0.602373
C4    C     C_R   0.764885 0.443620 0.628581 0.602377
C5    C     C_R   0.294698 0.560452 0.367407 0.108651
C6    C     C_R   0.705308 0.439625 0.632638 0.108666
C7    C     C_R   0.328680 0.510915 0.507544 -0.137462
C8    C     C_R   0.671321 0.489085 0.492455 -0.137471
C9    C     C_R   0.302387 0.465033 0.652387 -0.287288
C10   C     C_R   0.697609 0.534894 0.347559 -0.287306
C11   C     C_R   0.243170 0.462699 0.655464 -0.177237
C12   C     C_R   0.756825 0.537233 0.344472 -0.177244
C13   C     C_R   0.209406 0.506582 0.514179 0.210105
C14   C     C_R   0.790595 0.493425 0.485798 0.210096
C15   C     C_2   0.497181 0.031654 0.426739 -0.379782
C16   C     C_2   0.502819 0.968346 0.573261 -0.379791
C17   C     C_R   0.391057 0.503403 0.502479 0.843919
C18   C     C_R   0.608943 0.496596 0.497521 0.843912
C19   C     C_R   0.884033 0.608757 0.619752 0.619310
C20   C     C_R   0.115968 0.391273 0.380196 0.619284
C21   C     C_R   0.876238 0.391789 0.354144 0.586080
C22   C     C_R   0.123763 0.608220 0.645826 0.586092
C23   C     C_R   0.935961 0.390168 0.356963 -0.025187
C24   C     C_R   0.064041 0.609851 0.642996 -0.025192
C25   C     C_R   0.969925 0.500341 0.496403 -0.015425
C26   C     C_R   0.030076 0.499684 0.503550 -0.015417
C27   C     C_R   0.943881 0.611070 0.628838 -0.028828
C28   C     C_R   0.056120 0.388958 0.371111 -0.028824
C29   C     C_R   0.962394 0.280317 0.225519 -0.139459
C30   C     C_R   0.037608 0.719706 0.774436 -0.139466
C31   C     C_R   0.021879 0.279647 0.232593 -0.156816
C32   C     C_R   0.978122 0.720383 0.767354 -0.156808
Cu1   Cu    Cu3+1 0.506340 0.517380 0.684380 0.958691
Cu2   Cu    Cu3+1 0.493660 0.482620 0.315620 0.958694
H1    H     H_    0.937246 0.194366 0.117066 0.197121
H2    H     H_    0.062755 0.805654 0.882892 0.197122
H3    H     H_    0.040897 0.193423 0.129106 0.186599
H4    H     H_    0.959105 0.806611 0.870838 0.186600
H5    H     H_    0.327573 0.427551 0.761357 0.183997
H6    H     H_    0.672419 0.572318 0.238553 0.184003
H7    H     H_    0.223378 0.424822 0.766464 0.201509
H8    H     H_    0.776612 0.575056 0.233429 0.201533
H9    H     H_    0.491776 0.959790 0.285617 0.181617
H10   H     H_    0.508224 0.040210 0.714383 0.181616
H11   H     H_    0.454812 0.379119 0.948467 0.225784
H12   H     H_    0.545188 0.620881 0.051533 0.225788
N1    N     N_R   0.851630 0.499268 0.485057 -0.446303
N2    N     N_R   0.148370 0.500747 0.514908 -0.446302
N3    N     N_2   0.484110 0.456420 0.038520 -0.211497
N4    N     N_2   0.515890 0.543580 0.961480 -0.211495
O1    O     O_R   0.504120 0.286130 0.619770 -0.584375
O2    O     O_R   0.495880 0.713870 0.380230 -0.584357
O3    O     O_R   0.493410 0.256770 0.308360 -0.586684
O4    O     O_R   0.506590 0.743230 0.691640 -0.586679
O5    O     O_R   0.423230 0.514630 0.655730 -0.597065
O6    O     O_R   0.576770 0.485370 0.344270 -0.597072
O7    O     O_R   0.412530 0.485280 0.344320 -0.547295
O8    O     O_R   0.587470 0.514720 0.655680 -0.547293
O9    O     O_2   0.858312 0.714878 0.744452 -0.511845
O10   O     O_2   0.141690 0.285168 0.255480 -0.511859
O11   O     O_2   0.842992 0.285616 0.223435 -0.494010
O12   O     O_2   0.157010 0.714377 0.776553 -0.493999
F1    F     F_    0.202033 0.604222 0.238561 -0.643602
F2    F     F_    0.797978 0.395929 0.761516 -0.643617
N5    N     N_2   0.320087 0.615713 0.223726 -0.399247
H13   H     H_    0.295438 0.590241 0.098479 0.293315
C33   C     C_3   0.341924 0.779492 0.276380 -0.576850
H14   H     H_    0.306166 0.858715 0.305239 0.240214
H15   H     H_    0.364408 0.809330 0.161442 0.221122
H16   H     H_    0.372874 0.799990 0.401348 0.210688
N6    N     N_2   0.679927 0.384454 0.776392 -0.399257
H17   H     H_    0.704578 0.409999 0.901636 0.293269
C34   C     C_3   0.658094 0.220668 0.723871 -0.576804
H18   H     H_    0.693854 0.141440 0.695084 0.240222
H19   H     H_    0.627144 0.200092 0.598896 0.210697
H20   H     H_    0.635610 0.190911 0.838854 0.221121

loop_
_geom_bond_atom_site_label_1
_geom_bond_atom_site_label_2
_ccdc_geom_bond_type
Cu1   O5    S    
C22   N2    A    
Cu2   O6    S    
Cu1   O8    S    
C34   H18   S    
C23   C29   A    
C24   C26   A    
C19   N1    A    
C15   C16   D    
C9    H5    S    
C10   H6    S    
C1    O3    A    
C12   H8    S    
C18   O8    A    
N5    C33   S    
Cu2   O7    S    
C1    C15   S    
C32   H4    S    
C20   O10   S    
C19   C27   A    
C16   H10   S    
C21   O11   S    
C3    C13   A    
C18   O6    A    
C34   H19   S    
C10   C12   A    
H12   N4    S    
C6    N6    S    
C33   H14   S    
C5    N5    S    
C2    O4    A    
N6    C34   S    
C6    C8    A    
C20   C28   A    
C19   O9    S    
C25   C26   A    
C8    C18   S    
C31   H3    S    
C33   H15   S    
C22   O12   S    
C1    O1    A    
H11   N3    S    
Cu1   Cu2   S    
C9    C11   A    
C20   N2    A    
C2    O2    A    
C4    C6    A    
C12   C14   A    
N5    H13   S    
C21   C23   A    
C34   H20   S    
C22   C24   A    
C25   C27   A    
C2    C16   S    
C5    C7    A    
Cu1   O4    S    
C7    C9    A    
C17   O5    A    
Cu2   N3    S    
C27   C32   A    
C26   C28   A    
C28   C31   A    
C3    C5    A    
C7    C17   S    
C13   N2    S    
C14   N1    S    
C3    F1    S    
Cu1   O1    S    
C29   H1    S    
C4    F2    S    
Cu2   O2    S    
C30   H2    S    
C33   H16   S    
Cu1   N4    S    
C15   H9    S    
N6    H17   S    
C29   C31   A    
C30   C32   A    
C11   C13   A    
C11   H7    S    
C23   C25   A    
C4    C14   A    
C24   C30   A    
Cu2   O3    S    
C8    C10   A    
N3    N4    D    
C17   O7    A    
C21   N1    A    
