data_mof_unit_67294.cif
_audit_creation_date              2012-12-11T18:22:10-0500
_audit_creation_method            fapswitch 2.2
_symmetry_space_group_name_H-M    P1
_symmetry_Int_Tables_number       1
_space_group_crystal_system       triclinic
_cell_length_a                    8.31602
_cell_length_b                    14.445313
_cell_length_c                    15.051814
_cell_angle_alpha                 95.149283
_cell_angle_beta                  97.781519
_cell_angle_gamma                 92.420301
_cell_volume                      1781.54533357

loop_
_atom_site_label
_atom_site_type_symbol
_atom_type_description
_atom_site_fract_x
_atom_site_fract_y
_atom_site_fract_z
_atom_type_partial_charge
Ba1   Ba    Ba6+2 0.833400 0.543310 0.453520 1.689401
Ba2   Ba    Ba6+2 0.356420 0.456770 0.546480 1.725171
C1    C     C_3   0.441658 0.819838 0.092476 -0.063967
C2    C     C_R   0.892585 0.459249 0.928772 -0.063226
C3    C     C_R   0.050368 0.459530 0.111243 -0.093693
C4    C     C_3   0.049128 0.807743 0.202845 0.426249
C5    C     C_R   0.897098 0.416179 0.081284 0.573147
C6    C     C_R   0.810422 0.427275 0.998032 -0.043975
C7    C     C_R   0.125727 0.460757 0.202947 0.117497
C8    C     C_R   0.289616 0.492762 0.224329 -0.183885
C9    C     C_R   0.070223 0.531226 0.796293 0.007595
C10   C     C_R   0.138338 0.540322 0.889420 -0.002880
C11   C     C_R   0.053907 0.500089 0.954562 0.020203
C12   C     C_3   0.504779 0.778297 0.183438 0.441513
C13   C     C_R   0.289449 0.587813 0.919887 -0.046764
C14   C     C_R   0.362452 0.589349 0.009289 -0.139123
C15   C     C_R   0.287297 0.546062 0.073725 -0.027511
C16   C     C_3   0.012878 0.882764 0.138573 0.478106
C17   C     C_R   0.130329 0.502383 0.046727 -0.044622
C18   C     C_R   0.365943 0.543052 0.163629 -0.018242
C19   C     C_R   0.917072 0.484216 0.771959 -0.199284
C20   C     C_R   0.707304 0.938660 0.546541 0.009578
C21   C     C_R   0.514335 0.799968 0.496499 0.089948
C22   C     C_R   0.364496 0.765546 0.448075 -0.285462
C23   C     C_3   0.376898 0.220953 0.268092 0.816923
C24   C     C_R   0.253142 0.825950 0.411001 -0.039352
C25   C     C_R   0.294926 0.919922 0.414547 -0.087433
C26   C     C_R   0.448435 0.955963 0.456456 -0.027345
C27   C     C_R   0.558755 0.897335 0.500519 -0.097387
C28   C     C_3   0.214166 0.740085 0.638554 0.307958
C29   C     C_R   0.643167 0.090985 0.493207 -0.170570
C30   C     C_R   0.751745 0.033748 0.541854 -0.114556
C31   C     C_R   0.693219 0.185717 0.485029 0.033215
C32   C     C_R   0.853110 0.218783 0.522009 -0.233903
C33   C     C_R   0.952593 0.164568 0.578226 0.034186
C34   C     C_3   0.406143 0.130981 0.214098 0.567686
C35   C     C_R   0.903429 0.072167 0.585992 0.507955
C36   C     C_R   0.489437 0.050468 0.454158 0.565629
C37   C     C_3   0.243919 0.844977 0.656269 0.432611
C38   C     C_3   0.869257 0.242486 0.272746 0.375459
C39   C     C_3   0.887029 0.150031 0.217578 0.523695
C40   C     C_3   0.723916 0.676223 0.725110 0.337191
C41   C     C_3   0.737113 0.709570 0.825605 0.397526
C42   C     C_3   0.584186 0.850875 0.259106 -0.223384
C43   C     C_3   0.914727 0.162464 0.121235 -0.176252
C44   C     C_3   0.546746 0.806959 0.015214 -0.236052
C45   C     C_3   0.159287 0.188753 0.802081 0.350900
C46   C     C_3   0.890998 0.771456 0.858412 -0.323792
C47   C     C_3   0.401962 0.922279 0.104927 -0.387076
C48   C     C_3   0.162638 0.289689 0.843792 -0.291492
C49   C     C_3   0.207802 0.024189 0.841155 -0.293561
C50   C     C_3   0.612783 0.129182 0.737579 -0.137103
C51   C     C_3   0.019268 0.710650 0.151775 -0.253601
C52   C     C_3   0.628663 0.413976 0.993609 -0.270128
C53   C     C_3   0.388033 0.465645 0.309273 -0.163792
C54   C     C_3   0.924796 0.309375 0.497019 -0.201306
C55   C     C_3   0.225895 0.127237 0.875489 -0.188174
C56   C     C_3   0.691129 0.214454 0.797813 0.725969
C57   C     C_3   0.760685 0.185489 0.890260 0.434756
C58   C     C_R   0.825076 0.450001 0.835555 0.134310
F1    F     F_    0.392415 0.866269 0.709276 -0.716916
F2    F     F_    0.375464 0.100545 0.411788 -0.746367
F3    F     F_    0.848408 0.886777 0.113665 -0.740579
F4    F     F_    0.013622 0.104297 0.260490 -0.670294
F5    F     F_    0.734823 0.634779 0.876432 -0.773121
F6    F     F_    0.310016 0.279238 0.206817 -0.743986
F7    F     F_    0.262892 0.097197 0.161808 -0.712505
F8    F     F_    0.814046 0.251102 0.755537 -0.830116
F9    F     F_    0.852638 0.108464 0.882516 -0.755780
F10   F     F_    0.827473 0.357953 0.130381 -0.776547
F11   F     F_    0.005745 0.019024 0.634845 -0.766652
H1    H     H_    0.243175 0.877150 0.592257 0.005351
H2    H     H_    0.287185 0.208989 0.314208 0.140012
H3    H     H_    0.451992 0.078393 0.259111 -0.052996
H4    H     H_    0.497222 0.144554 0.168581 -0.029583
H5    H     H_    0.324419 0.780846 0.066487 0.056098
H6    H     H_    0.070901 0.869135 0.076904 -0.039146
H7    H     H_    0.033900 0.161906 0.775909 0.153845
H8    H     H_    0.356509 0.146902 0.898596 0.107177
H9    H     H_    0.160149 0.137901 0.934875 0.163941
H10   H     H_    0.659865 0.167845 0.928286 -0.003202
H11   H     H_    0.836793 0.243706 0.929707 -0.001607
H12   H     H_    0.145635 0.874057 0.691410 0.083676
H13   H     H_    0.483462 0.620656 0.026068 0.112581
H14   H     H_    0.355920 0.622976 0.874834 0.127699
H15   H     H_    0.866127 0.476425 0.701511 0.039663
H16   H     H_    0.328510 0.692401 0.445799 0.052546
H17   H     H_    0.205434 0.964644 0.384736 0.174390
H18   H     H_    0.179040 0.819095 0.231051 -0.196805
H19   H     H_    0.790916 0.897170 0.584978 0.162893
H20   H     H_    0.059422 0.951519 0.173032 0.142193
H21   H     H_    0.319609 0.709630 0.611794 -0.007245
H22   H     H_    0.103427 0.725049 0.588450 -0.001635
H23   H     H_    0.768578 0.280259 0.241057 0.095626
H24   H     H_    0.638936 0.815474 0.317450 0.129917
H25   H     H_    0.679661 0.894799 0.236158 0.194966
H26   H     H_    0.492683 0.896728 0.282947 0.008206
H27   H     H_    0.938506 0.094379 0.086424 0.175888
H28   H     H_    0.803848 0.188274 0.084115 0.049785
H29   H     H_    0.019818 0.212118 0.120090 0.192558
H30   H     H_    0.637966 0.753848 0.024303 0.188696
H31   H     H_    0.465770 0.785692 0.951061 0.073868
H32   H     H_    0.611843 0.872808 0.004545 0.187073
H33   H     H_    0.000694 0.731317 0.852978 0.110021
H34   H     H_    0.833088 0.220238 0.335235 -0.088925
H35   H     H_    0.895438 0.832087 0.818157 0.111401
H36   H     H_    0.891833 0.797548 0.930136 0.144430
H37   H     H_    0.330001 0.942588 0.042850 0.149507
H38   H     H_    0.330307 0.933731 0.160993 0.134218
H39   H     H_    0.515029 0.967926 0.120044 0.154032
H40   H     H_    0.111840 0.334930 0.792797 0.117136
H41   H     H_    0.089519 0.295040 0.900147 0.064224
H42   H     H_    0.288809 0.315685 0.870463 0.138654
H43   H     H_    0.270952 0.011686 0.781372 0.201782
H44   H     H_    0.262796 0.982063 0.894170 0.110871
H45   H     H_    0.774165 0.105216 0.214832 -0.058482
H46   H     H_    0.077489 0.001283 0.822690 0.192562
H47   H     H_    0.705551 0.078742 0.724195 0.115614
H48   H     H_    0.519561 0.093495 0.770404 0.094192
H49   H     H_    0.555442 0.150654 0.672261 0.114144
H50   H     H_    0.047405 0.656579 0.198434 0.063487
H51   H     H_    0.891482 0.699002 0.119393 0.182531
H52   H     H_    0.097937 0.702491 0.098193 0.015939
H53   H     H_    0.572889 0.473993 0.964913 0.138347
H54   H     H_    0.581850 0.345895 0.959221 0.097669
H55   H     H_    0.588332 0.415047 0.060975 0.172679
H56   H     H_    0.843075 0.654638 0.707800 -0.061837
H57   H     H_    0.342643 0.399380 0.329602 0.128047
H58   H     H_    0.514074 0.451173 0.298416 0.158827
H59   H     H_    0.384521 0.519787 0.365941 0.096683
H60   H     H_    0.049053 0.300030 0.480158 0.146815
H61   H     H_    0.867159 0.333064 0.434444 0.092704
H62   H     H_    0.918651 0.366072 0.551090 0.121443
H63   H     H_    0.633906 0.616087 0.710107 0.064555
H64   H     H_    0.629700 0.749995 0.836521 0.103959
H65   H     H_    0.396576 0.747715 0.208402 -0.096454
O1    O     O_2   0.841230 0.444160 0.280430 -0.426620
O2    O     O_2   0.272374 0.174920 0.566509 -0.402574
O3    O     O_3   0.258065 0.182226 0.733405 -0.573254
O4    O     O_3   0.112860 0.447350 0.393710 -0.524000
O5    O     O_3   0.560610 0.613730 0.540770 -0.511605
O6    O     O_2   0.387460 0.270290 0.467210 -0.411016
O7    O     O_3   0.527267 0.262074 0.310424 -0.741431
O8    O     O_2   0.478227 0.446505 0.814510 -0.474062
O9    O     O_3   0.569478 0.277579 0.811137 -0.640208
O10   O     O_3   0.597940 0.615700 0.327690 -0.498499
O11   O     O_2   0.701663 0.544721 0.179347 -0.458082
O12   O     O_3   0.672703 0.750376 0.676678 -0.628686
O13   O     O_3   0.020752 0.293436 0.292942 -0.592717
O14   O     O_3   0.618418 0.711149 0.169172 -0.588121
O15   O     O_2   0.802240 0.729740 0.532850 -0.472824
O16   O     O_3   0.017180 0.664790 0.371080 -0.484173
O17   O     O_2   0.938219 0.828341 0.440636 -0.479283
O18   O     O_3   0.947240 0.818200 0.269971 -0.556521
O19   O     O_2   0.348480 0.555870 0.719620 -0.458039
O20   O     O_3   0.076830 0.552730 0.606300 -0.512980
O21   O     O_3   0.591760 0.384380 0.672320 -0.427954
O22   O     O_3   0.193071 0.704765 0.719873 -0.643679
O23   O     O_3   0.629090 0.386350 0.459240 -0.489894
O24   O     O_3   0.172520 0.335290 0.628920 -0.496670
P1    P     P_3+3 0.018600 0.416790 0.295970 1.051695
P2    P     P_3+3 0.635660 0.716530 0.560900 0.993370
P3    P     P_3+3 0.042269 0.784856 0.372275 0.974523
P4    P     P_3+3 0.171090 0.583290 0.704030 0.971900
P5    P     P_3+3 0.157559 0.213390 0.630958 1.067853
P6    P     P_3+3 0.566637 0.604899 0.208833 0.945150
P7    P     P_3+3 0.555448 0.269920 0.429168 0.965484
P8    P     P_3+3 0.621342 0.391167 0.787919 1.043088

loop_
_geom_bond_atom_site_label_1
_geom_bond_atom_site_label_2
_ccdc_geom_bond_type
C32   C54   S    
Ba2   O19   S    
C20   C27   A    
C55   H8    S    
C57   H11   S    
C2    C6    A    
C40   O12   S    
C5    F10   S    
C54   H62   S    
C1    C47   S    
C34   F7    S    
C5    C6    A    
C31   P7    S    
C44   H31   S    
C24   C25   A    
C58   P8    S    
C20   C30   A    
O17   P3    D    
O2    P5    D    
C16   H20   S    
C21   C27   A    
C47   H38   S    
C26   C27   A    
O11   P6    D    
C22   C24   A    
C32   C33   A    
C28   H22   S    
C51   H51   S    
C16   H6    S    
C16   F3    S    
C46   H36   S    
C13   C14   A    
O14   P6    S    
C24   P3    S    
C14   H13   S    
C15   C18   A    
Ba1   O16   S    
Ba1   Ba2   S    
C2    C11   A    
O3    P5    S    
C48   H40   S    
C49   H46   S    
O6    P7    D    
C46   H35   S    
C8    C18   A    
Ba2   O23   S    
C53   H58   S    
C28   C37   S    
C21   C22   A    
C29   C31   A    
C49   C55   S    
C47   H37   S    
C41   C46   S    
O22   P4    S    
C13   H14   S    
C21   P2    S    
C53   H59   S    
O10   P6    S    
Ba1   P1    S    
O5    P2    S    
C55   H9    S    
C2    C58   A    
Ba1   O10   S    
C23   O7    S    
C4    C16   S    
O21   P8    S    
C52   H54   S    
C45   C48   S    
C37   F1    S    
C44   H30   S    
C56   O9    S    
C49   H43   S    
C11   C17   A    
O16   P3    S    
O18   P3    S    
Ba1   O23   S    
C19   C58   A    
C28   H21   S    
C51   H52   S    
Ba2   P4    S    
C3    C5    A    
C14   C15   A    
O4    P1    S    
O24   P5    S    
C9    C19   A    
C49   H44   S    
Ba1   O20   S    
C41   H64   S    
C3    C7    A    
C42   H25   S    
C34   H4    S    
C45   C55   S    
C52   H55   S    
C42   H26   S    
C29   C30   A    
C10   C13   A    
C26   C36   A    
C41   F5    S    
O15   P2    D    
C12   O14   S    
C48   H41   S    
C31   C32   A    
C20   H19   S    
C4    O18   S    
C30   C35   A    
C10   C11   A    
C7    P1    S    
C1    H5    S    
C1    C12   S    
O7    P7    S    
C54   H61   S    
C37   H1    S    
C50   C56   S    
C40   H56   S    
C57   F9    S    
C50   H49   S    
C56   F8    S    
C38   C39   S    
O8    P8    D    
Ba1   P2    S    
C35   F11   S    
C43   H28   S    
Ba2   O6    S    
O13   P1    S    
C40   C41   S    
C39   H45   S    
C6    C52   S    
Ba1   O1    S    
C12   C42   S    
C7    C8    A    
C28   O22   S    
C52   H53   S    
C19   H15   S    
C34   H3    S    
Ba2   O20   S    
C33   C35   A    
C47   H39   S    
C23   F6    S    
C57   H10   S    
C38   H23   S    
C43   H29   S    
C9    C10   A    
C3    C17   A    
O19   P4    D    
C4    H18   S    
C18   P6    S    
C44   H32   S    
C1    C44   S    
C39   F4    S    
C29   C36   A    
C40   H63   S    
C48   H42   S    
O12   P2    S    
C43   H27   S    
C56   C57   S    
Ba2   O4    S    
C42   H24   S    
C51   H50   S    
O1    P1    D    
C12   H65   S    
Ba2   O21   S    
C9    P4    S    
C15   C17   A    
O23   P7    S    
C38   O13   S    
Ba1   O15   S    
C23   H2    S    
C8    C53   S    
C25   H17   S    
C22   H16   S    
C54   H60   S    
Ba1   O5    S    
C23   C34   S    
C37   H12   S    
C50   H48   S    
C53   H57   S    
O20   P4    S    
Ba2   O24   S    
C45   O3    S    
C25   C26   A    
Ba2   O5    S    
C39   C43   S    
C33   P5    S    
Ba1   O4    S    
C4    C51   S    
C45   H7    S    
C50   H47   S    
C38   H34   S    
C36   F2    S    
O9    P8    S    
C46   H33   S    
