data_mof_unit_21360.cif
_audit_creation_date              2012-12-10T18:09:30-0500
_audit_creation_method            fapswitch 2.2
_symmetry_space_group_name_H-M    P1
_symmetry_Int_Tables_number       1
_space_group_crystal_system       triclinic
_cell_length_a                    15.190281
_cell_length_b                    15.197965
_cell_length_c                    9.40697
_cell_angle_alpha                 90.108463
_cell_angle_beta                  89.997959
_cell_angle_gamma                 90.000676
_cell_volume                      2171.70198529

loop_
_atom_site_label
_atom_site_type_symbol
_atom_type_description
_atom_site_fract_x
_atom_site_fract_y
_atom_site_fract_z
_atom_type_partial_charge
C1    C     C_R   0.118679 0.378552 0.499729 0.778837
C2    C     C_R   0.118671 0.621454 0.500269 0.778595
C3    C     C_R   0.618683 0.878558 0.499730 0.778740
C4    C     C_R   0.618675 0.121453 0.500268 0.778694
C5    C     C_3   0.092013 0.495860 0.083857 -0.187839
C6    C     C_3   0.091997 0.495483 0.916096 -0.187606
C7    C     C_3   0.592110 0.000399 0.083879 -0.187731
C8    C     C_3   0.592111 0.000006 0.916113 -0.187738
C9    C     C_R   0.878402 0.381493 0.500125 0.779631
C10   C     C_R   0.878391 0.618498 0.499872 0.779486
C11   C     C_R   0.378392 0.881501 0.500130 0.779559
C12   C     C_R   0.378395 0.118502 0.499875 0.779476
C13   C     C_3   0.758160 0.312755 0.647153 0.005536
C14   C     C_3   0.851090 0.219118 0.481164 -0.010396
C15   C     C_3   0.851048 0.780831 0.519546 -0.010198
C16   C     C_3   0.758447 0.687555 0.352562 0.005969
C17   C     C_3   0.258341 0.812553 0.647358 0.005726
C18   C     C_3   0.351051 0.719156 0.480690 -0.010296
C19   C     C_3   0.351038 0.280841 0.519537 -0.010242
C20   C     C_3   0.258431 0.187525 0.352588 0.005803
C21   C     C_3   0.191745 0.735866 0.649492 -0.384784
C22   C     C_3   0.277313 0.649101 0.467438 -0.385893
C23   C     C_3   0.277288 0.350875 0.532882 -0.385905
C24   C     C_3   0.191913 0.264270 0.350416 -0.384800
C25   C     C_3   0.691632 0.236009 0.649384 -0.384696
C26   C     C_3   0.777358 0.149062 0.467761 -0.385993
C27   C     C_3   0.777310 0.850895 0.532717 -0.385948
C28   C     C_3   0.691821 0.764210 0.350477 -0.384829
C29   C     C_3   0.740985 0.329593 0.379756 -0.368590
C30   C     C_3   0.740710 0.670155 0.619756 -0.368360
C31   C     C_3   0.240799 0.829773 0.380087 -0.368365
C32   C     C_3   0.240724 0.170160 0.619796 -0.368495
C33   C     C_3   0.808761 0.312899 0.500835 0.151424
C34   C     C_3   0.808745 0.687095 0.499147 0.151013
C35   C     C_3   0.308744 0.812909 0.500854 0.151197
C36   C     C_3   0.308747 0.187093 0.499161 0.151194
C37   C     C_3   0.186882 0.690827 0.501258 0.101387
C38   C     C_3   0.186890 0.309179 0.498744 0.101274
C39   C     C_3   0.686894 0.190823 0.501249 0.101366
C40   C     C_3   0.686895 0.809188 0.498747 0.101252
C41   C     C_3   0.165788 0.761833 0.387769 -0.395265
C42   C     C_3   0.165692 0.238075 0.612029 -0.395041
C43   C     C_3   0.665919 0.261719 0.387517 -0.395071
C44   C     C_3   0.665741 0.738141 0.612131 -0.395174
C45   C     C_3   0.959719 0.580586 0.083904 -0.193039
C46   C     C_3   0.960119 0.580805 0.916502 -0.187114
C47   C     C_3   0.952447 0.423617 0.083498 -0.187057
C48   C     C_3   0.952093 0.423855 0.916145 -0.192934
C49   C     C_3   0.455669 0.078350 0.083882 -0.193120
C50   C     C_3   0.456058 0.078587 0.916507 -0.187069
C51   C     C_3   0.456414 0.921206 0.083497 -0.187033
C52   C     C_3   0.456025 0.921442 0.916120 -0.193099
Cu1   Cu    Cu3+1 0.000100 0.500000 0.642410 0.881482
Cu2   Cu    Cu3+1 0.000100 0.500000 0.357590 0.881555
Cu3   Cu    Cu3+1 0.500100 1.000000 0.642410 0.881503
Cu4   Cu    Cu3+1 0.500100 0.000000 0.357590 0.881502
H1    H     H_    0.806517 0.300607 0.734009 0.135698
H2    H     H_    0.889509 0.204107 0.579110 0.126984
H3    H     H_    0.889749 0.795997 0.421953 0.126819
H4    H     H_    0.806977 0.700048 0.266101 0.135162
H5    H     H_    0.306812 0.800183 0.733956 0.135410
H6    H     H_    0.389656 0.704039 0.578403 0.126877
H7    H     H_    0.389669 0.296037 0.421876 0.126877
H8    H     H_    0.306959 0.199865 0.266055 0.135416
H9    H     H_    0.212869 0.687069 0.730865 0.136899
H10   H     H_    0.291067 0.593995 0.542102 0.123782
H11   H     H_    0.291102 0.406080 0.458433 0.123831
H12   H     H_    0.213235 0.313122 0.269268 0.135945
H13   H     H_    0.712781 0.187309 0.730886 0.136398
H14   H     H_    0.791018 0.093988 0.542532 0.123887
H15   H     H_    0.791113 0.906005 0.458088 0.123802
H16   H     H_    0.712959 0.813045 0.269182 0.136488
H17   H     H_    0.125200 0.758919 0.681902 0.177018
H18   H     H_    0.275322 0.620276 0.358484 0.177949
H19   H     H_    0.275211 0.379558 0.641933 0.177926
H20   H     H_    0.125394 0.241322 0.317668 0.177462
H21   H     H_    0.625059 0.259026 0.681683 0.177187
H22   H     H_    0.775493 0.120191 0.358833 0.177882
H23   H     H_    0.775257 0.879707 0.641674 0.177903
H24   H     H_    0.625293 0.741143 0.318011 0.177240
H25   H     H_    0.713350 0.397063 0.386996 0.155086
H26   H     H_    0.773191 0.325240 0.273983 0.164260
H27   H     H_    0.772701 0.674144 0.725725 0.164176
H28   H     H_    0.712987 0.602759 0.611845 0.155175
H29   H     H_    0.213123 0.897206 0.387754 0.155060
H30   H     H_    0.272864 0.825645 0.274182 0.164202
H31   H     H_    0.272713 0.174266 0.725762 0.164171
H32   H     H_    0.213076 0.102720 0.612020 0.155126
H33   H     H_    0.102874 0.795457 0.414986 0.156831
H34   H     H_    0.157335 0.731314 0.280985 0.164962
H35   H     H_    0.157096 0.268499 0.718855 0.164565
H36   H     H_    0.102823 0.204444 0.584557 0.157087
H37   H     H_    0.603014 0.295418 0.414543 0.156945
H38   H     H_    0.657509 0.231100 0.280800 0.164782
H39   H     H_    0.657291 0.768621 0.718943 0.164871
H40   H     H_    0.602813 0.704565 0.584852 0.156915
H41   H     H_    0.994219 0.640115 0.124550 0.131766
H42   H     H_    0.995402 0.640107 0.877084 0.138963
H43   H     H_    0.981921 0.361183 0.122717 0.139535
H44   H     H_    0.980816 0.361268 0.875742 0.131804
H45   H     H_    0.487162 0.139549 0.124435 0.131780
H46   H     H_    0.488344 0.139594 0.877185 0.139293
H47   H     H_    0.488966 0.860345 0.122829 0.139247
H48   H     H_    0.487789 0.860386 0.875553 0.131786
H49   H     H_    0.890294 0.585364 0.120397 0.145425
H50   H     H_    0.890940 0.586411 0.879068 0.138651
H51   H     H_    0.883088 0.424751 0.121304 0.137909
H52   H     H_    0.882582 0.425751 0.879270 0.146290
H53   H     H_    0.386110 0.079609 0.120542 0.146019
H54   H     H_    0.386700 0.080665 0.878896 0.138265
H55   H     H_    0.387063 0.918816 0.121094 0.138292
H56   H     H_    0.386470 0.919868 0.879481 0.145944
H57   H     H_    0.131404 0.552722 0.122521 0.135098
H58   H     H_    0.131772 0.551880 0.877081 0.134498
H59   H     H_    0.126103 0.435743 0.122237 0.135321
H60   H     H_    0.125669 0.434940 0.878022 0.135638
H61   H     H_    0.628546 0.059265 0.122221 0.135388
H62   H     H_    0.628970 0.058405 0.877407 0.134927
H63   H     H_    0.629233 0.942174 0.122610 0.134884
H64   H     H_    0.628813 0.941312 0.877740 0.135381
N1    N     N_3   0.001260 0.500000 0.143650 -0.107853
N2    N     N_3   0.001260 0.500000 0.856350 -0.108073
N3    N     N_3   0.501260 0.000000 0.143650 -0.107961
N4    N     N_3   0.501260 0.000000 0.856350 -0.107954
O1    O     O_R   0.091250 0.408820 0.620260 -0.593952
O2    O     O_R   0.091250 0.408820 0.379740 -0.596164
O3    O     O_R   0.091250 0.591180 0.620260 -0.595958
O4    O     O_R   0.091250 0.591180 0.379740 -0.593630
O5    O     O_R   0.591250 0.908820 0.620260 -0.593783
O6    O     O_R   0.591250 0.908820 0.379740 -0.596059
O7    O     O_R   0.591250 0.091180 0.620260 -0.596061
O8    O     O_R   0.591250 0.091180 0.379740 -0.593795
O9    O     O_R   0.908940 0.408800 0.620260 -0.604850
O10   O     O_R   0.908940 0.408800 0.379740 -0.591236
O11   O     O_R   0.908940 0.591200 0.620260 -0.591032
O12   O     O_R   0.908940 0.591200 0.379740 -0.604654
O13   O     O_R   0.408940 0.908800 0.620260 -0.604752
O14   O     O_R   0.408940 0.908800 0.379740 -0.591123
O15   O     O_R   0.408940 0.091200 0.620260 -0.591114
O16   O     O_R   0.408940 0.091200 0.379740 -0.604752
C53   C     C_3   0.711501 0.400378 0.683512 -0.926432
H65   H     H_    0.655296 0.413092 0.611037 0.241758
H66   H     H_    0.685384 0.397371 0.793705 0.226017
H67   H     H_    0.757380 0.456878 0.678480 0.240775
C54   C     C_3   0.916652 0.210601 0.356789 -0.920716
H68   H     H_    0.941758 0.142029 0.350736 0.229030
H69   H     H_    0.885437 0.226962 0.253612 0.238422
H70   H     H_    0.974355 0.253857 0.373959 0.234223
C55   C     C_3   0.916266 0.789113 0.644434 -0.920674
H71   H     H_    0.941272 0.857697 0.651122 0.228984
H72   H     H_    0.884806 0.772436 0.747286 0.238581
H73   H     H_    0.974069 0.745981 0.627363 0.234216
C56   C     C_3   0.711985 0.599970 0.315231 -0.925411
H74   H     H_    0.655757 0.586870 0.387479 0.241347
H75   H     H_    0.685921 0.603376 0.205041 0.226021
H76   H     H_    0.757938 0.543508 0.319676 0.241343
C57   C     C_3   0.211808 0.900151 0.684354 -0.925926
H77   H     H_    0.155580 0.913109 0.612041 0.241537
H78   H     H_    0.185735 0.896889 0.794556 0.225996
H79   H     H_    0.257730 0.956631 0.679681 0.241122
C58   C     C_3   0.416386 0.710790 0.355970 -0.920668
H80   H     H_    0.441446 0.642214 0.349535 0.228970
H81   H     H_    0.385000 0.727322 0.252998 0.238536
H82   H     H_    0.474146 0.753983 0.373036 0.234250
C59   C     C_3   0.416333 0.289130 0.644313 -0.920701
H83   H     H_    0.441365 0.357711 0.650930 0.229008
H84   H     H_    0.384930 0.272485 0.747228 0.238476
H85   H     H_    0.474110 0.245977 0.627168 0.234279
C60   C     C_3   0.211833 0.099974 0.315495 -0.925823
H86   H     H_    0.155490 0.087106 0.387628 0.241556
H87   H     H_    0.185910 0.103237 0.205202 0.225959
H88   H     H_    0.257671 0.043433 0.320377 0.241059

loop_
_geom_bond_atom_site_label_1
_geom_bond_atom_site_label_2
_ccdc_geom_bond_type
C16   C28   S    
C41   H33   S    
Cu3   Cu4   S    
C59   H83   S    
C31   H29   S    
C29   C33   S    
C3    O6    A    
C51   N3    S    
C60   H86   S    
C7    H61   S    
Cu1   O11   S    
C52   H56   S    
C30   C44   S    
C58   H82   S    
C14   C33   S    
C58   H80   S    
C8    H62   S    
C7    C8    S    
C4    O8    A    
C45   C46   S    
C29   H25   S    
Cu2   O2    S    
C14   C54   S    
C26   H22   S    
Cu3   O15   S    
C37   C41   S    
C25   H21   S    
C32   C36   S    
C11   O14   A    
C1    O1    A    
C38   C42   S    
C27   H23   S    
C19   C36   S    
C55   H72   S    
C49   H45   S    
C5    C6    S    
Cu4   O16   S    
C18   C58   S    
C26   C39   S    
C47   N1    S    
C13   H1    S    
C28   C40   S    
C51   H47   S    
C32   H32   S    
C21   H17   S    
C50   H54   S    
C43   H38   S    
C47   H43   S    
C42   H35   S    
C16   H4    S    
C23   H11   S    
C30   H27   S    
C6    H58   S    
Cu1   O3    S    
C17   H5    S    
C21   H9    S    
C57   H77   S    
C22   H10   S    
C20   C24   S    
C19   H7    S    
Cu3   O5    S    
C24   C38   S    
C12   O16   A    
C22   C37   S    
C13   C53   S    
C12   C36   S    
C17   C57   S    
C18   C35   S    
C15   C34   S    
C16   C34   S    
C2    O3    A    
C41   H34   S    
C46   H42   S    
C57   H78   S    
C31   H30   S    
C18   C22   S    
C5    H59   S    
C9    C33   S    
C60   H87   S    
C13   C25   S    
C28   H16   S    
C48   H44   S    
C58   H81   S    
C45   H49   S    
C54   H68   S    
C4    O7    A    
C14   H2    S    
C54   H69   S    
C51   C52   S    
Cu4   N3    S    
C7    H63   S    
C22   H18   S    
Cu1   O9    S    
C1    O2    A    
C55   H73   S    
C23   H19   S    
C30   C34   S    
C8    N4    S    
C39   C43   S    
C45   N1    S    
Cu1   Cu2   S    
C32   H31   S    
Cu2   O4    S    
C17   C21   S    
C20   H8    S    
C19   C23   S    
C13   C33   S    
C44   H40   S    
Cu4   O14   S    
C15   C27   S    
C47   C48   S    
C4    C39   S    
C27   C40   S    
C10   O12   A    
Cu2   O12   S    
C12   O15   A    
C50   N4    S    
C10   C34   S    
C14   C26   S    
C56   H76   S    
C6    H60   S    
C56   H75   S    
Cu4   O8    S    
Cu1   O1    S    
C1    C38   S    
C29   C43   S    
Cu2   N1    S    
C3    C40   S    
C50   H46   S    
C59   H85   S    
Cu3   O7    S    
C26   H14   S    
C60   H88   S    
C31   C35   S    
C53   H67   S    
C25   H13   S    
C6    N2    S    
C15   C55   S    
C54   H70   S    
C27   H15   S    
C8    H64   S    
C49   H53   S    
C9    O9    A    
Cu3   N4    S    
C52   H48   S    
C5    N1    S    
C51   H55   S    
C31   C41   S    
C5    H57   S    
C3    O5    A    
C15   H3    S    
C24   H20   S    
C7    N3    S    
C57   H79   S    
C23   C38   S    
C19   C59   S    
C47   H51   S    
Cu3   O13   S    
Cu1   N2    S    
C53   H66   S    
C11   O13   A    
C10   O11   A    
C44   H39   S    
C45   H41   S    
C55   H71   S    
C9    O10   A    
C48   N2    S    
C52   N4    S    
C2    C37   S    
C48   H52   S    
C46   H50   S    
C11   C35   S    
C43   H37   S    
C20   C60   S    
C42   H36   S    
C30   H28   S    
C28   H24   S    
Cu4   O6    S    
C24   H12   S    
C20   C36   S    
C40   C44   S    
C21   C37   S    
C29   H26   S    
C49   N3    S    
C59   H84   S    
C49   C50   S    
C16   C56   S    
C32   C42   S    
C46   N2    S    
C18   H6    S    
C17   C35   S    
C56   H74   S    
C53   H65   S    
C25   C39   S    
C2    O4    A    
Cu2   O10   S    
