data_mof_unit_30063.cif
_audit_creation_date              2012-10-26T18:51:47-0400
_audit_creation_method            fapswitch 2.2
_symmetry_space_group_name_H-M    P1
_symmetry_Int_Tables_number       1
_space_group_crystal_system       triclinic
_cell_length_a                    11.698198
_cell_length_b                    14.714745
_cell_length_c                    14.690936
_cell_angle_alpha                 65.096723
_cell_angle_beta                  102.953919
_cell_angle_gamma                 102.743908
_cell_volume                      2212.43504587

loop_
_atom_site_label
_atom_site_type_symbol
_atom_type_description
_atom_site_fract_x
_atom_site_fract_y
_atom_site_fract_z
_atom_type_partial_charge
C1    C     C_R   0.480530 0.119735 0.312192 0.548427
C2    C     C_R   0.609119 0.611310 0.098902 -0.113032
C3    C     C_R   0.683425 0.277891 0.677572 -0.153516
C4    C     C_R   0.314879 0.721265 0.323612 -0.158863
C5    C     C_R   0.657345 0.199033 0.644319 0.044009
C6    C     C_R   0.341946 0.800621 0.356179 0.041209
C7    C     C_R   0.519219 0.287080 0.506645 0.037686
C8    C     C_R   0.480487 0.712766 0.493596 0.037220
C9    C     C_R   0.542604 0.370768 0.535881 0.003965
C10   C     C_R   0.456071 0.628570 0.465079 0.003983
C11   C     C_R   0.625903 0.363589 0.624180 0.043962
C12   C     C_R   0.520915 0.880314 0.687729 0.549432
C13   C     C_R   0.372193 0.635463 0.377165 0.041024
C14   C     C_R   0.485649 0.459718 0.482237 0.022777
C15   C     C_R   0.512595 0.539403 0.519015 0.022932
C16   C     C_R   0.284184 0.000254 0.500066 0.550234
C17   C     C_R   0.715817 0.999738 0.499948 0.550951
C18   C     C_R   0.594605 0.527010 0.608602 -0.143798
C19   C     C_R   0.403012 0.471813 0.393041 -0.139995
C20   C     C_R   0.650293 0.441168 0.659491 -0.125497
C21   C     C_R   0.347027 0.557496 0.342363 -0.124713
C22   C     C_1   0.162618 0.000623 0.500191 -0.023560
C23   C     C_R   0.466694 0.321170 0.000146 0.063066
C24   C     C_1   0.837386 0.999354 0.499855 -0.022758
C25   C     C_1   0.060013 0.000307 0.500118 -0.042322
C26   C     C_1   0.939994 0.999663 0.499947 -0.042022
C27   C     C_R   0.472350 0.187489 0.204304 -0.047780
C28   C     C_R   0.540587 0.812727 0.795313 -0.048155
C29   C     C_R   0.436625 0.215861 0.025345 0.255606
C30   C     C_R   0.614820 0.784222 0.972549 0.264014
C31   C     C_R   0.444543 0.149587 0.128103 -0.137536
C32   C     C_R   0.594636 0.850344 0.869892 -0.131122
C33   C     C_R   0.495684 0.291842 0.178242 -0.153801
C34   C     C_R   0.587962 0.678654 0.997974 0.063505
C35   C     C_R   0.510465 0.708623 0.822062 -0.156819
C36   C     C_R   0.499018 0.360213 0.077297 -0.009224
C37   C     C_R   0.538983 0.639778 0.921729 -0.010359
C38   C     C_3   0.302236 0.112236 0.954791 0.005670
C39   C     C_3   0.325729 0.007763 0.971233 -0.269377
C40   C     C_3   0.211779 0.932485 0.979184 -0.479789
C41   C     C_3   0.624831 0.902520 0.042736 0.004880
C42   C     C_3   0.718589 0.996900 0.017446 -0.274657
C43   C     C_3   0.668187 0.090369 0.001984 -0.465997
C44   C     C_R   0.531543 0.466406 0.051233 0.036206
C45   C     C_R   0.518107 0.533328 0.947474 0.037250
C46   C     C_R   0.488214 0.491777 0.872668 -0.154325
C47   C     C_R   0.580337 0.507668 0.125321 -0.154677
C48   C     C_R   0.464095 0.388036 0.898692 -0.117075
Cu1   Cu    Cu3+1 0.469550 0.918260 0.475690 0.932837
Cu2   Cu    Cu3+1 0.530450 0.081740 0.524310 0.934635
H1    H     H_    0.442081 0.360546 0.838182 0.165454
H2    H     H_    0.602065 0.461776 0.204703 0.108125
H3    H     H_    0.712845 0.435227 0.727823 0.113275
H4    H     H_    0.283801 0.563107 0.274460 0.111360
H5    H     H_    0.546068 0.715897 0.556884 0.119760
H6    H     H_    0.454222 0.284189 0.442965 0.117664
H7    H     H_    0.299109 0.867569 0.313985 0.123573
H8    H     H_    0.700229 0.132107 0.686477 0.120656
H9    H     H_    0.747197 0.271385 0.745334 0.089896
H10   H     H_    0.250500 0.727461 0.256250 0.092526
H11   H     H_    0.243994 0.142397 0.880950 0.152494
H12   H     H_    0.647075 0.638418 0.158842 0.165281
H13   H     H_    0.251734 0.105516 0.013997 0.116811
H14   H     H_    0.366146 0.014470 0.906627 0.169428
H15   H     H_    0.388966 0.978371 0.041997 0.147809
H16   H     H_    0.171519 0.922542 0.045053 0.145171
H17   H     H_    0.232071 0.857989 0.990115 0.148962
H18   H     H_    0.147383 0.959442 0.908663 0.153970
H19   H     H_    0.602549 0.883942 0.118849 0.151323
H20   H     H_    0.540732 0.918105 0.988996 0.110568
H21   H     H_    0.794267 0.984380 0.080464 0.174188
H22   H     H_    0.752682 0.010799 0.947313 0.158184
H23   H     H_    0.617616 0.582323 0.642124 0.093159
H24   H     H_    0.596827 0.107198 0.935556 0.191451
H25   H     H_    0.739253 0.156567 0.987392 0.145210
H26   H     H_    0.632235 0.078125 0.070740 0.167035
H27   H     H_    0.379449 0.416277 0.359793 0.093510
H28   H     H_    0.462864 0.682792 0.763603 0.134501
H29   H     H_    0.509345 0.318280 0.238402 0.130134
H30   H     H_    0.621702 0.930955 0.847997 0.120823
H31   H     H_    0.428511 0.068660 0.148319 0.122188
H32   H     H_    0.486905 0.537477 0.792784 0.103067
N1    N     N_R   0.576230 0.204580 0.560790 -0.231170
N2    N     N_R   0.423770 0.795420 0.439210 -0.231942
O1    O     O_R   0.459870 0.022090 0.338120 -0.510085
O2    O     O_3   0.672222 0.819459 0.047891 -0.582163
O3    O     O_R   0.540130 0.977910 0.661880 -0.508603
O4    O     O_R   0.511290 0.160150 0.379180 -0.508878
O5    O     O_R   0.488710 0.839850 0.620820 -0.508575
O6    O     O_R   0.311490 0.930960 0.479480 -0.492286
O7    O     O_R   0.688510 0.069040 0.520520 -0.492989
O8    O     O_R   0.362910 0.069020 0.520540 -0.493942
O9    O     O_R   0.637090 0.930980 0.479460 -0.494189
O10   O     O_3   0.410558 0.179161 0.948864 -0.597445

loop_
_geom_bond_atom_site_label_1
_geom_bond_atom_site_label_2
_ccdc_geom_bond_type
C15   C18   A    
C7    N1    A    
C16   O6    A    
C34   C37   A    
C41   C42   S    
C17   O7    A    
Cu1   O6    S    
C45   C46   A    
C27   C33   A    
C39   H14   S    
C5    H8    S    
C12   C28   S    
C23   C29   A    
Cu1   N2    S    
C35   C37   A    
C24   C26   T    
C10   C15   A    
C29   O10   S    
C5    N1    A    
C23   C36   A    
C33   C36   A    
C4    C13   A    
C19   H27   S    
C46   H32   S    
C48   H1    S    
C28   C35   A    
C22   C25   T    
C30   O2    S    
C44   C47   A    
Cu2   O4    S    
C38   H11   S    
C2    C34   A    
C1    O4    A    
C40   H16   S    
C43   H25   S    
C39   H15   S    
C6    H7    S    
C4    H10   S    
C7    H6    S    
C8    H5    S    
Cu2   N1    S    
C1    O1    A    
C46   C48   A    
C11   C20   A    
C17   C24   S    
C6    N2    A    
C30   C34   A    
C27   C31   A    
Cu1   O1    S    
C12   O5    A    
C28   C32   A    
C4    C6    A    
C39   C40   S    
C33   H29   S    
C25   C26   S    
C40   H17   S    
C9    C14   A    
C41   O2    S    
C32   H30   S    
C38   O10   S    
C42   H22   S    
C13   C21   A    
C9    C11   A    
Cu2   O3    S    
Cu2   O8    S    
C16   O8    A    
C18   H23   S    
C36   C44   A    
C17   O9    A    
C42   C43   S    
C37   C45   A    
C44   C45   A    
C41   H19   S    
C38   H13   S    
C43   H26   S    
C7    C9    A    
C16   C22   S    
C23   C48   A    
C12   O3    A    
C19   C21   A    
C8    N2    A    
C14   C19   A    
Cu1   O5    S    
C20   H3    S    
C3    C5    A    
C10   C13   A    
C47   H2    S    
C2    C47   A    
C35   H28   S    
C31   H31   S    
C21   H4    S    
C29   C31   A    
C30   C32   A    
C38   C39   S    
C43   H24   S    
C42   H21   S    
C18   C20   A    
C3    C11   A    
Cu2   O7    S    
C8    C10   A    
Cu1   Cu2   S    
C40   H18   S    
C1    C27   S    
C14   C15   A    
Cu1   O9    S    
C2    H12   S    
C41   H20   S    
C3    H9    S    
