data_mof_unit_39812.cif
_audit_creation_date              2012-10-26T20:25:35-0400
_audit_creation_method            fapswitch 2.2
_symmetry_space_group_name_H-M    P1
_symmetry_Int_Tables_number       1
_space_group_crystal_system       triclinic
_cell_length_a                    23.49938
_cell_length_b                    10.630987
_cell_length_c                    9.408378
_cell_angle_alpha                 89.581191
_cell_angle_beta                  90.293328
_cell_angle_gamma                 90.170647
_cell_volume                      2350.31231919

loop_
_atom_site_label
_atom_site_type_symbol
_atom_type_description
_atom_site_fract_x
_atom_site_fract_y
_atom_site_fract_z
_atom_type_partial_charge
C1    C     C_R   0.499854 0.259542 0.500509 0.559631
C2    C     C_R   0.701882 0.487340 0.629387 -0.147981
C3    C     C_R   0.239688 0.480691 0.628431 -0.062450
C4    C     C_R   0.761092 0.485657 0.629687 -0.066135
C5    C     C_R   0.208994 0.504050 0.503479 0.256327
C6    C     C_R   0.791130 0.495541 0.502092 0.257471
C7    C     C_3   0.499294 0.039600 0.636155 -0.131550
C8    C     C_3   0.500740 0.960397 0.363822 -0.132150
C9    C     C_3   0.546658 0.957565 0.569613 -0.139202
C10   C     C_3   0.453377 0.042432 0.430363 -0.139184
C11   C     C_3   0.500204 0.877153 0.498453 0.019135
C12   C     C_R   0.500161 0.740458 0.499487 0.559081
C13   C     C_3   0.499829 0.122846 0.501527 0.019691
C14   C     C_3   0.453603 0.957686 0.563823 -0.008665
C15   C     C_3   0.546432 0.042315 0.436151 -0.008204
C16   C     C_R   0.390977 0.500180 0.499794 0.554358
C17   C     C_R   0.609043 0.499645 0.500263 0.554542
C18   C     C_3   0.513202 0.609928 0.049728 -0.007280
C19   C     C_3   0.486795 0.390073 0.950276 -0.006513
C20   C     C_3   0.463593 0.579977 0.948162 -0.005984
C21   C     C_3   0.536406 0.420025 0.051841 -0.005977
C22   C     C_3   0.549654 0.529917 0.950007 -0.009240
C23   C     C_R   0.237937 0.526198 0.374461 0.045101
C24   C     C_3   0.450343 0.470088 0.050001 -0.009090
C25   C     C_R   0.880131 0.607684 0.526550 0.387765
C26   C     C_R   0.120001 0.390228 0.492482 0.389215
C27   C     C_R   0.880734 0.385149 0.491821 0.388171
C28   C     C_R   0.119423 0.612445 0.529525 0.384611
C29   C     C_R   0.940412 0.383817 0.493385 0.024709
C30   C     C_R   0.059745 0.613391 0.531055 0.024110
C31   C     C_R   0.970053 0.498004 0.511883 -0.030198
C32   C     C_R   0.030098 0.499238 0.512387 -0.030284
C33   C     C_R   0.939791 0.611016 0.529409 0.026374
C34   C     C_R   0.761487 0.507011 0.371700 0.048785
C35   C     C_R   0.060353 0.386367 0.493784 0.026674
C36   C     C_R   0.971009 0.271684 0.476131 -0.127593
C37   C     C_R   0.029148 0.725357 0.549585 -0.128458
C38   C     C_R   0.030378 0.272964 0.476195 -0.128210
C39   C     C_R   0.969772 0.724205 0.548600 -0.129668
C40   C     C_3   0.206251 0.552883 0.237342 -0.240755
C41   C     C_3   0.204521 0.436169 0.142841 -0.304997
C42   C     C_3   0.166472 0.457806 0.013121 -0.446008
C43   C     C_3   0.792108 0.518548 0.231137 -0.243186
C44   C     C_3   0.789037 0.653592 0.173368 -0.307090
C45   C     C_R   0.297633 0.523493 0.373866 -0.130709
C46   C     C_3   0.819978 0.666047 0.031728 -0.434271
C47   C     C_1   0.402491 0.908084 0.633791 0.199806
C48   C     C_1   0.597543 0.091919 0.366170 0.199452
C49   C     C_R   0.701826 0.507826 0.372559 -0.121523
C50   C     C_R   0.328355 0.500964 0.499999 0.000239
C51   C     C_R   0.671707 0.498399 0.500838 0.000008
C52   C     C_R   0.298827 0.479896 0.627244 -0.137261
Cu1   Cu    Cu3+1 0.500010 0.499990 0.643150 0.938031
Cu2   Cu    Cu3+1 0.499990 0.500010 0.356850 0.935796
H1    H     H_    0.949212 0.182715 0.461882 0.167117
H2    H     H_    0.947487 0.812269 0.562481 0.167046
H3    H     H_    0.319974 0.540463 0.275042 0.119170
H4    H     H_    0.679026 0.516168 0.272521 0.124596
H5    H     H_    0.321377 0.461688 0.725930 0.128901
H6    H     H_    0.679802 0.479561 0.729838 0.122720
H7    H     H_    0.217461 0.462576 0.726736 0.113632
H8    H     H_    0.783897 0.476806 0.729502 0.113919
H9    H     H_    0.584932 0.920284 0.625103 0.123073
H10   H     H_    0.415103 0.079710 0.374870 0.122918
H11   H     H_    0.498181 0.073976 0.747269 0.118299
H12   H     H_    0.050948 0.814280 0.564151 0.167860
H13   H     H_    0.501853 0.926017 0.252709 0.118013
H14   H     H_    0.121839 0.473885 0.046684 0.165216
H15   H     H_    0.181545 0.540783 0.951406 0.163783
H16   H     H_    0.167467 0.373632 0.944016 0.158227
H17   H     H_    0.248250 0.413329 0.106788 0.155799
H18   H     H_    0.187684 0.354448 0.204011 0.214363
H19   H     H_    0.162102 0.584086 0.258655 0.172824
H20   H     H_    0.227471 0.631706 0.179867 0.146144
H21   H     H_    0.865594 0.641136 0.044793 0.163182
H22   H     H_    0.800175 0.603352 0.951476 0.153974
H23   H     H_    0.432997 0.647213 0.899430 0.122075
H24   H     H_    0.817121 0.764640 0.992646 0.171227
H25   H     H_    0.743881 0.681554 0.157626 0.161966
H26   H     H_    0.808914 0.718908 0.251018 0.212558
H27   H     H_    0.837449 0.490891 0.241556 0.169468
H28   H     H_    0.772313 0.452772 0.153784 0.144688
H29   H     H_    0.567008 0.352805 0.100582 0.121279
H30   H     H_    0.524461 0.702502 0.096061 0.104887
H31   H     H_    0.475539 0.297496 0.903947 0.105325
H32   H     H_    0.591471 0.555467 0.903499 0.101454
H33   H     H_    0.408515 0.444620 0.096538 0.101574
H34   H     H_    0.052661 0.184945 0.461960 0.167617
N1    N     N_R   0.852075 0.496109 0.506895 -0.405536
N2    N     N_R   0.148064 0.502242 0.508647 -0.405812
N3    N     N_3   0.500040 0.499970 0.858290 -0.230997
N4    N     N_3   0.499960 0.500030 0.141710 -0.230940
N5    N     N_1   0.362232 0.868685 0.688901 -0.289492
N6    N     N_1   0.637801 0.131317 0.311050 -0.294505
O1    O     O_R   0.500030 0.316850 0.620870 -0.507890
O2    O     O_2   0.149793 0.283210 0.474809 -0.502573
O3    O     O_2   0.851490 0.276877 0.474421 -0.486266
O4    O     O_2   0.148680 0.720627 0.547459 -0.487157
O5    O     O_R   0.499970 0.683150 0.379130 -0.508189
O6    O     O_R   0.500000 0.316860 0.379090 -0.497358
O7    O     O_R   0.500000 0.683140 0.620910 -0.497467
O8    O     O_R   0.417890 0.499960 0.620920 -0.498725
O9    O     O_R   0.582110 0.500040 0.379080 -0.501175
O10   O     O_R   0.417870 0.499970 0.379140 -0.508521
O11   O     O_R   0.582130 0.500030 0.620860 -0.506536
O12   O     O_2   0.850318 0.714869 0.542779 -0.505025

loop_
_geom_bond_atom_site_label_1
_geom_bond_atom_site_label_2
_ccdc_geom_bond_type
C23   C45   A    
Cu1   O1    S    
C41   C42   S    
C17   C51   S    
C46   H22   S    
Cu1   Cu2   S    
C29   C36   A    
C45   H3    S    
C33   C39   A    
C48   N6    T    
C20   H23   S    
C21   H29   S    
Cu2   O10   S    
C19   C21   S    
C16   C50   S    
C8    C10   S    
C11   C14   S    
C2    H6    S    
C27   C29   A    
C23   C40   S    
C4    H8    S    
C42   H16   S    
C40   H19   S    
C12   O5    A    
C16   O10   A    
C7    C14   S    
C39   H2    S    
Cu1   O7    S    
C49   C51   A    
Cu1   N3    S    
C18   H30   S    
C22   N3    S    
C31   C33   A    
C5    N2    S    
C41   H17   S    
C18   C22   S    
C21   C22   S    
C42   H14   S    
Cu2   O6    S    
C15   C48   S    
C24   N4    S    
C1    O6    A    
C46   H21   S    
C44   C46   S    
C25   O12   S    
C3    H7    S    
C26   O2    S    
C20   N3    S    
C32   C35   A    
C20   C24   S    
Cu2   O9    S    
C44   H26   S    
C35   C38   A    
C4    C6    A    
C10   C14   S    
C46   H24   S    
C3    C5    A    
C42   H15   S    
C49   H4    S    
C6    C34   A    
C30   C37   A    
C38   H34   S    
C2    C4    A    
C43   C44   S    
Cu2   N4    S    
C52   H5    S    
C17   O11   A    
C7    H11   S    
C50   C52   A    
C31   C32   A    
C5    C23   A    
Cu1   O8    S    
C1    O1    A    
C37   H12   S    
C47   N5    T    
C9    C11   S    
C41   H18   S    
C16   O8    A    
C40   C41   S    
C8    C15   S    
C13   C15   S    
C43   H27   S    
Cu2   O5    S    
C1    C13   S    
C28   O4    S    
C7    C9    S    
C27   O3    S    
C34   C49   A    
C9    H9    S    
C44   H25   S    
C10   H10   S    
C34   C43   S    
C19   H31   S    
C10   C13   S    
C3    C52   A    
C14   C47   S    
C26   N2    A    
C6    N1    S    
C25   N1    A    
C18   N4    S    
C28   C30   A    
C19   C24   S    
C9    C15   S    
C12   O7    A    
C29   C31   A    
C36   H1    S    
C30   C32   A    
C45   C50   A    
C8    C11   S    
C36   C38   A    
C40   H20   S    
C27   N1    A    
C18   C20   S    
C22   H32   S    
C17   O9    A    
C24   H33   S    
C19   N3    S    
C2    C51   A    
Cu1   O11   S    
C26   C35   A    
C7    C13   S    
C8    H13   S    
C37   C39   A    
C43   H28   S    
C28   N2    A    
C11   C12   S    
C25   C33   A    
C21   N4    S    
