data_mof_unit_39256.cif
_audit_creation_date              2012-12-10T18:47:03-0500
_audit_creation_method            fapswitch 2.2
_symmetry_space_group_name_H-M    P1
_symmetry_Int_Tables_number       1
_space_group_crystal_system       triclinic
_cell_length_a                    10.717389
_cell_length_b                    9.841404
_cell_length_c                    14.889274
_cell_angle_alpha                 90.001661
_cell_angle_beta                  90.974219
_cell_angle_gamma                 90.000364
_cell_volume                      1570.20658156

loop_
_atom_site_label
_atom_site_type_symbol
_atom_type_description
_atom_site_fract_x
_atom_site_fract_y
_atom_site_fract_z
_atom_type_partial_charge
C1    C     C_R   0.259863 0.499979 0.500203 0.886164
C2    C     C_R   0.740137 0.499980 0.499797 0.886194
C3    C     C_R   0.270771 0.511289 0.040458 -0.295079
C4    C     C_R   0.729228 0.511179 0.959543 -0.295538
C5    C     C_R   0.063870 0.375921 0.500478 -0.215644
C6    C     C_R   0.936149 0.623837 0.499807 -0.200982
C7    C     C_R   0.936125 0.375922 0.499387 -0.215665
C8    C     C_R   0.063856 0.623836 0.500329 -0.201028
C9    C     C_R   0.872575 0.499908 0.499396 -0.007469
C10   C     C_R   0.127425 0.499907 0.500603 -0.007402
C11   C     C_R   0.584844 0.071938 0.551026 -0.072323
C12   C     C_R   0.415187 0.928043 0.448946 -0.072352
C13   C     C_R   0.415156 0.071932 0.448974 -0.072323
C14   C     C_R   0.584813 0.928048 0.551054 -0.072375
C15   C     C_R   0.496095 0.500018 0.327134 0.943917
C16   C     C_R   0.503904 0.500021 0.672866 0.943943
C17   C     C_R   0.619201 0.497749 0.815644 0.426080
C18   C     C_R   0.380795 0.497769 0.184355 0.426117
C19   C     C_R   0.505539 0.500263 0.768057 -0.175303
C20   C     C_R   0.494458 0.500258 0.231943 -0.175431
C21   C     C_R   0.391561 0.506959 0.810501 -0.305696
C22   C     C_R   0.608437 0.506939 0.189499 -0.305344
C23   C     C_R   0.387890 0.510395 0.903381 0.028446
C24   C     C_R   0.612109 0.510342 0.096620 0.028660
C25   C     C_R   0.501350 0.507385 0.953178 -0.045967
C26   C     C_R   0.498648 0.507382 0.046822 -0.046120
C27   C     C_R   0.617511 0.504895 0.909276 -0.027376
C28   C     C_R   0.382486 0.504937 0.090724 -0.027486
C29   C     C_R   0.273016 0.518896 0.947213 0.465055
C30   C     C_R   0.726984 0.518771 0.052791 0.465113
H1    H     H_    0.306065 0.509309 0.770387 0.193273
H2    H     H_    0.693934 0.509287 0.229613 0.193331
H3    H     H_    0.181265 0.512003 0.072870 0.206182
H4    H     H_    0.818734 0.511837 0.927132 0.206145
H5    H     H_    0.112324 0.279293 0.500551 0.161753
H6    H     H_    0.887721 0.720484 0.499821 0.158610
H7    H     H_    0.887668 0.279294 0.499204 0.161784
H8    H     H_    0.112288 0.720483 0.500427 0.158614
H9    H     H_    0.652726 0.126398 0.591776 0.110316
H10   H     H_    0.347389 0.873514 0.408120 0.132362
H11   H     H_    0.347275 0.126389 0.408224 0.110299
H12   H     H_    0.652611 0.873523 0.591880 0.132339
N1    N     N_R   0.500000 0.857200 0.500000 -0.083713
N2    N     N_R   0.500000 0.142800 0.500000 -0.078766
O1    O     O_R   0.316770 0.614620 0.499990 -0.629795
O2    O     O_R   0.683230 0.385380 0.500010 -0.637635
O3    O     O_R   0.683230 0.614620 0.500010 -0.629794
O4    O     O_R   0.316770 0.385380 0.499990 -0.637653
O5    O     O_R   0.499980 0.614680 0.367850 -0.608480
O6    O     O_R   0.500020 0.385320 0.632150 -0.635078
O7    O     O_R   0.500020 0.614680 0.632150 -0.608519
O8    O     O_R   0.499980 0.385320 0.367850 -0.635098
Zn1   Zn    Zn3+2 0.500000 0.653120 0.500000 0.962502
Zn2   Zn    Zn3+2 0.500000 0.346880 0.500000 0.938666
O9    O     O_3   0.731313 0.499205 0.770630 -0.634823
C31   C     C_3   0.770643 0.363994 0.755920 0.048762
H13   H     H_    0.723272 0.322886 0.694844 0.167987
H14   H     H_    0.751430 0.295395 0.813811 0.139844
C32   C     C_3   0.910710 0.362589 0.740996 -0.804785
H15   H     H_    0.961106 0.388596 0.804439 0.281864
H16   H     H_    0.940426 0.259886 0.719079 0.205071
H17   H     H_    0.935592 0.437663 0.688679 0.274890
O10   O     O_3   0.268680 0.499216 0.229367 -0.634919
C33   C     C_3   0.229381 0.364000 0.244101 0.048644
H18   H     H_    0.276720 0.322961 0.305208 0.168046
H19   H     H_    0.248660 0.295360 0.186242 0.139854
C34   C     C_3   0.089301 0.362547 0.258975 -0.804794
H20   H     H_    0.038936 0.388366 0.195485 0.281774
H21   H     H_    0.059623 0.259876 0.280982 0.205077
H22   H     H_    0.064338 0.437733 0.311206 0.275013
O11   O     O_3   0.162271 0.532479 0.898958 -0.619555
C35   C     C_3   0.136083 0.672673 0.889603 0.064683
H23   H     H_    0.219821 0.731948 0.869192 0.142911
H24   H     H_    0.101289 0.714128 0.954062 0.147808
C36   C     C_3   0.036311 0.693051 0.816965 -0.808114
H25   H     H_    0.948401 0.642622 0.836364 0.278272
H26   H     H_    0.017835 0.803248 0.807801 0.205003
H27   H     H_    0.068202 0.649914 0.752324 0.257867
O12   O     O_3   0.837717 0.532314 0.101067 -0.619573
C37   C     C_3   0.864273 0.672477 0.110057 0.064941
H28   H     H_    0.780596 0.732241 0.129989 0.142761
H29   H     H_    0.899618 0.713287 0.045590 0.148065
C38   C     C_3   0.963636 0.693040 0.182956 -0.808405
H30   H     H_    0.051515 0.642127 0.164034 0.278584
H31   H     H_    0.982403 0.803231 0.191811 0.205054
H32   H     H_    0.931187 0.650531 0.247620 0.257766

loop_
_geom_bond_atom_site_label_1
_geom_bond_atom_site_label_2
_ccdc_geom_bond_type
O9    C31   S    
C16   O7    A    
C6    C9    A    
C13   H11   S    
C2    O2    A    
O4    Zn2   S    
C21   H1    S    
O6    Zn2   S    
C22   H2    S    
C23   C29   A    
C3    C28   A    
C19   C21   A    
C16   O6    A    
C12   N1    A    
C37   C38   S    
C11   C14   A    
C18   O10   S    
C3    H3    S    
C31   H13   S    
C3    C29   A    
N1    Zn1   S    
C31   H14   S    
C17   O9    S    
O3    Zn1   S    
C23   C25   A    
O1    Zn1   S    
C32   H15   S    
C8    H8    S    
C35   C36   S    
O8    Zn2   S    
C15   C20   S    
C4    H4    S    
C32   H16   S    
C34   H20   S    
C17   C27   A    
C33   C34   S    
C18   C28   A    
C37   H29   S    
C5    C7    A    
C37   H28   S    
C6    C8    A    
C25   C26   A    
O10   C33   S    
O7    Zn1   S    
C33   H19   S    
C12   H10   S    
C36   H25   S    
C38   H30   S    
O2    Zn2   S    
C7    H7    S    
C11   N2    A    
C15   O8    A    
C11   H9    S    
C36   H26   S    
C30   O12   S    
C35   H24   S    
C38   H31   S    
C20   C22   A    
C21   C23   A    
C22   C24   A    
C4    C27   A    
C7    C9    A    
C32   H17   S    
C1    C10   S    
C24   C26   A    
C35   H23   S    
C1    O4    A    
C2    O3    A    
C25   C27   A    
C26   C28   A    
C31   C32   S    
C14   H12   S    
C34   H22   S    
C33   H18   S    
C5    C10   A    
C1    O1    A    
C16   C19   S    
O5    Zn1   S    
C5    H5    S    
C17   C19   A    
C6    H6    S    
C18   C20   A    
C15   O5    A    
C36   H27   S    
C24   C30   A    
O12   C37   S    
N2    Zn2   S    
O11   C35   S    
C38   H32   S    
C12   C13   A    
C8    C10   A    
C34   H21   S    
C2    C9    S    
C13   N2    A    
C4    C30   A    
C14   N1    A    
C29   O11   S    
