data_mof_unit_64950.cif
_audit_creation_date              2012-12-10T16:56:08-0500
_audit_creation_method            fapswitch 2.2
_symmetry_space_group_name_H-M    P1
_symmetry_Int_Tables_number       1
_space_group_crystal_system       triclinic
_cell_length_a                    9.710342
_cell_length_b                    10.953201
_cell_length_c                    13.889061
_cell_angle_alpha                 90.295346
_cell_angle_beta                  84.998699
_cell_angle_gamma                 89.953546
_cell_volume                      1471.58622708

loop_
_atom_site_label
_atom_site_type_symbol
_atom_type_description
_atom_site_fract_x
_atom_site_fract_y
_atom_site_fract_z
_atom_type_partial_charge
C1    C     C_R   0.499399 0.734261 0.503494 0.879479
C2    C     C_R   0.500587 0.265395 0.496914 0.865219
C3    C     C_R   0.522261 0.499999 0.317106 0.824522
C4    C     C_1   0.535640 0.500091 0.213999 -0.153519
C5    C     C_2   0.558466 0.500323 0.023593 0.656105
C6    C     C_2   0.444423 0.500566 0.976400 -0.293424
C7    C     C_1   0.454410 0.500455 0.872769 0.130297
C8    C     C_1   0.546793 0.500198 0.127194 -0.068250
C9    C     C_1   0.403282 0.085611 0.419422 0.196793
C10   C     C_1   0.842674 0.654768 0.622305 0.350948
C11   C     C_1   0.464659 0.500286 0.785973 -0.109736
C12   C     C_2   0.603482 0.065498 0.515843 0.598934
C13   C     C_2   0.502944 0.134231 0.481644 -0.303325
C14   C     C_2   0.610088 0.932742 0.504209 -0.203886
C15   C     C_2   0.495493 0.865195 0.515300 -0.369300
C16   C     C_2   0.071880 0.575294 0.551548 -0.073350
C17   C     C_2   0.915996 0.572050 0.554971 0.038582
C18   C     C_R   0.477767 0.500051 0.682885 0.814666
Cu1   Cu    Cu3+1 0.361370 0.499980 0.499980 0.979912
Cu2   Cu    Cu3+1 0.638630 0.500020 0.500020 1.014775
F1    F     F_    0.686326 0.500114 0.974943 -0.623998
F2    F     F_    0.704488 0.118109 0.564044 -0.627183
H1    H     H_    0.342498 0.500727 0.015528 0.128386
H2    H     H_    0.900065 0.446083 0.450888 0.201804
H3    H     H_    0.711297 0.890397 0.491511 0.194282
H4    H     H_    0.395431 0.906521 0.535631 0.166429
H5    H     H_    0.118704 0.643290 0.595529 0.159646
H6    H     H_    0.110652 0.433504 0.461892 0.207042
N1    N     N_2   0.152970 0.501340 0.501040 -0.278075
N2    N     N_2   0.846830 0.501370 0.501060 -0.292536
N3    N     N_1   0.323822 0.047256 0.369669 -0.237667
N4    N     N_1   0.784521 0.721469 0.676561 -0.250503
O1    O     O_R   0.382960 0.678040 0.499980 -0.577366
O2    O     O_R   0.617100 0.678080 0.500020 -0.582479
O3    O     O_R   0.366380 0.499950 0.637830 -0.575171
O4    O     O_R   0.600520 0.499990 0.637860 -0.550316
O5    O     O_R   0.382900 0.321920 0.499980 -0.579201
O6    O     O_R   0.617040 0.321960 0.500020 -0.514219
O7    O     O_R   0.399480 0.500010 0.362140 -0.570884
O8    O     O_R   0.633620 0.500050 0.362170 -0.573432

loop_
_geom_bond_atom_site_label_1
_geom_bond_atom_site_label_2
_ccdc_geom_bond_type
C3    O8    A    
C5    C8    S    
C11   C18   S    
C6    C7    S    
C1    C15   S    
C10   N4    T    
Cu2   O6    S    
C18   O3    A    
C2    O6    A    
Cu1   Cu2   S    
C4    C8    T    
Cu2   O2    S    
C16   H5    S    
C3    O7    A    
Cu2   N2    S    
C7    C11   T    
C17   N2    D    
C2    O5    A    
Cu1   O7    S    
C6    H1    S    
H6    N1    S    
C12   C14   S    
C1    O2    A    
C14   H3    S    
C5    C6    D    
Cu2   O8    S    
H2    N2    S    
C9    N3    T    
C10   C17   S    
C1    O1    A    
C3    C4    S    
Cu2   O4    S    
C12   F2    S    
C5    F1    S    
C12   C13   D    
Cu1   O1    S    
C2    C13   S    
C9    C13   S    
C14   C15   D    
C15   H4    S    
Cu1   O3    S    
Cu1   O5    S    
C16   N1    D    
C18   O4    A    
C16   C17   S    
Cu1   N1    S    
