data_mof_unit_38251.cif
_audit_creation_date              2013-03-05T16:06:02-0500
_audit_creation_method            fapswitch 2.2
_symmetry_space_group_name_H-M    P1
_symmetry_Int_Tables_number       1
_space_group_crystal_system       triclinic
_cell_length_a                    10.479913
_cell_length_b                    15.070694
_cell_length_c                    15.534067
_cell_angle_alpha                 81.116132
_cell_angle_beta                  91.28603
_cell_angle_gamma                 104.051147
_cell_volume                      2351.19286856

loop_
_atom_site_label
_atom_site_type_symbol
_atom_site_description
_atom_site_fract_x
_atom_site_fract_y
_atom_site_fract_z
_atom_type_partial_charge
O1    O     O_R   0.462600 0.383110 0.605620 -0.561200
O2    O     O_R   0.537400 0.616890 0.394380 -0.575198
O3    O     O_R   0.510210 0.531900 0.639510 -0.634646
O4    O     O_R   0.489790 0.468100 0.360490 -0.635237
C1    C     C_R   0.479751 0.441520 0.661886 0.870683
C2    C     C_R   0.518689 0.558515 0.338168 0.862253
O5    O     O_R   0.662240 0.425610 0.483080 -0.570558
O6    O     O_R   0.337760 0.574390 0.516920 -0.548471
O7    O     O_R   0.709860 0.574400 0.516970 -0.641849
O8    O     O_R   0.290140 0.425600 0.483030 -0.639064
C3    C     C_R   0.742240 0.500822 0.500367 0.876533
C4    C     C_R   0.257758 0.499179 0.499643 0.872299
Zn1   Zn    Zn3+2 0.468210 0.400660 0.477370 0.999603
Zn2   Zn    Zn3+2 0.531790 0.599340 0.522630 1.000000
C5    C     C_3   0.935821 0.433179 0.562419 -0.154879
C6    C     C_3   0.064177 0.566846 0.437607 -0.114941
C7    C     C_3   0.051087 0.514503 0.578181 -0.171549
C8    C     C_3   0.948926 0.485530 0.421849 -0.205008
H1    H     H_    0.097422 0.526003 0.641801 0.160926
H2    H     H_    0.902650 0.474065 0.358207 0.155898
H3    H     H_    0.879281 0.379126 0.613537 0.186013
H4    H     H_    0.120517 0.620850 0.386386 0.191978
C9    C     C_3   0.121856 0.497988 0.499386 0.005231
C10   C     C_3   0.878153 0.502041 0.500637 -0.013222
C11   C     C_3   0.009244 0.416619 0.483620 -0.134588
C12   C     C_3   0.990759 0.583412 0.516407 -0.085533
H5    H     H_    0.020652 0.348664 0.470236 0.158867
H6    H     H_    0.979332 0.651362 0.529801 0.177304
C13   C     C_R   0.460819 0.405538 0.754800 -0.081170
C14   C     C_R   0.517211 0.593657 0.245347 -0.065929
C15   C     C_R   0.437339 0.282103 0.876855 -0.084864
C16   C     C_R   0.469739 0.703938 0.126786 -0.104865
C17   C     C_R   0.444969 0.311794 0.787296 -0.159771
C18   C     C_R   0.496057 0.680871 0.214556 -0.183826
C19   C     C_R   0.458765 0.467778 0.811822 -0.219932
C20   C     C_R   0.519334 0.532388 0.187624 -0.221103
C21   C     C_R   0.444387 0.439246 0.901636 0.072343
C22   C     C_R   0.479225 0.549368 0.101647 0.078315
C23   C     C_R   0.443705 0.345918 0.935372 -0.003873
C24   C     C_R   0.458486 0.638430 0.069316 0.024891
C25   C     C_R   0.441003 0.503917 0.958109 0.021307
C26   C     C_R   0.460953 0.479772 0.047535 0.001709
C27   C     C_R   0.459439 0.386404 0.080507 -0.285978
C28   C     C_R   0.416342 0.591508 0.927464 -0.305072
C29   C     C_R   0.451880 0.319961 0.025986 0.430423
C30   C     C_R   0.425266 0.658598 0.981286 0.370956
H7    H     H_    0.550907 0.470450 0.212227 0.162539
H8    H     H_    0.475997 0.540116 0.785318 0.166428
H9    H     H_    0.496299 0.730192 0.258347 0.199074
H10   H     H_    0.442337 0.261942 0.743932 0.235714
H11   H     H_    0.427774 0.209249 0.899045 0.229981
H12   H     H_    0.453746 0.772051 0.105894 0.218863
H13   H     H_    0.459728 0.362313 0.149400 0.199991
H14   H     H_    0.384091 0.607774 0.861880 0.185706
N1    N     N_R   0.574200 0.731700 0.552740 -0.149085
N2    N     N_R   0.425800 0.268300 0.447260 -0.150555
C31   C     C_R   0.725186 0.845928 0.618183 -0.271559
C32   C     C_R   0.333956 0.170742 0.343692 -0.219713
C33   C     C_R   0.679864 0.755132 0.603773 -0.059239
C34   C     C_R   0.355253 0.254805 0.374136 -0.048882
C35   C     C_R   0.508894 0.794710 0.513549 0.391273
C36   C     C_R   0.477207 0.201192 0.493795 0.382228
C37   C     C_R   0.558941 0.889932 0.518954 -0.099112
C38   C     C_R   0.472435 0.118600 0.459557 -0.092708
C39   C     C_R   0.665299 0.913701 0.575868 0.126033
C40   C     C_R   0.393702 0.102706 0.385512 0.117344
C41   C     C_R   0.507570 0.962012 0.471186 0.091317
C42   C     C_R   0.541593 0.051396 0.496004 0.100657
C43   C     C_R   0.651515 0.072913 0.549818 -0.130035
C44   C     C_R   0.433638 0.950695 0.394862 -0.142661
C45   C     C_R   0.712733 0.005297 0.588599 -0.158761
C46   C     C_R   0.378069 0.019937 0.352682 -0.179588
H15   H     H_    0.797171 0.024792 0.629315 0.162754
H16   H     H_    0.322614 0.008594 0.293942 0.181535
H17   H     H_    0.315438 0.309769 0.339488 0.158233
H18   H     H_    0.729331 0.702898 0.632847 0.163324
H19   H     H_    0.808363 0.863442 0.660351 0.178531
H20   H     H_    0.275169 0.160212 0.286166 0.193918
H21   H     H_    0.697266 0.142967 0.558401 0.188075
H22   H     H_    0.425361 0.891485 0.362654 0.194412
N3    N     N_R   0.515857 0.209163 0.581807 0.183886
O9    O     O_R   0.459462 0.145043 0.644652 -0.395706
O10   O     O_R   0.619635 0.271187 0.598229 -0.423440
N4    N     N_R   0.382661 0.761965 0.477297 0.197131
O11   O     O_R   0.278042 0.774635 0.512194 -0.397480
O12   O     O_R   0.372776 0.727328 0.405111 -0.447573
S1    S     S_3+6 0.465031 0.207636 0.073718 0.010348
O13   O     O_2   0.335550 0.139534 0.066695 -0.281333
O14   O     O_2   0.569916 0.180435 0.026531 -0.276225
O15   O     O_3   0.505523 0.205695 0.179208 -0.586784
H23   H     H_    0.528296 0.145458 0.196924 0.388681
S2    S     S_3+6 0.395500 0.766999 0.935076 0.049344
O16   O     O_2   0.280152 0.782364 0.981363 -0.236533
O17   O     O_2   0.514363 0.843354 0.946149 -0.278180
O18   O     O_3   0.361919 0.770653 0.828290 -0.506079
H24   H     H_    0.448164 0.779853 0.798953 0.358711

loop_
_geom_bond_atom_site_label_1
_geom_bond_atom_site_label_2
_geom_bond_distance
_ccdc_geom_bond_type
S1    O13   1.502747 D    
C37   C39   1.418473 A    
N1    C33   1.355201 A    
C25   C26   1.404863 A    
O18   H24   0.990931 S    
N3    O9    1.301287 A    
O5    C3    1.297034 A    
C4    C9    1.419905 S    
C7    C9    1.527954 S    
O1    C1    1.313354 A    
C7    C12   1.543645 S    
C38   C42   1.425675 A    
C19   C21   1.395271 A    
N4    O12   1.299989 A    
C22   C26   1.418061 A    
C31   C33   1.386496 A    
C30   S2    1.776697 S    
C32   C34   1.386178 A    
C13   C17   1.395676 A    
C3    C10   1.419919 S    
C20   H7    1.077490 S    
C43   C45   1.386875 A    
O4    Zn1   1.928080 S    
C35   C37   1.418194 A    
C16   H12   1.079499 S    
C36   C38   1.416947 A    
C27   H13   1.075873 S    
C40   C46   1.391555 A    
C28   C30   1.393470 A    
C42   C43   1.410717 A    
O6    Zn2   1.978630 S    
C15   C17   1.391911 A    
C8    C10   1.527864 S    
C23   C29   1.408024 A    
Zn1   N2    2.060024 S    
C9    C11   1.527614 S    
Zn2   N1    2.060025 S    
O2    C2    1.311757 A    
C8    C11   1.543578 S    
C19   H8    1.076915 S    
N3    O10   1.299702 A    
C32   C40   1.397546 A    
C1    C13   1.461336 S    
C6    C12   1.543581 S    
C37   C41   1.427426 A    
C14   C18   1.395735 A    
C44   H22   1.073532 S    
C41   C42   1.418233 A    
C31   H19   1.083811 S    
N4    O11   1.301043 A    
C46   H16   1.084294 S    
C15   H11   1.079630 S    
C45   H15   1.084183 S    
C17   H10   1.079083 S    
C39   C45   1.392280 A    
O8    Zn1   1.997427 S    
S2    O18   1.683313 S    
N2    C34   1.356064 A    
C38   C40   1.416941 A    
C24   C30   1.408973 A    
O7    Zn2   1.997429 S    
O7    C3    1.298553 A    
C5    H3    1.110036 S    
O6    C4    1.296970 A    
C31   C39   1.398063 A    
S2    O17   1.503636 D    
C27   C29   1.395231 A    
O3    Zn2   1.928080 S    
O8    C4    1.298640 A    
O4    C2    1.314179 A    
C5    C10   1.527817 S    
C2    C14   1.458393 S    
C36   N3    1.431761 S    
C6    C9    1.527816 S    
S1    O14   1.503770 D    
C25   C28   1.414923 A    
N2    C36   1.362688 A    
C43   H21   1.075687 S    
O1    Zn1   1.969114 S    
C26   C27   1.417571 A    
C5    C7    1.543307 S    
C18   H9    1.081865 S    
C6    H4    1.109884 S    
C29   S1    1.776350 S    
C10   C12   1.527611 S    
O3    C1    1.313634 A    
C35   N4    1.430440 S    
C11   H5    1.110281 S    
C13   C19   1.390031 A    
C34   H17   1.081659 S    
C12   H6    1.110316 S    
C14   C20   1.386973 A    
C41   C44   1.411434 A    
C20   C22   1.395501 A    
C21   C23   1.421485 A    
C22   C24   1.424640 A    
O15   H23   0.990913 S    
N1    C35   1.363492 A    
S2    O16   1.502757 D    
C7    H1    1.110419 S    
C15   C23   1.411313 A    
C8    H2    1.110388 S    
C16   C24   1.412981 A    
C21   C25   1.415282 A    
O2    Zn2   1.969111 S    
C5    C11   1.543567 S    
C32   H20   1.083934 S    
C28   H14   1.076975 S    
O5    Zn1   1.978631 S    
C6    C8    1.543120 S    
S1    O15   1.681149 S    
C44   C46   1.387152 A    
C33   H18   1.081782 S    
C16   C18   1.392524 A    
