data_mof_unit_40185.cif
_audit_creation_date              2012-12-11T18:37:46-0500
_audit_creation_method            fapswitch 2.2
_symmetry_space_group_name_H-M    P1
_symmetry_Int_Tables_number       1
_space_group_crystal_system       triclinic
_cell_length_a                    8.223672
_cell_length_b                    14.29221
_cell_length_c                    27.013876
_cell_angle_alpha                 93.107234
_cell_angle_beta                  92.842494
_cell_angle_gamma                 88.276777
_cell_volume                      3165.29851817

loop_
_atom_site_label
_atom_site_type_symbol
_atom_type_description
_atom_site_fract_x
_atom_site_fract_y
_atom_site_fract_z
_atom_type_partial_charge
Ba1   Ba    Ba6+2 0.849670 0.455410 0.524690 1.683147
Ba2   Ba    Ba6+2 0.340150 0.544510 0.475310 1.669766
Br1   Br    Br    0.553991 0.095467 0.721907 -0.548331
Br2   Br    Br    0.613905 0.656531 0.676825 -0.553519
C1    C     C_3   0.654912 0.103613 0.659006 0.106652
C2    C     C_R   0.997352 0.597536 0.183251 0.594316
C3    C     C_2   0.783630 0.577537 0.271632 -0.090725
C4    C     C_3   0.096708 0.252167 0.665694 0.311203
C5    C     C_3   0.759809 0.600730 0.326140 -0.068699
C6    C     C_1   0.979028 0.484903 0.344021 0.040125
C7    C     C_2   0.014745 0.474637 0.296407 -0.080161
C8    C     C_2   0.912004 0.522785 0.257335 0.229524
C9    C     C_R   0.030450 0.509167 0.104219 -0.083135
C10   C     C_R   0.989073 0.427555 0.127190 -0.052160
C11   C     C_R   0.977515 0.343567 0.098291 -0.084216
C12   C     C_3   0.630353 0.201698 0.640037 0.350748
C13   C     C_R   0.033835 0.594803 0.132570 -0.023839
C14   C     C_2   0.856910 0.538371 0.360340 -0.269128
C15   C     C_2   0.350270 0.481032 0.643306 -0.252865
C16   C     C_3   0.070601 0.225010 0.718327 -0.260712
C17   C     C_R   0.125888 0.414620 0.975474 0.030248
C18   C     C_R   0.126715 0.586959 0.977708 0.019754
C19   C     C_R   0.144838 0.499207 0.951190 0.041688
C20   C     C_R   0.172221 0.329846 0.949928 -0.076408
C21   C     C_R   0.213620 0.327101 0.900484 -0.058940
C22   C     C_R   0.216528 0.409358 0.874583 -0.024671
C23   C     C_3   0.496921 0.723375 0.625151 0.547674
C24   C     C_R   0.185300 0.495867 0.900102 -0.079138
C25   C     C_R   0.197784 0.578961 0.874868 -0.037851
C26   C     C_R   0.236281 0.574202 0.824105 0.599912
C27   C     C_R   0.254400 0.406603 0.824039 0.578795
C28   C     C_3   0.163290 0.257780 0.423998 0.311197
C29   C     C_2   0.423587 0.434066 0.729378 -0.034879
C30   C     C_3   0.436589 0.409586 0.674760 -0.055948
C31   C     C_1   0.214909 0.523001 0.658640 0.035772
C32   C     C_2   0.175842 0.526802 0.706538 0.075053
C33   C     C_2   0.291098 0.483156 0.745463 0.195653
C34   C     C_3   0.400083 0.803532 0.649992 -0.286543
C35   C     C_R   0.069879 0.417972 0.025039 0.033875
C36   C     C_R   0.067377 0.505448 0.052852 0.019228
C37   C     C_R   0.099670 0.589645 0.029647 0.025548
C38   C     C_R   0.011333 0.338419 0.047805 0.114942
C39   C     C_R   0.073202 0.676306 0.109726 -0.061449
C40   C     C_3   0.167357 0.152105 0.413399 -0.387739
C41   C     C_R   0.137568 0.669186 0.951173 -0.095620
C42   C     C_R   0.171823 0.665109 0.900987 -0.046355
C43   C     C_R   0.104803 0.673996 0.059502 -0.096245
C44   C     C_R   0.688392 0.064806 0.471449 -0.038215
C45   C     C_3   0.017717 0.812271 0.334957 0.297363
C46   C     C_R   0.511564 0.198252 0.501647 0.045563
C47   C     C_R   0.376931 0.229704 0.528010 -0.304581
C48   C     C_R   0.277169 0.166496 0.548377 0.018084
C49   C     C_R   0.320662 0.071440 0.547156 -0.134907
C50   C     C_R   0.460480 0.038696 0.522935 -0.013473
C51   C     C_R   0.554938 0.101328 0.498338 -0.031403
C52   C     C_3   0.023871 0.740183 0.572682 0.308707
C53   C     C_R   0.636575 0.907172 0.495567 -0.024605
C54   C     C_R   0.731613 0.968942 0.470722 0.003292
C55   C     C_R   0.679481 0.810742 0.493871 0.028072
C56   C     C_3   0.055865 0.843010 0.283941 -0.299104
C57   C     C_R   0.811610 0.776805 0.467420 -0.276605
C58   C     C_R   0.914181 0.838197 0.446998 -0.010517
C59   C     C_R   0.872872 0.934212 0.447431 -0.143927
C60   C     C_R   0.502969 0.943424 0.521865 -0.038910
C61   C     C_3   0.981954 0.843791 0.583726 -0.385071
C62   C     C_3   0.658085 0.341885 0.380275 0.294712
C63   C     C_3   0.660461 0.319764 0.324603 -0.357269
C64   C     C_3   0.538716 0.795044 0.350262 0.425838
C65   C     C_3   0.511090 0.885315 0.323358 -0.359258
C66   C     C_R   0.952635 0.432400 0.178117 0.598224
H1    H     H_    0.681753 0.201498 0.602753 0.030399
H2    H     H_    0.781217 0.361643 0.394424 0.005144
H3    H     H_    0.571213 0.401533 0.386976 0.084469
H4    H     H_    0.597944 0.051909 0.631796 0.017923
H5    H     H_    0.753911 0.264049 0.316500 0.131615
H6    H     H_    0.689458 0.383342 0.305367 0.076907
H7    H     H_    0.539142 0.295614 0.310187 0.132551
H8    H     H_    0.496995 0.217269 0.636596 -0.056556
H9    H     H_    0.413347 0.674075 0.604336 -0.019303
H10   H     H_    0.343158 0.847787 0.621239 0.056631
H11   H     H_    0.305018 0.776025 0.672627 0.126801
H12   H     H_    0.256278 0.132580 0.384712 0.125343
H13   H     H_    0.481984 0.848201 0.674479 0.168785
H14   H     H_    0.786690 0.085339 0.663536 0.107968
H15   H     H_    0.059133 0.289294 0.742853 0.116771
H16   H     H_    0.973587 0.739555 0.331162 0.028209
H17   H     H_    0.921261 0.861120 0.349246 -0.026413
H18   H     H_    0.155976 0.798245 0.268560 0.180661
H19   H     H_    0.945643 0.837227 0.258629 0.110676
H20   H     H_    0.093453 0.917169 0.286589 0.085698
H21   H     H_    0.672580 0.781729 0.353552 -0.143335
H22   H     H_    0.492239 0.805453 0.388159 0.076647
H23   H     H_    0.203300 0.115600 0.447535 0.067642
H24   H     H_    0.578858 0.942647 0.343779 0.064043
H25   H     H_    0.379971 0.905564 0.321258 0.142758
H26   H     H_    0.020491 0.316009 0.658623 0.084493
H27   H     H_    0.555618 0.875913 0.285213 0.110129
H28   H     H_    0.120331 0.432454 0.285493 0.100492
H29   H     H_    0.936038 0.281208 0.114402 0.122533
H30   H     H_    0.509779 0.402122 0.755614 0.121384
H31   H     H_    0.245297 0.259694 0.882691 0.137595
H32   H     H_    0.185895 0.264621 0.968066 0.110799
H33   H     H_    0.709053 0.614458 0.244267 0.088956
H34   H     H_    0.044709 0.128801 0.399824 0.115958
H35   H     H_    0.078991 0.743046 0.130690 0.115929
H36   H     H_    0.116378 0.738315 0.967952 0.073475
H37   H     H_    0.227129 0.267666 0.662688 -0.031195
H38   H     H_    0.178337 0.730376 0.882656 0.132112
H39   H     H_    0.137033 0.739652 0.045352 0.069336
H40   H     H_    0.839534 0.549886 0.399778 0.076776
H41   H     H_    0.400222 0.496916 0.608336 0.084446
H42   H     H_    0.342687 0.303473 0.529550 0.069716
H43   H     H_    0.243348 0.023028 0.563858 0.078450
H44   H     H_    0.952580 0.981439 0.430969 0.064835
H45   H     H_    0.915801 0.704859 0.555645 0.023013
H46   H     H_    0.843855 0.702798 0.466954 0.054770
H47   H     H_    0.761137 0.109731 0.451153 0.100486
H48   H     H_    0.956805 0.185815 0.719896 0.162979
H49   H     H_    0.428746 0.898291 0.541512 0.088800
H50   H     H_    0.174417 0.180377 0.731959 0.170743
H51   H     H_    0.287732 0.281048 0.434186 0.001716
H52   H     H_    0.082572 0.274808 0.455139 0.068347
H53   H     H_    0.843511 0.244852 0.022082 0.185897
H54   H     H_    0.031059 0.197955 0.034983 0.172194
H55   H     H_    0.987338 0.544074 0.753033 0.194750
H56   H     H_    0.122912 0.734338 0.546390 0.059969
H57   H     H_    0.043439 0.642554 0.726949 0.231203
H58   H     H_    0.871567 0.851822 0.605639 0.166927
H59   H     H_    0.960997 0.880453 0.548878 0.058237
H60   H     H_    0.082262 0.878909 0.605426 0.119863
N1    N     N_R   0.955962 0.517036 0.205516 -0.423921
N2    N     N_R   0.258653 0.488353 0.798539 -0.432122
N3    N     N_3   0.968168 0.254622 0.019262 -0.507226
N4    N     N_3   0.024320 0.570930 0.720333 -0.406579
O1    O     O_2   0.918080 0.549800 0.616640 -0.388890
O2    O     O_2   0.249628 0.834122 0.459049 -0.491436
O3    O     O_3   0.159606 0.815902 0.365946 -0.577794
O4    O     O_3   0.150070 0.549720 0.556460 -0.507446
O5    O     O_3   0.546340 0.387390 0.478340 -0.488472
O6    O     O_2   0.398940 0.728800 0.517420 -0.485571
O7    O     O_3   0.612099 0.762008 0.596126 -0.643672
O8    O     O_2   0.432406 0.537371 0.321492 -0.479539
O9    O     O_3   0.456396 0.721219 0.323891 -0.566104
O10   O     O_2   0.915812 0.361529 0.197812 -0.596876
O11   O     O_2   0.283775 0.330878 0.802755 -0.598235
O12   O     O_3   0.610670 0.262208 0.403229 -0.639925
O13   O     O_2   0.002836 0.671876 0.207681 -0.622570
O14   O     O_2   0.252193 0.646561 0.802962 -0.574114
O15   O     O_3   0.658250 0.379560 0.591530 -0.480551
O16   O     O_2   0.777650 0.446514 0.678987 -0.433416
O17   O     O_3   0.073924 0.699892 0.617110 -0.621296
O18   O     O_3   0.710983 0.267405 0.672630 -0.594609
O19   O     O_2   0.790750 0.271170 0.482550 -0.469604
O20   O     O_3   0.062300 0.331660 0.568480 -0.502870
O21   O     O_2   0.940652 0.165003 0.540480 -0.489783
O22   O     O_3   0.051126 0.177922 0.632300 -0.599401
O23   O     O_2   0.271610 0.450170 0.383330 -0.457353
O24   O     O_3   0.039630 0.450200 0.443530 -0.501205
O25   O     O_3   0.531440 0.620360 0.408460 -0.477748
O26   O     O_3   0.105316 0.300391 0.381024 -0.631498
O27   O     O_3   0.643350 0.612530 0.521650 -0.454815
O28   O     O_3   0.127390 0.668260 0.431510 -0.465138
P1    P     P_3+3 0.090020 0.577590 0.608380 1.031717
P2    P     P_3+3 0.614340 0.285150 0.467650 0.970262
P3    P     P_3+3 0.082504 0.209890 0.572008 0.939080
P4    P     P_3+3 0.099670 0.422330 0.391610 0.988725
P5    P     P_3+3 0.110809 0.790148 0.425864 0.958172
P6    P     P_3+3 0.647498 0.379519 0.655587 1.010433
P7    P     P_3+3 0.584751 0.729475 0.532733 0.948438
P8    P     P_3+3 0.543501 0.615907 0.343997 0.977249

loop_
_geom_bond_atom_site_label_1
_geom_bond_atom_site_label_2
_ccdc_geom_bond_type
H55   N4    S    
C44   C51   A    
C47   H42   S    
O25   P8    S    
C45   O3    S    
C34   H13   S    
C45   H17   S    
C31   C32   D    
C63   H7    S    
H57   N4    S    
O3    P5    S    
Ba2   O28   S    
C16   H48   S    
C61   H60   S    
C56   H18   S    
C41   C42   A    
C48   C49   A    
C12   H1    S    
C24   C25   A    
C27   N2    Am   
C45   C56   S    
C34   H10   S    
H54   N3    S    
H53   N3    S    
C38   N3    S    
Ba2   O5    S    
Ba1   O24   S    
C8    N1    S    
O21   P3    D    
C40   H12   S    
C53   C55   A    
C18   C37   A    
C23   C34   S    
C52   C61   S    
C64   H21   S    
C64   O9    S    
Ba1   Ba2   S    
C39   H35   S    
C1    H4    S    
C9    C36   A    
C40   H23   S    
C23   O7    S    
C59   H44   S    
C62   H2    S    
Ba1   P2    S    
C64   C65   S    
C1    C12   S    
C42   H38   S    
C26   O14   D    
O20   P3    S    
Ba1   O15   S    
O4    P1    S    
C52   H56   S    
Ba2   P4    S    
C20   H32   S    
Ba1   O5    S    
C6    P4    S    
O8    P8    D    
O27   P7    S    
C62   C63   S    
Ba1   O27   S    
C22   C27   A    
C3    H33   S    
C9    C10   A    
C10   C66   A    
C5    P8    S    
Ba1   O20   S    
O15   P6    S    
O1    P1    D    
C57   H46   S    
C30   P6    S    
C28   H51   S    
Ba2   O27   S    
O18   P6    S    
C49   H43   S    
C29   C30   S    
C35   C38   A    
C40   H34   S    
C3    C8    D    
C55   C57   A    
O19   P2    D    
C46   P2    S    
C47   C48   A    
Ba2   O4    S    
C61   H58   S    
C28   H52   S    
C20   C21   A    
C11   C38   A    
C65   H24   S    
C56   H20   S    
C35   C36   A    
C1    H14   S    
Ba2   O25   S    
C65   H25   S    
C21   C22   A    
C49   C50   A    
C62   H3    S    
O12   P2    S    
C29   C33   D    
C13   C39   A    
C25   C26   A    
C48   P3    S    
O26   P4    S    
C17   C35   A    
Ba2   O24   S    
O16   P6    D    
C16   H15   S    
C58   C59   A    
O7    P7    S    
C46   C47   A    
C37   C43   A    
C12   O18   S    
C4    C16   S    
C19   C24   A    
C52   O17   S    
Ba1   O19   S    
C60   H49   S    
Ba1   P1    S    
C36   C37   A    
O17   P1    S    
C17   C19   A    
O6    P7    D    
C63   H5    S    
C55   P7    S    
C4    H37   S    
C16   H50   S    
Br2   C23   S    
C7    H28   S    
C41   H36   S    
O24   P4    S    
C53   C60   A    
C54   C59   A    
C3    C5    S    
C2    C13   A    
C56   H19   S    
C50   C51   A    
C32   C33   S    
C10   C11   A    
C22   C24   A    
C45   H16   S    
C14   H40   S    
O9    P8    S    
C11   H29   S    
C2    N1    Am   
Br1   C1    S    
C15   C30   S    
C32   N4    S    
O23   P4    D    
C61   H59   S    
C7    C8    S    
C44   C54   A    
C44   H47   S    
O2    P5    D    
C15   H41   S    
C23   H9    S    
C46   C51   A    
C33   N2    S    
C9    C13   A    
C25   C42   A    
C29   H30   S    
Ba2   O6    S    
C34   H11   S    
C43   H39   S    
C2    O13   D    
C21   H31   S    
C53   C54   A    
C50   C60   A    
O22   P3    S    
C6    C14   D    
Ba2   O23   S    
C26   N2    Am   
C66   N1    Am   
C64   H22   S    
C52   H45   S    
C58   P5    S    
C12   H8    S    
C4    H26   S    
C66   O10   D    
C57   C58   A    
C4    O22   S    
C31   P1    S    
C62   O12   S    
O5    P2    S    
C6    C7    D    
O28   P5    S    
C27   O11   D    
C5    C14   S    
C18   C41   A    
C28   C40   S    
C17   C20   A    
C18   C19   A    
C15   C31   D    
C63   H6    S    
Ba1   O1    S    
C39   C43   A    
Ba1   O4    S    
C28   O26   S    
C65   H27   S    
