data_mof_unit_7263.cif
_audit_creation_date              2012-12-10T18:12:07-0500
_audit_creation_method            fapswitch 2.2
_symmetry_space_group_name_H-M    P1
_symmetry_Int_Tables_number       1
_space_group_crystal_system       triclinic
_cell_length_a                    18.289864
_cell_length_b                    18.289805
_cell_length_c                    43.019881
_cell_angle_alpha                 89.995887
_cell_angle_beta                  89.995927
_cell_angle_gamma                 89.999852
_cell_volume                      14390.9264594

loop_
_atom_site_label
_atom_site_type_symbol
_atom_type_description
_atom_site_fract_x
_atom_site_fract_y
_atom_site_fract_z
_atom_type_partial_charge
C1    C     C_R   0.000845 0.433652 0.884901 -0.229995
C2    C     C_R   0.013732 0.435079 0.115246 -0.229021
C3    C     C_R   0.566338 0.000822 0.884898 -0.229908
C4    C     C_R   0.564922 0.013766 0.115242 -0.228981
C5    C     C_R   0.999142 0.566337 0.884898 -0.229994
C6    C     C_R   0.986273 0.564932 0.115243 -0.229024
C7    C     C_R   0.433652 0.999176 0.884902 -0.229910
C8    C     C_R   0.435089 0.986228 0.115246 -0.228969
C9    C     C_R   0.500926 0.933655 0.384905 -0.229680
C10   C     C_R   0.514054 0.935147 0.615245 -0.228692
C11   C     C_R   0.066334 0.500883 0.384898 -0.229967
C12   C     C_R   0.064925 0.513755 0.615243 -0.228992
C13   C     C_R   0.499065 0.066333 0.384902 -0.229684
C14   C     C_R   0.485954 0.064863 0.615242 -0.228695
C15   C     C_R   0.933655 0.499118 0.384901 -0.229968
C16   C     C_R   0.935084 0.486238 0.615247 -0.228979
C17   C     C_R   0.999989 0.499994 0.933505 0.311663
C18   C     C_R   0.000000 0.500005 0.066652 0.258762
C19   C     C_R   0.499996 0.999999 0.933505 0.311614
C20   C     C_R   0.500006 0.999995 0.066652 0.258798
C21   C     C_R   0.499993 0.999993 0.433508 0.311555
C22   C     C_R   0.500003 0.000005 0.566652 0.259339
C23   C     C_R   0.999993 0.500002 0.433505 0.311627
C24   C     C_R   0.000004 0.499995 0.566653 0.258718
C25   C     C_R   0.000519 0.433721 0.917269 -0.131240
C26   C     C_R   0.014176 0.435229 0.082891 -0.130597
C27   C     C_R   0.566269 0.000499 0.917266 -0.131278
C28   C     C_R   0.564772 0.014213 0.082887 -0.130619
C29   C     C_R   0.999462 0.566266 0.917266 -0.131262
C30   C     C_R   0.985827 0.564781 0.082888 -0.130585
C31   C     C_R   0.433722 0.999499 0.917270 -0.131273
C32   C     C_R   0.435240 0.985777 0.082892 -0.130636
C33   C     C_R   0.500606 0.933724 0.417274 -0.131456
C34   C     C_R   0.514518 0.935304 0.582889 -0.130871
C35   C     C_R   0.066264 0.500564 0.417265 -0.131242
C36   C     C_R   0.064775 0.514201 0.582888 -0.130616
C37   C     C_R   0.499382 0.066263 0.417270 -0.131477
C38   C     C_R   0.485489 0.064706 0.582886 -0.130856
C39   C     C_R   0.933724 0.499439 0.417269 -0.131232
C40   C     C_R   0.935235 0.485789 0.582893 -0.130636
C41   C     C_R   0.999996 0.499995 0.868436 -0.009445
C42   C     C_R   0.000002 0.500005 0.131662 -0.012313
C43   C     C_R   0.499995 0.999999 0.868436 -0.009519
C44   C     C_R   0.500005 0.999998 0.131662 -0.012313
C45   C     C_R   0.499997 0.999995 0.368439 -0.009778
C46   C     C_R   0.500003 0.000005 0.631662 -0.012305
C47   C     C_R   0.999995 0.500000 0.368436 -0.009472
C48   C     C_R   0.000005 0.499998 0.631663 -0.012305
C49   C     C_R   0.064360 0.482002 0.983711 0.317698
C50   C     C_R   0.934938 0.515039 0.016358 0.299414
C51   C     C_R   0.517914 0.064385 0.983711 0.317690
C52   C     C_R   0.485042 0.934923 0.016358 0.299460
C53   C     C_R   0.935624 0.517990 0.983715 0.317721
C54   C     C_R   0.065052 0.484961 0.016353 0.299412
C55   C     C_R   0.482085 0.935610 0.983716 0.317680
C56   C     C_R   0.514964 0.065069 0.016354 0.299459
C57   C     C_R   0.564565 0.982750 0.483713 0.317599
C58   C     C_R   0.434775 0.014305 0.516360 0.299678
C59   C     C_R   0.017970 0.564375 0.483711 0.317732
C60   C     C_R   0.984982 0.434934 0.516358 0.299430
C61   C     C_R   0.435427 0.017241 0.483718 0.317624
C62   C     C_R   0.565222 0.985694 0.516355 0.299679
C63   C     C_R   0.982022 0.435624 0.483716 0.317721
C64   C     C_R   0.015018 0.565061 0.516354 0.299428
C65   C     C_R   0.500000 0.000002 0.532573 -0.273006
C66   C     C_R   0.499995 0.999994 0.467569 -0.263283
C67   C     C_R   0.000002 0.499997 0.532572 -0.272725
C68   C     C_R   0.999994 0.500001 0.467567 -0.262819
C69   C     C_R   0.999997 0.500002 0.032571 -0.272683
C70   C     C_R   0.999990 0.499994 0.967567 -0.262807
C71   C     C_R   0.500004 0.999995 0.032572 -0.272722
C72   C     C_R   0.499997 0.999998 0.967567 -0.262867
C73   C     C_R   0.499998 1.000000 0.834287 0.767091
C74   C     C_R   0.500002 1.000000 0.165747 0.767892
C75   C     C_R   0.999999 0.499998 0.834287 0.767119
C76   C     C_R   0.000001 0.500002 0.165747 0.767920
C77   C     C_R   0.999998 0.500000 0.334287 0.767091
C78   C     C_R   0.000002 0.500000 0.665747 0.767892
C79   C     C_R   0.499999 0.999998 0.334288 0.767100
C80   C     C_R   0.500001 0.000002 0.665746 0.767848
C81   C     C_R   0.639936 0.140062 0.750008 0.864465
C82   C     C_R   0.360118 0.859866 0.249950 0.865678
C83   C     C_R   0.859940 0.639937 0.750009 0.864495
C84   C     C_R   0.140132 0.360117 0.249949 0.865691
C85   C     C_R   0.360061 0.859941 0.750008 0.864457
C86   C     C_R   0.639886 0.140131 0.249950 0.865671
C87   C     C_R   0.140061 0.360062 0.750009 0.864558
C88   C     C_R   0.859867 0.639884 0.249949 0.865755
C89   C     C_R   0.640060 0.860061 0.250008 0.864532
C90   C     C_R   0.359867 0.139885 0.749950 0.865767
C91   C     C_R   0.860061 0.359941 0.250009 0.864483
C92   C     C_R   0.139885 0.640131 0.749949 0.865682
C93   C     C_R   0.359941 0.139938 0.250008 0.864469
C94   C     C_R   0.640131 0.860116 0.749950 0.865704
C95   C     C_R   0.139936 0.640062 0.250008 0.864491
C96   C     C_R   0.860118 0.359865 0.749949 0.865690
C97   C     C_R   0.278116 0.224314 0.721420 0.351380
C98   C     C_R   0.721623 0.775499 0.278514 0.348681
C99   C     C_R   0.775675 0.278139 0.721419 0.351322
C100  C     C_R   0.224505 0.721608 0.278515 0.348686
C101  C     C_R   0.721891 0.775694 0.721420 0.351372
C102  C     C_R   0.278369 0.224492 0.278514 0.348673
C103  C     C_R   0.224338 0.721867 0.721419 0.351326
C104  C     C_R   0.775482 0.278385 0.278515 0.348698
C105  C     C_R   0.278827 0.775196 0.278423 0.352520
C106  C     C_R   0.721173 0.224720 0.721507 0.351407
C107  C     C_R   0.775214 0.721182 0.278422 0.352536
C108  C     C_R   0.224694 0.278812 0.721508 0.351426
C109  C     C_R   0.721169 0.224789 0.278423 0.352520
C110  C     C_R   0.278833 0.775293 0.721507 0.351403
C111  C     C_R   0.224778 0.278810 0.278422 0.352534
C112  C     C_R   0.775314 0.721196 0.721508 0.351422
C113  C     C_R   0.778121 0.724317 0.221418 0.351308
C114  C     C_R   0.221627 0.275504 0.778516 0.348681
C115  C     C_R   0.275677 0.778137 0.221420 0.351325
C116  C     C_R   0.724508 0.221605 0.778514 0.348686
C117  C     C_R   0.221886 0.275691 0.221418 0.351300
C118  C     C_R   0.778365 0.724487 0.778516 0.348673
C119  C     C_R   0.724336 0.221869 0.221419 0.351330
C120  C     C_R   0.275479 0.778389 0.778514 0.348694
C121  C     C_R   0.778828 0.275194 0.778422 0.352523
C122  C     C_R   0.221176 0.724718 0.221507 0.351415
C123  C     C_R   0.275221 0.221188 0.778424 0.352513
C124  C     C_R   0.724698 0.778814 0.221506 0.351417
C125  C     C_R   0.221167 0.724791 0.778422 0.352525
C126  C     C_R   0.778830 0.275296 0.221508 0.351411
C127  C     C_R   0.724771 0.778804 0.778424 0.352513
C128  C     C_R   0.275310 0.221194 0.221506 0.351412
C129  C     C_R   0.196376 0.304189 0.750037 -0.393023
C130  C     C_R   0.803519 0.695765 0.249902 -0.392895
C131  C     C_R   0.695809 0.196378 0.750035 -0.393020
C132  C     C_R   0.304237 0.803517 0.249904 -0.392888
C133  C     C_R   0.803624 0.695810 0.750037 -0.392986
C134  C     C_R   0.196481 0.304235 0.249902 -0.392859
C135  C     C_R   0.304184 0.803629 0.750035 -0.393024
C136  C     C_R   0.695771 0.196475 0.249903 -0.392893
C137  C     C_R   0.195808 0.696379 0.250036 -0.393014
C138  C     C_R   0.804237 0.303516 0.749903 -0.392896
C139  C     C_R   0.696374 0.804186 0.250034 -0.393025
C140  C     C_R   0.303521 0.195768 0.749904 -0.392897
C141  C     C_R   0.804184 0.303628 0.250036 -0.393019
C142  C     C_R   0.195770 0.696476 0.749902 -0.392901
C143  C     C_R   0.303626 0.195814 0.250034 -0.392987
C144  C     C_R   0.696478 0.804232 0.749904 -0.392861
H1    H     H_    0.001536 0.381728 0.872810 0.177383
H2    H     H_    0.024520 0.384338 0.127382 0.177288
H3    H     H_    0.618264 0.001486 0.872804 0.177412
H4    H     H_    0.615655 0.024585 0.127376 0.177254
H5    H     H_    0.998454 0.618262 0.872804 0.177399
H6    H     H_    0.975486 0.615672 0.127377 0.177276
H7    H     H_    0.381727 0.998512 0.872811 0.177395
H8    H     H_    0.384355 0.975411 0.127384 0.177269
H9    H     H_    0.501679 0.881734 0.372813 0.177426
H10   H     H_    0.525090 0.884462 0.627382 0.177134
H11   H     H_    0.118258 0.501594 0.372804 0.177413
H12   H     H_    0.115661 0.524566 0.627376 0.177261
H13   H     H_    0.498314 0.118256 0.372808 0.177442
H14   H     H_    0.474918 0.115548 0.627378 0.177121
H15   H     H_    0.881732 0.498406 0.372810 0.177397
H16   H     H_    0.884348 0.475429 0.627384 0.177277
H17   H     H_    0.000384 0.382192 0.929658 0.123068
H18   H     H_    0.024956 0.384845 0.070472 0.144699
H19   H     H_    0.617797 0.000336 0.929652 0.123009
H20   H     H_    0.615147 0.025028 0.070465 0.144655
H21   H     H_    0.999597 0.617795 0.929652 0.123068
H22   H     H_    0.975045 0.615165 0.070466 0.144697
H23   H     H_    0.382194 0.999661 0.929659 0.123005
H24   H     H_    0.384865 0.974962 0.070473 0.144660
H25   H     H_    0.500543 0.882199 0.429665 0.122854
H26   H     H_    0.525569 0.884981 0.570468 0.144260
H27   H     H_    0.117790 0.500456 0.429651 0.123072
H28   H     H_    0.115153 0.525007 0.570465 0.144700
H29   H     H_    0.499446 0.117787 0.429658 0.122856
H30   H     H_    0.474437 0.115029 0.570463 0.144258
H31   H     H_    0.882197 0.499547 0.429658 0.123067
H32   H     H_    0.884856 0.474984 0.570474 0.144704
O1    O     O_3   0.500000 0.000000 0.750000 -0.515256
O2    O     O_3   0.500000 0.000000 0.250000 -0.515252
O3    O     O_3   1.000000 0.500000 0.750000 -0.515254
O4    O     O_3   1.000000 0.500000 0.250000 -0.515253
O5    O     O_R   0.439140 0.000000 0.819450 -0.637858
O6    O     O_R   0.560860 0.000000 0.180550 -0.637121
O7    O     O_R   0.000000 0.439140 0.819450 -0.637873
O8    O     O_R   0.000000 0.560860 0.180550 -0.637134
O9    O     O_R   0.560860 0.000000 0.819450 -0.637840
O10   O     O_R   0.439140 0.000000 0.180550 -0.637100
O11   O     O_R   0.000000 0.560860 0.819450 -0.637842
O12   O     O_R   1.000000 0.439140 0.180550 -0.637108
O13   O     O_R   0.939140 0.500000 0.319450 -0.637859
O14   O     O_R   0.060860 0.500000 0.680550 -0.637115
O15   O     O_R   0.500000 0.939140 0.319450 -0.637857
O16   O     O_R   0.500000 0.060860 0.680550 -0.637094
O17   O     O_R   0.060860 0.500000 0.319450 -0.637840
O18   O     O_R   0.939140 0.500000 0.680550 -0.637094
O19   O     O_R   0.500000 0.060860 0.319450 -0.637825
O20   O     O_R   0.500000 0.939140 0.680550 -0.637068
O21   O     O_R   0.646030 0.085480 0.768310 -0.615015
O22   O     O_R   0.353970 0.914520 0.231690 -0.615589
O23   O     O_R   0.914520 0.646030 0.768310 -0.615030
O24   O     O_R   0.085480 0.353970 0.231690 -0.615599
O25   O     O_R   0.353970 0.914520 0.768310 -0.615040
O26   O     O_R   0.646030 0.085480 0.231690 -0.615610
O27   O     O_R   0.085480 0.353970 0.768310 -0.615038
O28   O     O_R   0.914520 0.646030 0.231690 -0.615608
O29   O     O_R   0.646030 0.914520 0.231690 -0.605703
O30   O     O_R   0.353970 0.085480 0.768310 -0.605870
O31   O     O_R   0.914520 0.353970 0.231690 -0.605683
O32   O     O_R   0.085480 0.646030 0.768310 -0.605847
O33   O     O_R   0.353970 0.085480 0.231690 -0.605694
O34   O     O_R   0.646030 0.914520 0.768310 -0.605861
O35   O     O_R   0.085480 0.646030 0.231690 -0.605705
O36   O     O_R   0.914520 0.353970 0.768310 -0.605868
O37   O     O_R   0.146030 0.585480 0.268310 -0.615012
O38   O     O_R   0.853970 0.414520 0.731690 -0.615592
O39   O     O_R   0.414520 0.146030 0.268310 -0.615034
O40   O     O_R   0.585480 0.853970 0.731690 -0.615619
O41   O     O_R   0.853970 0.414520 0.268310 -0.615037
O42   O     O_R   0.146030 0.585480 0.731690 -0.615612
O43   O     O_R   0.585480 0.853970 0.268310 -0.615042
O44   O     O_R   0.414520 0.146030 0.731690 -0.615627
O45   O     O_R   0.146030 0.414520 0.731690 -0.605705
O46   O     O_R   0.853970 0.585480 0.268310 -0.605866
O47   O     O_R   0.414520 0.853970 0.731690 -0.605679
O48   O     O_R   0.585480 0.146030 0.268310 -0.605849
O49   O     O_R   0.853970 0.585480 0.731690 -0.605696
O50   O     O_R   0.146030 0.414520 0.268310 -0.605857
O51   O     O_R   0.585480 0.146030 0.731690 -0.605701
O52   O     O_R   0.414520 0.853970 0.268310 -0.605870
Zn1   Zn    Zn3+2 0.500000 0.086800 0.724180 0.979719
Zn2   Zn    Zn3+2 0.500000 0.913200 0.275820 0.979313
Zn3   Zn    Zn3+2 0.913200 0.500000 0.724180 0.979719
Zn4   Zn    Zn3+2 0.086800 0.500000 0.275820 0.979320
Zn5   Zn    Zn3+2 0.500000 0.913200 0.724180 0.979718
Zn6   Zn    Zn3+2 0.500000 0.086800 0.275820 0.979316
Zn7   Zn    Zn3+2 0.086800 0.500000 0.724180 0.979720
Zn8   Zn    Zn3+2 0.913200 0.500000 0.275820 0.979321
Zn9   Zn    Zn3+2 1.000000 0.586800 0.224180 0.979716
Zn10  Zn    Zn3+2 0.000000 0.413200 0.775820 0.979311
Zn11  Zn    Zn3+2 0.413200 0.000000 0.224180 0.979713
Zn12  Zn    Zn3+2 0.586800 0.000000 0.775820 0.979309
Zn13  Zn    Zn3+2 1.000000 0.413200 0.224180 0.979716
Zn14  Zn    Zn3+2 0.000000 0.586800 0.775820 0.979314
Zn15  Zn    Zn3+2 0.586800 0.000000 0.224180 0.979713
Zn16  Zn    Zn3+2 0.413200 0.000000 0.775820 0.979310
O53   O     O_3   0.127888 0.468335 0.967186 -0.592235
C145  C     C_3   0.145715 0.393307 0.969309 0.155556
H33   H     H_    0.096531 0.357272 0.968258 0.107380
H34   H     H_    0.175658 0.382356 0.991293 0.188867
C146  C     C_3   0.195228 0.373086 0.942238 -0.848885
H35   H     H_    0.245854 0.406578 0.942879 0.260863
H36   H     H_    0.210302 0.314373 0.943693 0.210152
H37   H     H_    0.166392 0.382995 0.919917 0.262908
O54   O     O_3   0.871250 0.529485 0.032555 -0.605315
C147  C     C_3   0.833121 0.463218 0.037037 0.148809
H38   H     H_    0.868939 0.419936 0.047129 0.126503
H39   H     H_    0.810154 0.443505 0.014586 0.166244
C148  C     C_3   0.770457 0.476197 0.059610 -0.840806
H40   H     H_    0.732647 0.518149 0.050120 0.256719
H41   H     H_    0.739765 0.424527 0.063288 0.204968
H42   H     H_    0.792207 0.495327 0.082315 0.259532
O55   O     O_3   0.531493 0.127932 0.967189 -0.592197
C149  C     C_3   0.606512 0.145802 0.969276 0.155537
H43   H     H_    0.642575 0.096646 0.968151 0.107365
H44   H     H_    0.617524 0.175635 0.991283 0.188795
C150  C     C_3   0.626596 0.195470 0.942236 -0.848688
H45   H     H_    0.593084 0.246080 0.942955 0.260809
H46   H     H_    0.685308 0.210556 0.943657 0.210111
H47   H     H_    0.616601 0.166750 0.919894 0.262932
O56   O     O_3   0.470674 0.871219 0.032555 -0.605278
C151  C     C_3   0.536983 0.833166 0.037027 0.148855
H48   H     H_    0.580226 0.869031 0.047116 0.126491
H49   H     H_    0.556715 0.810225 0.014574 0.166272
C152  C     C_3   0.524083 0.770486 0.059600 -0.840821
H50   H     H_    0.482174 0.732631 0.050114 0.256738
H51   H     H_    0.575788 0.739853 0.063271 0.204973
H52   H     H_    0.504936 0.792209 0.082308 0.259531
O57   O     O_3   0.872092 0.531652 0.967196 -0.592224
C153  C     C_3   0.854268 0.606682 0.969309 0.155564
H53   H     H_    0.903453 0.642714 0.968250 0.107372
H54   H     H_    0.824328 0.617642 0.991294 0.188865
C154  C     C_3   0.804754 0.626894 0.942240 -0.848885
H55   H     H_    0.754127 0.593405 0.942889 0.260865
H56   H     H_    0.789683 0.685608 0.943689 0.210154
H57   H     H_    0.833588 0.616975 0.919919 0.262910
O58   O     O_3   0.128743 0.470521 0.032547 -0.605319
C155  C     C_3   0.166882 0.536787 0.037008 0.148791
H58   H     H_    0.131073 0.580080 0.047098 0.126504
H59   H     H_    0.189840 0.556480 0.014550 0.166262
C156  C     C_3   0.229557 0.523818 0.059574 -0.840796
H60   H     H_    0.267356 0.481853 0.050087 0.256717
H61   H     H_    0.260258 0.575488 0.063236 0.204968
H62   H     H_    0.207817 0.504710 0.082287 0.259533
O59   O     O_3   0.468507 0.872064 0.967197 -0.592200
C157  C     C_3   0.393488 0.854191 0.969292 0.155524
H63   H     H_    0.357424 0.903346 0.968165 0.107369
H64   H     H_    0.382478 0.824362 0.991302 0.188793
C158  C     C_3   0.373405 0.804518 0.942258 -0.848676
H65   H     H_    0.406919 0.753910 0.942979 0.260807
H66   H     H_    0.314694 0.789429 0.943685 0.210103
H67   H     H_    0.383397 0.833235 0.919912 0.262927
O60   O     O_3   0.529333 0.128773 0.032546 -0.605278
C159  C     C_3   0.463024 0.166821 0.037025 0.148855
H68   H     H_    0.419786 0.130952 0.047119 0.126492
H69   H     H_    0.443283 0.189765 0.014573 0.166265
C160  C     C_3   0.475927 0.229497 0.059595 -0.840815
H70   H     H_    0.517832 0.267356 0.050103 0.256738
H71   H     H_    0.424222 0.260126 0.063271 0.204974
H72   H     H_    0.495084 0.207770 0.082301 0.259534
O61   O     O_3   0.628249 0.969797 0.467197 -0.592086
C161  C     C_3   0.646645 0.894889 0.469179 0.155548
H73   H     H_    0.597759 0.858494 0.467892 0.107396
H74   H     H_    0.676317 0.883857 0.491222 0.188524
C162  C     C_3   0.696734 0.875446 0.442196 -0.848555
H75   H     H_    0.747102 0.909295 0.443077 0.260727
H76   H     H_    0.712210 0.816822 0.443528 0.210033
H77   H     H_    0.668176 0.885496 0.419822 0.263024
O62   O     O_3   0.370934 0.028080 0.532555 -0.604951
C163  C     C_3   0.333505 0.961412 0.537032 0.149073
H78   H     H_    0.369765 0.918531 0.547148 0.126377
H79   H     H_    0.310803 0.941426 0.514576 0.166279
C164  C     C_3   0.270649 0.973740 0.559576 -0.840592
H80   H     H_    0.232391 0.015241 0.550053 0.256730
H81   H     H_    0.240532 0.921735 0.563264 0.205008
H82   H     H_    0.292133 0.993167 0.582281 0.259499
O63   O     O_3   0.031603 0.627914 0.467187 -0.592212
C165  C     C_3   0.106623 0.645778 0.469302 0.155554
H83   H     H_    0.142681 0.596612 0.468239 0.107372
H84   H     H_    0.117567 0.675707 0.491288 0.188894
C166  C     C_3   0.126809 0.695328 0.442237 -0.848853
H85   H     H_    0.093289 0.745935 0.442890 0.260874
H86   H     H_    0.185514 0.710432 0.443687 0.210188
H87   H     H_    0.116909 0.666506 0.419913 0.262903
O64   O     O_3   0.970567 0.371236 0.532555 -0.605320
C167  C     C_3   0.036855 0.333140 0.537034 0.148809
H88   H     H_    0.080116 0.368981 0.547126 0.126501
H89   H     H_    0.056586 0.310186 0.514582 0.166225
C168  C     C_3   0.023903 0.270465 0.559606 -0.840725
H90   H     H_    0.981977 0.232629 0.550115 0.256721
H91   H     H_    0.075592 0.239802 0.563284 0.204990
H92   H     H_    0.004751 0.292202 0.582311 0.259527
O65   O     O_3   0.371740 0.030190 0.467206 -0.592076
C169  C     C_3   0.353348 0.105100 0.469180 0.155557
H93   H     H_    0.402235 0.141492 0.467887 0.107387
H94   H     H_    0.323674 0.116140 0.491223 0.188525
C170  C     C_3   0.303263 0.124537 0.442197 -0.848562
H95   H     H_    0.252892 0.090691 0.443085 0.260730
H96   H     H_    0.287789 0.183163 0.443523 0.210036
H97   H     H_    0.331823 0.114479 0.419824 0.263026
O66   O     O_3   0.629065 0.971927 0.532546 -0.604954
C171  C     C_3   0.666503 0.038594 0.537004 0.149054
H98   H     H_    0.630252 0.081487 0.547116 0.126376
H99   H     H_    0.689199 0.058559 0.514541 0.166299
C172  C     C_3   0.729367 0.026279 0.559542 -0.840580
H100  H     H_    0.767616 0.984763 0.550023 0.256729
H101  H     H_    0.759492 0.078283 0.563214 0.205008
H102  H     H_    0.707890 0.006876 0.582254 0.259500
O67   O     O_3   0.968389 0.372087 0.467195 -0.592213
C173  C     C_3   0.893369 0.354222 0.469316 0.155528
H103  H     H_    0.857312 0.403387 0.468249 0.107382
H104  H     H_    0.882424 0.324300 0.491307 0.188892
C174  C     C_3   0.873184 0.304664 0.442259 -0.848850
H105  H     H_    0.906703 0.254057 0.442916 0.260873
H106  H     H_    0.814479 0.289560 0.443713 0.210181
H107  H     H_    0.883086 0.333478 0.419931 0.262904
O68   O     O_3   0.029436 0.628758 0.532547 -0.605322
C175  C     C_3   0.963148 0.666848 0.537034 0.148809
H108  H     H_    0.919892 0.631003 0.547133 0.126502
H109  H     H_    0.943406 0.689808 0.514585 0.166216
C176  C     C_3   0.976104 0.729518 0.559604 -0.840721
H110  H     H_    0.018025 0.767358 0.550107 0.256720
H111  H     H_    0.924415 0.760177 0.563288 0.204990
H112  H     H_    0.995266 0.707775 0.582307 0.259529
O69   O     O_3   0.306893 0.201845 0.693154 -0.536662
C177  C     C_3   0.278901 0.132136 0.685090 0.139077
H113  H     H_    0.222317 0.122360 0.693841 0.080573
H114  H     H_    0.314912 0.088509 0.694460 0.128820
C178  C     C_3   0.277914 0.124927 0.649863 -0.806865
H115  H     H_    0.334182 0.130756 0.640484 0.261534
H116  H     H_    0.256213 0.070461 0.643189 0.188248
H117  H     H_    0.242492 0.167913 0.639588 0.256567
O70   O     O_3   0.692051 0.797140 0.306747 -0.535941
C179  C     C_3   0.719447 0.866764 0.315263 0.147896
H118  H     H_    0.684523 0.910585 0.305340 0.127599
H119  H     H_    0.776777 0.876314 0.307438 0.079589
C180  C     C_3   0.717139 0.873871 0.350475 -0.815964
H120  H     H_    0.751243 0.830598 0.361332 0.259235
H121  H     H_    0.738551 0.928157 0.357561 0.193626
H122  H     H_    0.659934 0.868422 0.358844 0.260835
O71   O     O_3   0.798117 0.306952 0.693154 -0.536625
C181  C     C_3   0.867815 0.278967 0.685066 0.139269
H123  H     H_    0.877578 0.222355 0.693785 0.080534
H124  H     H_    0.911457 0.314936 0.694450 0.128787
C182  C     C_3   0.875011 0.278085 0.649838 -0.806918
H125  H     H_    0.869210 0.334385 0.640490 0.261619
H126  H     H_    0.929461 0.256373 0.643144 0.188154
H127  H     H_    0.832002 0.242716 0.639548 0.256614
O72   O     O_3   0.202883 0.692008 0.306747 -0.535928
C183  C     C_3   0.133268 0.719401 0.315282 0.147647
H128  H     H_    0.089434 0.684520 0.305345 0.127584
H129  H     H_    0.123736 0.776755 0.307485 0.079598
C184  C     C_3   0.126165 0.716998 0.350494 -0.815249
H130  H     H_    0.169458 0.751049 0.361364 0.259192
H131  H     H_    0.071892 0.738419 0.357595 0.193687
H132  H     H_    0.131585 0.659767 0.358833 0.260776
O73   O     O_3   0.693121 0.798170 0.693154 -0.536660
C185  C     C_3   0.721114 0.867880 0.685088 0.139075
H133  H     H_    0.777697 0.877654 0.693837 0.080572
H134  H     H_    0.685102 0.911505 0.694459 0.128813
C186  C     C_3   0.722104 0.875099 0.649862 -0.806855
H135  H     H_    0.665837 0.869273 0.640484 0.261535
H136  H     H_    0.743806 0.929567 0.643186 0.188248
H137  H     H_    0.757527 0.832116 0.639585 0.256565
O74   O     O_3   0.307934 0.202844 0.306747 -0.535939
C187  C     C_3   0.280536 0.133218 0.315264 0.147893
H138  H     H_    0.315460 0.089400 0.305340 0.127591
H139  H     H_    0.223206 0.123671 0.307441 0.079590
C188  C     C_3   0.282841 0.126100 0.350476 -0.815961
H140  H     H_    0.248736 0.169369 0.361335 0.259235
H141  H     H_    0.261428 0.071812 0.357563 0.193626
H142  H     H_    0.340044 0.131546 0.358843 0.260837
O75   O     O_3   0.201908 0.693060 0.693154 -0.536626
C189  C     C_3   0.132213 0.721046 0.685065 0.139293
H143  H     H_    0.122447 0.777657 0.693781 0.080533
H144  H     H_    0.088568 0.685076 0.694449 0.128781
C190  C     C_3   0.125031 0.721932 0.649836 -0.806917
H145  H     H_    0.130837 0.665632 0.640491 0.261616
H146  H     H_    0.070582 0.743643 0.643141 0.188153
H147  H     H_    0.168043 0.757303 0.639545 0.256614
O76   O     O_3   0.797091 0.307979 0.306747 -0.535932
C191  C     C_3   0.866703 0.280585 0.315283 0.147659
H148  H     H_    0.910540 0.315474 0.305349 0.127587
H149  H     H_    0.876243 0.223236 0.307485 0.079597
C192  C     C_3   0.873788 0.282969 0.350496 -0.815226
H150  H     H_    0.830493 0.248908 0.361363 0.259190
H151  H     H_    0.928060 0.261550 0.357598 0.193679
H152  H     H_    0.868358 0.340195 0.358837 0.260773
O77   O     O_3   0.309958 0.796190 0.306402 -0.532100
C193  C     C_3   0.276932 0.861715 0.316718 0.136875
H153  H     H_    0.217030 0.854937 0.319774 0.120062
H154  H     H_    0.287005 0.907411 0.300195 0.096733
C194  C     C_3   0.309366 0.882788 0.348002 -0.787677
H155  H     H_    0.369227 0.890929 0.345716 0.264901
H156  H     H_    0.284178 0.934388 0.356354 0.189734
H157  H     H_    0.298810 0.838959 0.365300 0.257378
O78   O     O_3   0.689939 0.203845 0.693521 -0.531417
C195  C     C_3   0.722774 0.138273 0.683139 0.146278
H158  H     H_    0.711966 0.092414 0.699491 0.096101
H159  H     H_    0.782822 0.144669 0.680383 0.118767
C196  C     C_3   0.690931 0.117889 0.651638 -0.801110
H160  H     H_    0.702361 0.161818 0.634488 0.256657
H161  H     H_    0.715899 0.066190 0.643273 0.184773
H162  H     H_    0.630902 0.110231 0.653573 0.269091
O79   O     O_3   0.796236 0.690066 0.306402 -0.532107
C197  C     C_3   0.861761 0.723112 0.316703 0.136907
H163  H     H_    0.854968 0.783013 0.319754 0.120110
H164  H     H_    0.907445 0.713046 0.300174 0.096731
C198  C     C_3   0.882870 0.690691 0.347987 -0.787905
H165  H     H_    0.891038 0.630834 0.345705 0.264885
H166  H     H_    0.934464 0.715905 0.356330 0.189759
H167  H     H_    0.839049 0.701230 0.365290 0.257349
O80   O     O_3   0.203786 0.310025 0.693521 -0.531436
C199  C     C_3   0.138208 0.277173 0.683157 0.146221
H168  H     H_    0.092365 0.287982 0.699517 0.096111
H169  H     H_    0.144613 0.217124 0.680410 0.118811
C200  C     C_3   0.117784 0.308995 0.651656 -0.801213
H170  H     H_    0.161708 0.297584 0.634501 0.256665
H171  H     H_    0.066093 0.283999 0.643299 0.184838
H172  H     H_    0.110097 0.369020 0.653585 0.268997
O81   O     O_3   0.690032 0.203781 0.306402 -0.532095
C201  C     C_3   0.723057 0.138252 0.316715 0.136871
H173  H     H_    0.782961 0.145023 0.319763 0.120035
H174  H     H_    0.712971 0.092560 0.300194 0.096746
C202  C     C_3   0.690635 0.117176 0.348004 -0.787663
H175  H     H_    0.630773 0.109039 0.345726 0.264895
H176  H     H_    0.715824 0.065572 0.356354 0.189736
H177  H     H_    0.701201 0.161001 0.365300 0.257374
O82   O     O_3   0.310074 0.796179 0.693521 -0.531411
C203  C     C_3   0.277243 0.861756 0.683140 0.146290
H178  H     H_    0.288059 0.907611 0.699490 0.096109
H179  H     H_    0.217194 0.855366 0.680389 0.118743
C204  C     C_3   0.309082 0.882143 0.651636 -0.801109
H180  H     H_    0.297644 0.838218 0.634487 0.256647
H181  H     H_    0.284119 0.933846 0.643271 0.184773
H182  H     H_    0.369112 0.889793 0.653565 0.269094
O83   O     O_3   0.203749 0.309920 0.306401 -0.532103
C205  C     C_3   0.138223 0.276870 0.316705 0.136897
H183  H     H_    0.145019 0.216969 0.319761 0.120123
H184  H     H_    0.092544 0.286930 0.300174 0.096723
C206  C     C_3   0.117099 0.309292 0.347986 -0.787904
H185  H     H_    0.108928 0.369148 0.345699 0.264884
H186  H     H_    0.065503 0.284075 0.356331 0.189755
H187  H     H_    0.160914 0.298757 0.365291 0.257353
O84   O     O_3   0.796230 0.689990 0.693522 -0.531433
C207  C     C_3   0.861808 0.722847 0.683156 0.146218
H188  H     H_    0.907647 0.712041 0.699516 0.096104
H189  H     H_    0.855399 0.782895 0.680405 0.118819
C208  C     C_3   0.882245 0.691026 0.651656 -0.801225
H190  H     H_    0.838326 0.702434 0.634501 0.256670
H191  H     H_    0.933937 0.716026 0.643298 0.184838
H192  H     H_    0.889936 0.631001 0.653589 0.268994
O85   O     O_3   0.806922 0.701870 0.193152 -0.536632
C209  C     C_3   0.778943 0.632165 0.185075 0.139270
H193  H     H_    0.722330 0.622406 0.193795 0.080547
H194  H     H_    0.814912 0.588530 0.194466 0.128758
C210  C     C_3   0.778065 0.624950 0.149848 -0.806936
H195  H     H_    0.834367 0.630747 0.140501 0.261636
H196  H     H_    0.756358 0.570494 0.143163 0.188134
H197  H     H_    0.742696 0.667951 0.139551 0.256623
O86   O     O_3   0.192041 0.297131 0.806749 -0.535945
C211  C     C_3   0.219429 0.366752 0.815273 0.147621
H198  H     H_    0.184532 0.410578 0.805337 0.127575
H199  H     H_    0.276775 0.376292 0.807467 0.079605
C212  C     C_3   0.217053 0.373862 0.850485 -0.815220
H200  H     H_    0.238470 0.428140 0.857578 0.193677
H201  H     H_    0.159829 0.368435 0.858833 0.260775
H202  H     H_    0.251119 0.330577 0.861355 0.259184
O87   O     O_3   0.298123 0.806947 0.193155 -0.536625
C213  C     C_3   0.367825 0.778965 0.185070 0.139249
H203  H     H_    0.377589 0.722354 0.193791 0.080532
H204  H     H_    0.411463 0.814937 0.194455 0.128791
C214  C     C_3   0.375029 0.778079 0.149842 -0.806921
H205  H     H_    0.369224 0.834378 0.140493 0.261624
H206  H     H_    0.429483 0.756372 0.143151 0.188153
H207  H     H_    0.332025 0.742706 0.139552 0.256611
O88   O     O_3   0.702888 0.192004 0.806746 -0.535930
C215  C     C_3   0.633271 0.219393 0.815281 0.147709
H208  H     H_    0.589440 0.184498 0.805351 0.127606
H209  H     H_    0.623728 0.276741 0.807478 0.079577
C216  C     C_3   0.626179 0.217011 0.850494 -0.815383
H210  H     H_    0.669468 0.251078 0.861358 0.259187
H211  H     H_    0.571904 0.238426 0.857596 0.193680
H212  H     H_    0.631613 0.159787 0.858840 0.260800
O89   O     O_3   0.193092 0.298144 0.193153 -0.536630
C217  C     C_3   0.221072 0.367851 0.185074 0.139270
H213  H     H_    0.277684 0.377608 0.193791 0.080545
H214  H     H_    0.185102 0.411484 0.194466 0.128751
C218  C     C_3   0.221952 0.375076 0.149846 -0.806927
H215  H     H_    0.165651 0.369281 0.140502 0.261638
H216  H     H_    0.243660 0.429534 0.143160 0.188134
H217  H     H_    0.257322 0.332077 0.139548 0.256622
O90   O     O_3   0.807944 0.702853 0.806749 -0.535943
C219  C     C_3   0.780554 0.633229 0.815274 0.147617
H218  H     H_    0.815452 0.589406 0.805337 0.127569
H219  H     H_    0.723209 0.623693 0.807470 0.079606
C220  C     C_3   0.782925 0.626108 0.850486 -0.815222
H220  H     H_    0.748856 0.669390 0.861357 0.259185
H221  H     H_    0.761507 0.571828 0.857580 0.193677
H222  H     H_    0.840147 0.631532 0.858832 0.260777
O91   O     O_3   0.701902 0.193067 0.193155 -0.536627
C221  C     C_3   0.632203 0.221049 0.185069 0.139273
H223  H     H_    0.622436 0.277658 0.193787 0.080531
H224  H     H_    0.588562 0.185076 0.194454 0.128785
C222  C     C_3   0.625012 0.221939 0.149841 -0.806916
H225  H     H_    0.630821 0.165641 0.140494 0.261621
H226  H     H_    0.570560 0.243645 0.143149 0.188151
H227  H     H_    0.668019 0.257315 0.139549 0.256610
O92   O     O_3   0.297086 0.807983 0.806746 -0.535933
C223  C     C_3   0.366700 0.780593 0.815283 0.147720
H228  H     H_    0.410534 0.815495 0.805355 0.127609
H229  H     H_    0.376251 0.723250 0.807479 0.079576
C224  C     C_3   0.373774 0.782957 0.850496 -0.815357
H230  H     H_    0.330483 0.748880 0.861357 0.259184
H231  H     H_    0.428048 0.761544 0.857599 0.193671
H232  H     H_    0.368330 0.840176 0.858844 0.260798
O93   O     O_3   0.809955 0.296194 0.806401 -0.532106
C225  C     C_3   0.776919 0.361715 0.816715 0.136937
H233  H     H_    0.717018 0.354927 0.819772 0.120073
H234  H     H_    0.786983 0.407410 0.800190 0.096731
C226  C     C_3   0.809352 0.382799 0.847997 -0.787898
H235  H     H_    0.869210 0.390956 0.845709 0.264892
H236  H     H_    0.784150 0.434394 0.856349 0.189773
H237  H     H_    0.798810 0.338969 0.865297 0.257342
O94   O     O_3   0.189947 0.703837 0.193522 -0.531426
C227  C     C_3   0.222789 0.638267 0.183142 0.146232
H238  H     H_    0.211993 0.592410 0.199497 0.096102
H239  H     H_    0.282835 0.644672 0.180383 0.118787
C228  C     C_3   0.190941 0.617869 0.151644 -0.801145
H240  H     H_    0.202347 0.661802 0.134493 0.256651
H241  H     H_    0.215923 0.566178 0.143276 0.184836
H242  H     H_    0.130916 0.610191 0.153584 0.269015
O95   O     O_3   0.296242 0.190071 0.806404 -0.532114
C229  C     C_3   0.361770 0.223111 0.816704 0.136903
H243  H     H_    0.354984 0.283013 0.819755 0.120078
H244  H     H_    0.407453 0.213040 0.800175 0.096733
C230  C     C_3   0.382878 0.190691 0.847988 -0.787898
H245  H     H_    0.391040 0.130833 0.845706 0.264863
H246  H     H_    0.434476 0.215900 0.856331 0.189759
H247  H     H_    0.339059 0.201235 0.865292 0.257365
O96   O     O_3   0.703803 0.810039 0.193520 -0.531430
C231  C     C_3   0.638227 0.777197 0.183148 0.146222
H248  H     H_    0.592379 0.788000 0.199506 0.096104
H249  H     H_    0.644630 0.717150 0.180395 0.118785
C232  C     C_3   0.617816 0.809037 0.151648 -0.801152
H250  H     H_    0.661741 0.797624 0.134495 0.256659
H251  H     H_    0.566121 0.784055 0.143288 0.184823
H252  H     H_    0.610141 0.869063 0.153583 0.269013
O97   O     O_3   0.190035 0.703778 0.806401 -0.532100
C233  C     C_3   0.223069 0.638252 0.816712 0.136933
H253  H     H_    0.282972 0.645032 0.819761 0.120045
H254  H     H_    0.212993 0.592561 0.800190 0.096744
C234  C     C_3   0.190648 0.617165 0.848000 -0.787883
H255  H     H_    0.130789 0.609013 0.845720 0.264886
H256  H     H_    0.215849 0.565568 0.856350 0.189775
H257  H     H_    0.201200 0.660992 0.865296 0.257337
O98   O     O_3   0.810066 0.296188 0.193522 -0.531421
C235  C     C_3   0.777228 0.361763 0.183143 0.146245
H258  H     H_    0.788032 0.407615 0.199496 0.096111
H259  H     H_    0.717180 0.355364 0.180390 0.118762
C236  C     C_3   0.809071 0.382163 0.151641 -0.801148
H260  H     H_    0.797657 0.338234 0.134492 0.256643
H261  H     H_    0.784093 0.433858 0.143275 0.184837
H262  H     H_    0.869097 0.389834 0.153575 0.269016
O99   O     O_3   0.703742 0.809914 0.806404 -0.532111
C237  C     C_3   0.638213 0.776870 0.816706 0.136890
H263  H     H_    0.645003 0.716969 0.819762 0.120092
H264  H     H_    0.592536 0.786935 0.800175 0.096726
C238  C     C_3   0.617090 0.809291 0.847987 -0.787899
H265  H     H_    0.608925 0.869149 0.845701 0.264862
H266  H     H_    0.565490 0.784080 0.856331 0.189756
H267  H     H_    0.660903 0.798752 0.865292 0.257370
O100  O     O_3   0.296212 0.189975 0.193520 -0.531426
C239  C     C_3   0.361789 0.222822 0.183147 0.146217
H268  H     H_    0.407633 0.212023 0.199505 0.096097
H269  H     H_    0.355382 0.282868 0.180389 0.118794
C240  C     C_3   0.382213 0.190983 0.151648 -0.801163
H270  H     H_    0.338292 0.202393 0.134494 0.256664
H271  H     H_    0.433909 0.215969 0.143287 0.184824
H272  H     H_    0.389892 0.130958 0.153586 0.269010

loop_
_geom_bond_atom_site_label_1
_geom_bond_atom_site_label_2
_ccdc_geom_bond_type
C1    C25   A    
C149  H44   S    
O67   C173  S    
C166  H86   S    
C190  H145  S    
C215  C216  S    
C222  H226  S    
C10   H10   S    
C168  H90   S    
C110  C135  A    
O77   C193  S    
C218  H217  S    
C223  C224  S    
O46   Zn8   S    
O74   C187  S    
C14   H14   S    
O92   C223  S    
C169  H93   S    
C82   O22   A    
O31   Zn13  S    
O93   C225  S    
C219  H218  S    
C199  H169  S    
O9    Zn12  S    
C21   C33   A    
O20   Zn5   S    
C22   C38   A    
C220  H222  S    
C96   O38   A    
C237  C238  S    
C230  H245  S    
C101  O73   S    
O13   Zn8   S    
C77   O17   A    
C239  H268  S    
C204  H181  S    
C178  H117  S    
C147  H39   S    
O47   Zn5   S    
C187  C188  S    
C4    C28   A    
C161  H73   S    
C173  H103  S    
C89   O29   A    
C196  H161  S    
O35   Zn9   S    
C99   C138  A    
C229  H243  S    
C86   O26   A    
C97   C140  A    
C5    C29   A    
C155  C156  S    
O5    Zn16  S    
C180  H120  S    
C176  H112  S    
C58   C61   A    
C19   C31   A    
C79   O15   A    
O53   C145  S    
C187  H139  S    
O40   Zn5   S    
C80   O16   A    
C64   O68   S    
O38   Zn3   S    
O2    Zn11  S    
C172  H101  S    
C207  H189  S    
O16   Zn1   S    
C80   O20   A    
C174  H107  S    
C161  H74   S    
C50   C53   A    
C36   H28   S    
C116  C121  A    
C233  H253  S    
C226  H237  S    
C181  H124  S    
C20   C28   A    
C235  C236  S    
C105  O77   S    
O81   C201  S    
C82   O52   A    
O94   C227  S    
C169  C170  S    
C154  H57   S    
C51   C56   A    
C91   O41   A    
O95   C229  S    
C192  H150  S    
C227  H238  S    
C89   O43   A    
C73   O5    A    
C56   O60   S    
C192  H152  S    
C229  C230  S    
C2    C26   A    
C231  H248  S    
C170  H97   S    
C235  H259  S    
C15   C39   A    
C16   C40   A    
C1    C41   A    
C6    C30   A    
C31   H23   S    
C109  O81   S    
C32   H24   S    
O71   C181  S    
C198  H167  S    
C185  H134  S    
O90   C219  S    
O43   Zn2   S    
O3    Zn3   S    
C168  H92   S    
C40   H32   S    
O2    Zn15  S    
C182  H125  S    
C223  H228  S    
C195  H159  S    
C163  C164  S    
C128  O100  S    
C201  H173  S    
C122  C137  A    
C233  C234  S    
C90   C140  S    
C213  H203  S    
C238  H265  S    
C126  C141  A    
C119  C136  A    
C211  C212  S    
C120  C135  A    
C17   C25   A    
C57   O61   S    
C202  H175  S    
C94   C144  S    
C50   O54   S    
O73   C185  S    
C13   C45   A    
C167  C168  S    
C157  H63   S    
C113  C124  A    
O50   Zn4   S    
C123  C140  A    
C102  O74   S    
C11   C35   A    
C233  H254  S    
O78   C195  S    
C117  C128  A    
C191  H149  S    
C60   O64   S    
C194  H156  S    
C100  C137  A    
O10   Zn11  S    
C119  C126  A    
C17   C29   A    
O4    Zn8   S    
C164  H80   S    
C6    C42   A    
O63   C165  S    
C107  O79   S    
C217  H213  S    
O14   Zn7   S    
O17   Zn4   S    
C208  H191  S    
C234  H255  S    
O100  C239  S    
O23   Zn14  S    
C180  H121  S    
C4    H4    S    
C43   C73   S    
C155  H59   S    
C145  H34   S    
C3    H3    S    
O98   C235  S    
C21   C66   S    
C16   H16   S    
C124  C139  A    
C1    H1    S    
C57   C66   A    
O6    Zn15  S    
C152  H52   S    
C213  C214  S    
C184  H130  S    
C5    H5    S    
O76   C191  S    
C101  C112  A    
C146  H35   S    
O59   C157  S    
O44   Zn1   S    
C173  C174  S    
C103  C110  A    
C87   O45   A    
C8    H8    S    
O42   Zn7   S    
O2    Zn2   S    
O3    Zn10  S    
C96   C138  S    
O54   C147  S    
C231  H249  S    
C81   C131  S    
C116  O88   S    
C151  H49   S    
C79   O19   A    
C59   O63   S    
C205  C206  S    
C148  H40   S    
C114  O86   S    
C177  H113  S    
C211  H199  S    
C24   C67   S    
C27   H19   S    
C175  H108  S    
C60   C67   A    
C25   H17   S    
C108  O80   S    
C160  H71   S    
C217  C218  S    
O19   Zn6   S    
C197  H163  S    
C7    C43   A    
C90   O44   A    
C195  C196  S    
C11   H11   S    
C206  H185  S    
C18   C69   S    
C9    H9    S    
C90   O30   A    
O57   C153  S    
C158  H66   S    
C171  H98   S    
C12   H12   S    
O11   Zn14  S    
C13   H13   S    
C188  H141  S    
C204  H180  S    
C115  C132  A    
C22   C34   A    
C238  H267  S    
C159  H69   S    
C210  H196  S    
C113  C130  A    
C44   C74   S    
C221  C222  S    
C39   H31   S    
C112  O84   S    
O2    Zn6   S    
C167  H88   S    
C147  C148  S    
C224  H231  S    
C232  H251  S    
C212  H201  S    
C177  C178  S    
C173  H104  S    
C22   C65   S    
O83   C205  S    
C150  H46   S    
C119  O91   S    
C58   C65   A    
C63   O67   S    
C164  H82   S    
C197  C198  S    
C156  H60   S    
C178  H115  S    
C20   C71   S    
C88   O28   A    
C186  H137  S    
C237  H264  S    
C214  H206  S    
C175  C176  S    
C165  H83   S    
C114  C123  A    
O51   Zn1   S    
C94   O34   A    
C222  H225  S    
C205  H183  S    
C189  H143  S    
C215  H209  S    
C118  C127  A    
C236  H262  S    
C99   O71   S    
C20   C32   A    
C198  H165  S    
C225  H233  S    
C146  H37   S    
C227  C228  S    
C150  H47   S    
C104  C141  A    
O18   Zn3   S    
O33   Zn11  S    
C201  C202  S    
C76   O12   A    
C73   O9    A    
C111  C134  A    
C149  H43   S    
C74   O6    A    
C202  H176  S    
C42   C76   S    
C98   C139  A    
C148  H42   S    
C95   O35   A    
C87   C129  S    
C58   O62   S    
C3    C27   A    
C186  H135  S    
O72   C183  S    
C46   C80   S    
C199  C200  S    
C2    C42   A    
C152  H51   S    
C183  H129  S    
C203  H178  S    
C239  H269  S    
C178  H116  S    
C55   O59   S    
C189  C190  S    
C224  H230  S    
C153  H53   S    
C165  H84   S    
C240  H271  S    
O89   C217  S    
C202  H177  S    
C209  C210  S    
O36   Zn10  S    
C208  H190  S    
C176  H111  S    
C145  C146  S    
C9    C45   A    
C179  H118  S    
C96   O36   A    
C175  H109  S    
C35   H27   S    
C11   C47   A    
C18   C26   A    
C12   C48   A    
C33   H25   S    
C199  H168  S    
C149  C150  S    
O52   Zn2   S    
C172  H100  S    
C102  C111  A    
C14   C46   A    
C163  H78   S    
C53   O57   S    
C174  H106  S    
C84   C134  S    
O75   C189  S    
O25   Zn16  S    
C61   O65   S    
O27   Zn10  S    
O64   C167  S    
O32   Zn14  S    
O7    Zn10  S    
C81   O21   A    
O86   C211  S    
C101  C144  A    
C169  H94   S    
C226  H236  S    
C117  C134  A    
C120  O92   S    
C216  H212  S    
C78   O18   A    
C95   C137  S    
C29   H21   S    
C99   C106  A    
O48   Zn6   S    
C193  H153  S    
C227  H239  S    
C63   C68   A    
C156  H62   S    
C228  H241  S    
C153  C154  S    
C15   C47   A    
C124  O96   S    
C170  H96   S    
O85   C209  S    
C219  C220  S    
C52   C55   A    
C85   O25   A    
O87   C213  S    
C83   O49   A    
C84   O50   A    
O84   C207  S    
O45   Zn7   S    
C9    C33   A    
C190  H146  S    
C151  C152  S    
C206  H187  S    
O39   Zn6   S    
C107  C130  A    
C53   C70   A    
C87   O27   A    
C168  H91   S    
C236  H260  S    
C105  C132  A    
C209  H194  S    
O66   C171  S    
C106  C131  A    
C223  H229  S    
C127  O99   S    
C157  C158  S    
C121  O93   S    
C75   O11   A    
C145  H33   S    
O28   Zn9   S    
C213  H204  S    
C4    C44   A    
C179  C180  S    
O80   C199  S    
C110  O82   S    
C26   H18   S    
O29   Zn15  S    
C98   C107  A    
C54   O58   S    
C193  C194  S    
C166  H85   S    
C15   H15   S    
O91   C221  S    
C220  H221  S    
C41   C75   S    
C238  H266  S    
C91   O31   A    
C52   O56   S    
C207  C208  S    
C224  H232  S    
C100  C105  A    
C45   C79   S    
C24   C36   A    
C92   O42   A    
C85   O47   A    
C191  C192  S    
C122  O94   S    
C234  H257  S    
C7    H7    S    
C23   C35   A    
C49   C70   A    
C187  H138  S    
C114  C129  A    
C217  H214  S    
C154  H56   S    
C51   C72   A    
C82   C132  S    
O8    Zn9   S    
C172  H102  S    
C240  H270  S    
C209  H193  S    
C24   C40   A    
C118  O90   S    
C117  O89   S    
C115  O87   S    
C120  C125  A    
O60   C159  S    
C194  H157  S    
O68   C175  S    
C181  H123  S    
C106  O78   S    
C212  H202  S    
C147  H38   S    
C77   O13   A    
C52   C71   A    
C218  H216  S    
C216  H211  S    
C221  H224  S    
C231  C232  S    
C162  H75   S    
C221  H223  S    
C54   C69   A    
O26   Zn15  S    
C167  H89   S    
C127  C144  A    
C235  H258  S    
C38   H30   S    
C128  C143  A    
C177  H114  S    
C162  H76   S    
C6    H6    S    
C21   C37   A    
C160  H70   S    
O55   C149  S    
C151  H48   S    
C156  H61   S    
C197  H164  S    
O24   Zn13  S    
C182  H127  S    
C74   O10   A    
C161  C162  S    
C219  H219  S    
C195  H158  S    
C93   O39   A    
C158  H65   S    
C78   O14   A    
C88   C130  S    
C112  C133  A    
C75   O7    A    
C16   C48   A    
C181  C182  S    
C188  H140  S    
C194  H155  S    
C232  H250  S    
C57   C62   A    
C206  H186  S    
O61   C161  S    
C84   O24   A    
C182  H126  S    
C159  C160  S    
C3    C43   A    
C210  H195  S    
O58   C155  S    
O62   C163  S    
C60   C63   A    
C171  H99   S    
C230  H247  S    
C50   C69   A    
O70   C179  S    
C103  O75   S    
O1    Zn1   S    
C104  C109  A    
C111  O83   S    
O21   Zn12  S    
C201  H174  S    
C14   C38   A    
C171  C172  S    
C48   C78   S    
C49   C54   A    
O56   C151  S    
C212  H200  S    
C198  H166  S    
C191  H148  S    
C51   O55   S    
C200  H171  S    
C97   C108  A    
C61   C66   A    
C164  H81   S    
C185  C186  S    
C220  H220  S    
C10   C46   A    
C163  H79   S    
O4    Zn13  S    
C18   C30   A    
C188  H142  S    
C234  H256  S    
C19   C27   A    
C214  H205  S    
C13   C37   A    
C55   C72   A    
C93   C143  S    
C180  H122  S    
C118  C133  A    
C196  H162  S    
C17   C70   S    
C115  C122  A    
C109  C136  A    
C189  H144  S    
C183  C184  S    
C19   C72   S    
O79   C197  S    
C86   O48   A    
C165  C166  S    
C113  O85   S    
O41   Zn8   S    
C184  H131  S    
C193  H154  S    
C97   O69   S    
C225  H234  S    
C146  H36   S    
C7    C31   A    
C8    C32   A    
C64   C67   A    
C30   H22   S    
O82   C203  S    
O3    Zn7   S    
C62   O66   S    
C155  H58   S    
C162  H77   S    
O1    Zn5   S    
C158  H67   S    
C203  C204  S    
C89   C139  S    
C154  H55   S    
C204  H182  S    
O96   C231  S    
C148  H41   S    
O34   Zn12  S    
C23   C68   S    
C121  C138  A    
C205  H184  S    
O97   C233  S    
C211  H198  S    
C92   O32   A    
C59   C68   A    
C125  C142  A    
C160  H72   S    
C218  H215  S    
C12   C36   A    
C216  H210  S    
C200  H170  S    
O30   Zn16  S    
C10   C34   A    
C203  H179  S    
C184  H132  S    
C239  C240  S    
C108  C129  A    
C104  O76   S    
O37   Zn4   S    
C85   C135  S    
O1    Zn12  S    
C228  H242  S    
C86   C136  S    
C196  H160  S    
C100  O72   S    
C93   O33   A    
C95   O37   A    
C166  H87   S    
C153  H54   S    
C186  H136  S    
C102  C143  A    
C47   C77   S    
C83   O23   A    
C103  C142  A    
C232  H252  S    
C92   C142  S    
C28   H20   S    
C176  H110  S    
C150  H45   S    
C185  H133  S    
C5    C41   A    
C207  H188  S    
O4    Zn4   S    
C210  H197  S    
C179  H119  S    
C81   O51   A    
C62   C65   A    
C183  H128  S    
C98   O70   S    
C8    C44   A    
C222  H227  S    
C34   H26   S    
C229  H244  S    
C159  H68   S    
C2    H2    S    
C192  H151  S    
C174  H105  S    
C94   O40   A    
C200  H172  S    
O99   C237  S    
C208  H192  S    
C240  H272  S    
C236  H261  S    
C126  O98   S    
O49   Zn3   S    
C76   O8    A    
O69   C177  S    
C157  H64   S    
C226  H235  S    
C230  H246  S    
C116  C131  A    
O4    Zn9   S    
O15   Zn2   S    
C23   C39   A    
C190  H147  S    
C123  O95   S    
C88   O46   A    
C237  H263  S    
C214  H207  S    
C49   O53   S    
C83   C133  S    
O3    Zn14  S    
O22   Zn11  S    
C37   H29   S    
C59   C64   A    
O1    Zn16  S    
C228  H240  S    
O65   C169  S    
C215  H208  S    
O12   Zn13  S    
C91   C141  S    
C170  H95   S    
O88   C215  S    
C125  O97   S    
C225  C226  S    
C56   C71   A    
C152  H50   S    
