data_mof_unit_10100.cif
_audit_creation_date              2012-12-10T16:45:24-0500
_audit_creation_method            fapswitch 2.2
_symmetry_space_group_name_H-M    P1
_symmetry_Int_Tables_number       1
_space_group_crystal_system       triclinic
_cell_length_a                    7.431979
_cell_length_b                    8.689764
_cell_length_c                    15.796943
_cell_angle_alpha                 94.275803
_cell_angle_beta                  75.181866
_cell_angle_gamma                 103.163638
_cell_volume                      960.211247384

loop_
_atom_site_label
_atom_site_type_symbol
_atom_type_description
_atom_site_fract_x
_atom_site_fract_y
_atom_site_fract_z
_atom_type_partial_charge
Br1   Br    Br    0.241975 0.194702 0.155238 -0.545790
Br2   Br    Br    0.757986 0.805317 0.844776 -0.545787
C1    C     C_R   0.545107 0.800190 0.502615 0.893750
C2    C     C_R   0.615810 0.511488 0.333599 0.807567
C3    C     C_R   0.314311 0.474700 0.761963 -0.067326
C4    C     C_R   0.685689 0.525301 0.238037 -0.067330
C5    C     C_R   0.067731 0.376999 0.890203 -0.148089
C6    C     C_R   0.932265 0.623009 0.109798 -0.148091
C7    C     C_R   0.122031 0.414514 0.801655 -0.159503
C8    C     C_R   0.877967 0.585493 0.198345 -0.159497
C9    C     C_R   0.446947 0.510560 0.813466 -0.157410
C10   C     C_R   0.553053 0.489441 0.186535 -0.157413
C11   C     C_R   0.391751 0.491099 0.904315 0.098720
C12   C     C_R   0.454893 0.199810 0.497385 0.893753
C13   C     C_R   0.608246 0.508901 0.095685 0.098715
C14   C     C_R   0.203285 0.408423 0.940600 0.078076
C15   C     C_R   0.796710 0.591581 0.059401 0.078074
C16   C     C_R   0.524274 0.534227 0.957712 -0.038808
C17   C     C_R   0.475719 0.465773 0.042290 -0.038807
C18   C     C_R   0.296759 0.357089 0.069586 0.233676
C19   C     C_R   0.703229 0.642917 0.930417 0.233670
C20   C     C_R   0.158170 0.342493 0.022885 -0.215858
C21   C     C_R   0.841820 0.657515 0.977117 -0.215858
C22   C     C_2   0.570549 0.968081 0.503877 -0.346684
C23   C     C_2   0.429451 0.031919 0.496123 -0.346686
C24   C     C_R   0.384190 0.488512 0.666401 0.807565
Cu1   Cu    Cu3+1 0.322120 0.483240 0.490330 0.977828
Cu2   Cu    Cu3+1 0.677880 0.516760 0.509670 0.977827
H1    H     H_    0.019793 0.265287 0.046977 0.192674
H2    H     H_    0.293471 0.960508 0.488811 0.183294
H3    H     H_    0.004042 0.615230 0.568955 0.236967
H4    H     H_    0.995958 0.384770 0.431045 0.236970
H5    H     H_    0.980192 0.734731 0.953027 0.192674
H6    H     H_    0.403759 0.458837 0.218968 0.191690
H7    H     H_    0.596245 0.541172 0.781034 0.191684
H8    H     H_    0.983124 0.614457 0.236774 0.166907
H9    H     H_    0.016873 0.385556 0.763226 0.166905
H10   H     H_    0.921649 0.317633 0.918418 0.163272
H11   H     H_    0.078344 0.682383 0.081582 0.163274
H12   H     H_    0.706529 0.039492 0.511189 0.183294
N1    N     N_2   0.945180 0.542040 0.524240 -0.216371
N2    N     N_2   0.054820 0.457960 0.475760 -0.216369
O1    O     O_R   0.384450 0.714270 0.493720 -0.585083
O2    O     O_R   0.615550 0.285730 0.506280 -0.585082
O3    O     O_R   0.684880 0.742590 0.510050 -0.576186
O4    O     O_R   0.315120 0.257410 0.489950 -0.576185
O5    O     O_R   0.265540 0.477900 0.617090 -0.589481
O6    O     O_R   0.734460 0.522100 0.382910 -0.589479
O7    O     O_R   0.565970 0.506210 0.633420 -0.577825
O8    O     O_R   0.434030 0.493790 0.366580 -0.577824

loop_
_geom_bond_atom_site_label_1
_geom_bond_atom_site_label_2
_ccdc_geom_bond_type
C4    C8    A    
C14   C20   A    
Cu1   O8    S    
C3    C7    A    
C6    H11   S    
C16   C19   A    
N1    N2    D    
C17   C18   A    
C10   C13   A    
Br2   C19   S    
C7    H9    S    
C1    O3    A    
C12   O4    A    
C13   C17   A    
C9    C11   A    
Cu1   N2    S    
C1    O1    A    
C1    C22   S    
C15   C21   A    
C11   C16   A    
C24   O5    A    
Cu1   O4    S    
C6    C8    A    
C5    C14   A    
C20   H1    S    
C5    H10   S    
C18   C20   A    
C3    C9    A    
C5    C7    A    
C19   C21   A    
C12   C23   S    
C4    C10   A    
Cu2   O3    S    
C11   C14   A    
C2    C4    S    
C10   H6    S    
C3    C24   S    
Cu1   O1    S    
Cu2   N1    S    
Cu1   Cu2   S    
C22   C23   D    
C12   O2    A    
C16   C17   A    
C2    O6    A    
C24   O7    A    
Cu1   O5    S    
C23   H2    S    
C13   C15   A    
H4    N2    S    
Cu2   O6    S    
Br1   C18   S    
C8    H8    S    
H3    N1    S    
C22   H12   S    
C9    H7    S    
Cu2   O2    S    
C6    C15   A    
C2    O8    A    
C21   H5    S    
Cu2   O7    S    
