data_mof_unit_48673.cif
_audit_creation_date              2012-12-10T18:28:23-0500
_audit_creation_method            fapswitch 2.2
_symmetry_space_group_name_H-M    P1
_symmetry_Int_Tables_number       1
_space_group_crystal_system       triclinic
_cell_length_a                    23.411874
_cell_length_b                    20.242497
_cell_length_c                    14.958625
_cell_angle_alpha                 89.999933
_cell_angle_beta                  99.025913
_cell_angle_gamma                 89.999988
_cell_volume                      7001.33258934

loop_
_atom_site_label
_atom_site_type_symbol
_atom_type_description
_atom_site_fract_x
_atom_site_fract_y
_atom_site_fract_z
_atom_type_partial_charge
C1    C     C_R   0.574356 0.088660 0.552845 0.864464
C2    C     C_R   0.423710 0.913770 0.445655 0.869085
C3    C     C_R   0.425643 0.088660 0.447155 0.864464
C4    C     C_R   0.576290 0.913770 0.554345 0.869085
C5    C     C_R   0.074356 0.588660 0.552845 0.864463
C6    C     C_R   0.923710 0.413770 0.445655 0.869086
C7    C     C_R   0.925644 0.588660 0.447155 0.864464
C8    C     C_R   0.076290 0.413770 0.554345 0.869086
C9    C     C_R   0.270022 0.256191 0.686650 -0.250183
C10   C     C_R   0.794994 0.821502 0.367298 -0.233391
C11   C     C_R   0.729971 0.256201 0.313348 -0.250186
C12   C     C_R   0.205005 0.821502 0.632701 -0.233390
C13   C     C_R   0.770032 0.756206 0.686652 -0.250190
C14   C     C_R   0.295003 0.321509 0.367312 -0.233392
C15   C     C_R   0.229968 0.756206 0.313347 -0.250188
C16   C     C_R   0.705003 0.321504 0.632697 -0.233391
C17   C     C_R   0.629073 0.006820 0.204156 -0.097057
C18   C     C_R   0.370927 0.006816 0.795844 -0.097054
C19   C     C_R   0.129073 0.506819 0.204156 -0.097057
C20   C     C_R   0.870927 0.506821 0.795843 -0.097058
C21   C     C_R   0.606885 0.002986 0.284879 -0.045176
C22   C     C_R   0.393115 0.002984 0.715121 -0.045176
C23   C     C_R   0.106885 0.502987 0.284879 -0.045173
C24   C     C_R   0.893115 0.502988 0.715121 -0.045175
C25   C     C_R   0.510386 0.000918 0.207910 -0.076760
C26   C     C_R   0.489614 0.000919 0.792090 -0.076759
C27   C     C_R   0.010386 0.500916 0.207910 -0.076760
C28   C     C_R   0.989614 0.500916 0.792090 -0.076760
C29   C     C_R   0.529010 0.007066 0.123671 -0.014783
C30   C     C_R   0.470990 0.007066 0.876329 -0.014782
C31   C     C_R   0.029010 0.507063 0.123671 -0.014782
C32   C     C_R   0.970990 0.507063 0.876329 -0.014782
C33   C     C_R   0.589703 0.009225 0.122117 0.121582
C34   C     C_R   0.410297 0.009224 0.877884 0.121582
C35   C     C_R   0.089703 0.509222 0.122116 0.121582
C36   C     C_R   0.910297 0.509223 0.877883 0.121582
C37   C     C_R   0.489303 0.010576 0.041810 0.095097
C38   C     C_R   0.510697 0.010575 0.958190 0.095098
C39   C     C_R   0.989303 0.510571 0.041810 0.095097
C40   C     C_R   0.010696 0.510571 0.958190 0.095097
C41   C     C_R   0.571000 0.015449 0.959008 -0.247389
C42   C     C_R   0.429000 0.015451 0.040992 -0.247387
C43   C     C_R   0.071000 0.515445 0.959008 -0.247388
C44   C     C_R   0.929000 0.515445 0.040992 -0.247389
C45   C     C_R   0.609449 0.015531 0.039210 -0.216722
C46   C     C_R   0.390551 0.015531 0.960790 -0.216726
C47   C     C_R   0.109449 0.515527 0.039210 -0.216721
C48   C     C_R   0.890551 0.515527 0.960790 -0.216720
C49   C     C_R   0.625428 0.872094 0.590635 -0.059818
C50   C     C_R   0.389805 0.146785 0.421452 -0.058532
C51   C     C_R   0.374572 0.872094 0.409365 -0.059817
C52   C     C_R   0.610194 0.146786 0.578548 -0.058531
C53   C     C_R   0.125427 0.372093 0.590635 -0.059818
C54   C     C_R   0.889806 0.646786 0.421452 -0.058531
C55   C     C_R   0.874572 0.372094 0.409365 -0.059818
C56   C     C_R   0.110194 0.646786 0.578548 -0.058530
C57   C     C_R   0.682212 0.811082 0.712456 -0.211604
C58   C     C_R   0.359409 0.238662 0.321707 -0.205679
C59   C     C_R   0.317788 0.811082 0.287544 -0.211602
C60   C     C_R   0.640596 0.238657 0.678300 -0.205678
C61   C     C_R   0.182204 0.311070 0.712453 -0.211600
C62   C     C_R   0.859401 0.738654 0.321697 -0.205679
C63   C     C_R   0.817790 0.311078 0.287544 -0.211601
C64   C     C_R   0.140598 0.738655 0.678303 -0.205679
C65   C     C_R   0.633454 0.848606 0.679886 -0.197832
C66   C     C_R   0.390561 0.180115 0.339480 -0.192369
C67   C     C_R   0.366546 0.848606 0.320114 -0.197832
C68   C     C_R   0.609443 0.180111 0.660524 -0.192368
C69   C     C_R   0.133448 0.348598 0.679882 -0.197832
C70   C     C_R   0.890555 0.680109 0.339473 -0.192369
C71   C     C_R   0.866548 0.348604 0.320115 -0.197832
C72   C     C_R   0.109444 0.680109 0.660526 -0.192368
C73   C     C_R   0.667079 0.859649 0.535668 -0.266530
C74   C     C_R   0.358511 0.172659 0.485204 -0.259945
C75   C     C_R   0.332920 0.859650 0.464331 -0.266531
C76   C     C_R   0.641486 0.172662 0.514793 -0.259946
C77   C     C_R   0.167081 0.359652 0.535673 -0.266530
C78   C     C_R   0.858516 0.672664 0.485207 -0.259947
C79   C     C_R   0.832920 0.359650 0.464330 -0.266529
C80   C     C_R   0.141484 0.672664 0.514792 -0.259947
C81   C     C_R   0.717073 0.824093 0.567620 0.093989
C82   C     C_R   0.329767 0.232888 0.471112 0.093395
C83   C     C_R   0.282927 0.824093 0.432379 0.093988
C84   C     C_R   0.670232 0.232891 0.528890 0.093393
C85   C     C_R   0.217072 0.324090 0.567624 0.093989
C86   C     C_R   0.829768 0.732891 0.471109 0.093393
C87   C     C_R   0.782927 0.324093 0.432378 0.093988
C88   C     C_R   0.170232 0.732891 0.528891 0.093394
C89   C     C_R   0.723434 0.797440 0.656288 0.181280
C90   C     C_R   0.328347 0.264808 0.386514 0.171263
C91   C     C_R   0.276566 0.797440 0.343711 0.181280
C92   C     C_R   0.671656 0.264806 0.613491 0.171264
C93   C     C_R   0.223428 0.297430 0.656288 0.181278
C94   C     C_R   0.828342 0.764805 0.386506 0.171263
C95   C     C_R   0.776567 0.297437 0.343711 0.181279
C96   C     C_R   0.171658 0.764805 0.613494 0.171262
C97   C     C_R   0.758354 0.809924 0.510657 0.064695
C98   C     C_R   0.299038 0.259423 0.536923 0.074123
C99   C     C_R   0.241645 0.809925 0.489342 0.064695
C100  C     C_R   0.700960 0.259427 0.463078 0.074124
C101  C     C_R   0.258355 0.309923 0.510663 0.064696
C102  C     C_R   0.799041 0.759429 0.536921 0.074125
C103  C     C_R   0.741645 0.309924 0.489341 0.064695
C104  C     C_R   0.200959 0.759429 0.463079 0.074124
C105  C     C_R   0.306856 0.236409 0.627434 -0.240431
C106  C     C_R   0.759516 0.843204 0.427600 -0.224131
C107  C     C_R   0.693138 0.236419 0.372565 -0.240430
C108  C     C_R   0.240483 0.843205 0.572399 -0.224130
C109  C     C_R   0.806865 0.736422 0.627435 -0.240430
C110  C     C_R   0.259523 0.343209 0.427612 -0.224131
C111  C     C_R   0.193135 0.736422 0.372564 -0.240430
C112  C     C_R   0.740481 0.343206 0.572396 -0.224130
H1    H     H_    0.590251 0.021143 0.898678 0.139426
H2    H     H_    0.409749 0.021146 0.101322 0.139427
H3    H     H_    0.090251 0.521139 0.898678 0.139427
H4    H     H_    0.909749 0.521138 0.101322 0.139426
H5    H     H_    0.355647 0.144154 0.545214 0.157240
H6    H     H_    0.658828 0.875981 0.466298 0.161203
H7    H     H_    0.644345 0.144162 0.454780 0.157242
H8    H     H_    0.341172 0.875982 0.533702 0.161202
H9    H     H_    0.855658 0.644165 0.545223 0.157244
H10   H     H_    0.158834 0.375991 0.466305 0.161202
H11   H     H_    0.144342 0.644165 0.454777 0.157243
H12   H     H_    0.841170 0.375984 0.533700 0.161202
H13   H     H_    0.415180 0.161163 0.289527 0.159156
H14   H     H_    0.602007 0.858721 0.724044 0.159041
H15   H     H_    0.584826 0.161157 0.710479 0.159155
H16   H     H_    0.397994 0.858721 0.275956 0.159041
H17   H     H_    0.915171 0.661154 0.289519 0.159155
H18   H     H_    0.101998 0.358710 0.724038 0.159042
H19   H     H_    0.084829 0.661154 0.710481 0.159154
H20   H     H_    0.897996 0.358718 0.275957 0.159041
H21   H     H_    0.534242 0.996603 0.783767 0.130648
H22   H     H_    0.465758 0.996600 0.216232 0.130648
H23   H     H_    0.034242 0.496596 0.783768 0.130648
H24   H     H_    0.965758 0.496597 0.216232 0.130648
N1    N     N_R   0.549130 0.000000 0.284090 -0.105731
N2    N     N_R   0.450870 0.000000 0.715910 -0.105730
N3    N     N_R   0.049130 0.500000 0.284090 -0.105731
N4    N     N_R   0.950870 0.500000 0.715910 -0.105731
O1    O     O_R   0.541320 0.066090 0.608930 -0.615633
O2    O     O_R   0.458680 0.933910 0.391070 -0.614457
O3    O     O_R   0.458680 0.066090 0.391070 -0.615633
O4    O     O_R   0.541320 0.933910 0.608930 -0.614457
O5    O     O_R   0.041320 0.566090 0.608930 -0.615632
O6    O     O_R   0.958680 0.433910 0.391070 -0.614457
O7    O     O_R   0.958680 0.566090 0.391070 -0.615633
O8    O     O_R   0.041320 0.433910 0.608930 -0.614458
O9    O     O_R   0.572880 0.066110 0.470280 -0.621192
O10   O     O_R   0.427120 0.933890 0.529720 -0.617439
O11   O     O_R   0.427120 0.066110 0.529720 -0.621190
O12   O     O_R   0.572880 0.933890 0.470280 -0.617439
O13   O     O_R   0.072880 0.566110 0.470280 -0.621193
O14   O     O_R   0.927120 0.433890 0.529720 -0.617437
O15   O     O_R   0.927120 0.566110 0.529720 -0.621193
O16   O     O_R   0.072880 0.433890 0.470280 -0.617437
Zn1   Zn    Zn3+2 0.478910 0.000000 0.592580 0.935850
Zn2   Zn    Zn3+2 0.521090 0.000000 0.407420 0.935849
Zn3   Zn    Zn3+2 0.978910 0.500000 0.592580 0.935850
Zn4   Zn    Zn3+2 0.021090 0.500000 0.407420 0.935850
H25   H     H_    0.276497 0.236738 0.755016 0.147339
H26   H     H_    0.794423 0.847476 0.303866 0.154334
H27   H     H_    0.723493 0.236752 0.244980 0.147336
H28   H     H_    0.205576 0.847477 0.696133 0.154340
H29   H     H_    0.776511 0.736759 0.755021 0.147335
H30   H     H_    0.294437 0.347489 0.303885 0.154335
H31   H     H_    0.223489 0.736758 0.244978 0.147335
H32   H     H_    0.705572 0.347480 0.696128 0.154331
H33   H     H_    0.687203 0.791800 0.780829 0.136139
H34   H     H_    0.359351 0.263286 0.257360 0.133066
H35   H     H_    0.312798 0.791800 0.219171 0.136138
H36   H     H_    0.640657 0.263277 0.742651 0.133065
H37   H     H_    0.187190 0.291782 0.780822 0.136140
H38   H     H_    0.859338 0.763273 0.257345 0.133065
H39   H     H_    0.812801 0.291795 0.219173 0.136139
H40   H     H_    0.140661 0.763274 0.742654 0.133065
H41   H     H_    0.341901 0.203913 0.654510 0.146907
H42   H     H_    0.734192 0.886993 0.408448 0.152168
H43   H     H_    0.658092 0.203925 0.345488 0.146905
H44   H     H_    0.265807 0.886994 0.591551 0.152168
H45   H     H_    0.841912 0.703931 0.654512 0.146904
H46   H     H_    0.234201 0.387000 0.408464 0.152167
H47   H     H_    0.158088 0.703930 0.345487 0.146905
H48   H     H_    0.765805 0.386995 0.591547 0.152167
H49   H     H_    0.654990 0.020535 0.035231 0.161527
H50   H     H_    0.345010 0.020536 0.964769 0.161527
H51   H     H_    0.154990 0.520532 0.035231 0.161528
H52   H     H_    0.845010 0.520531 0.964769 0.161528
H53   H     H_    0.364418 0.002154 0.650863 0.138613
H54   H     H_    0.635582 0.002158 0.349138 0.138616
H55   H     H_    0.864418 0.502162 0.650862 0.138617
H56   H     H_    0.135582 0.502161 0.349138 0.138615
C113  C     C_R   0.692729 0.008658 0.208833 0.106843
C114  C     C_R   0.724844 0.060689 0.254097 -0.163214
C115  C     C_R   0.785050 0.061878 0.260552 -0.129298
C116  C     C_R   0.813597 0.010932 0.222489 -0.103509
C117  C     C_R   0.781977 0.958677 0.178066 -0.156715
C118  C     C_R   0.721753 0.957245 0.171624 -0.169869
H57   H     H_    0.703210 0.100296 0.284087 0.125518
H58   H     H_    0.809551 0.102250 0.295168 0.136335
H59   H     H_    0.860219 0.011846 0.227630 0.125534
H60   H     H_    0.804169 0.919066 0.149084 0.125677
H61   H     H_    0.697753 0.916146 0.137917 0.133850
C119  C     C_R   0.307271 0.008649 0.791168 0.106843
C120  C     C_R   0.275151 0.060672 0.745892 -0.163220
C121  C     C_R   0.214946 0.061855 0.739437 -0.129295
C122  C     C_R   0.186402 0.010911 0.777512 -0.103515
C123  C     C_R   0.218027 0.958664 0.821946 -0.156724
C124  C     C_R   0.278251 0.957238 0.828388 -0.169863
H62   H     H_    0.296781 0.100278 0.715894 0.125516
H63   H     H_    0.190440 0.102222 0.704812 0.136334
H64   H     H_    0.139780 0.011821 0.772370 0.125535
H65   H     H_    0.195838 0.919055 0.850937 0.125680
H66   H     H_    0.302254 0.916145 0.862104 0.133851
C125  C     C_R   0.192729 0.508659 0.208833 0.106841
C126  C     C_R   0.224843 0.560693 0.254093 -0.163214
C127  C     C_R   0.285048 0.561883 0.260548 -0.129298
C128  C     C_R   0.313597 0.510937 0.222488 -0.103513
C129  C     C_R   0.281978 0.458679 0.178069 -0.156718
C130  C     C_R   0.221754 0.457245 0.171627 -0.169863
H67   H     H_    0.203208 0.600301 0.284079 0.125519
H68   H     H_    0.309549 0.602258 0.295160 0.136335
H69   H     H_    0.360219 0.511852 0.227629 0.125534
H70   H     H_    0.304171 0.419068 0.149090 0.125678
H71   H     H_    0.197755 0.416145 0.137923 0.133851
C131  C     C_R   0.807271 0.508663 0.791166 0.106842
C132  C     C_R   0.775159 0.560699 0.745910 -0.163210
C133  C     C_R   0.714953 0.561892 0.739455 -0.129301
C134  C     C_R   0.686403 0.510945 0.777512 -0.103506
C135  C     C_R   0.718020 0.458684 0.821927 -0.156710
C136  C     C_R   0.778244 0.457248 0.828369 -0.169871
H72   H     H_    0.796795 0.600307 0.715926 0.125519
H73   H     H_    0.690454 0.602269 0.704845 0.136335
H74   H     H_    0.639781 0.511862 0.772371 0.125533
H75   H     H_    0.695826 0.419072 0.850904 0.125675
H76   H     H_    0.802242 0.416146 0.862070 0.133849

loop_
_geom_bond_atom_site_label_1
_geom_bond_atom_site_label_2
_ccdc_geom_bond_type
C2    O10   A    
C88   C96   A    
C123  H65   S    
O10   Zn1   S    
C29   C33   A    
C28   H23   S    
C33   C45   A    
C5    C56   S    
C17   C113  S    
C28   N4    A    
C21   N1    A    
C6    C55   S    
C35   C47   A    
C76   C84   A    
C79   C87   A    
C128  C129  A    
C128  H69   S    
C112  H48   S    
C120  C121  A    
C24   N4    A    
C99   C108  A    
C19   C125  S    
C30   C38   A    
C134  C135  A    
C98   C105  A    
C57   C89   A    
N1    Zn2   S    
C72   H19   S    
C111  H47   S    
C27   H24   S    
O11   Zn1   S    
C44   H4    S    
C23   N3    A    
C58   H34   S    
C51   C75   A    
C48   H52   S    
C50   C74   A    
N4    Zn3   S    
O5    Zn3   S    
C61   C93   A    
O6    Zn4   S    
C10   C94   A    
C9    C105  A    
C131  C136  A    
C62   H38   S    
C63   C95   A    
C134  H74   S    
C20   C131  S    
C108  H44   S    
C42   C46   A    
C37   C42   A    
C78   H9    S    
C126  H67   S    
C14   C90   A    
C13   C109  A    
C77   H10   S    
C86   C94   A    
C77   C85   A    
C59   C67   A    
C71   H20   S    
C85   C93   A    
C121  H63   S    
C42   H2    S    
C40   C43   A    
C20   C24   A    
C123  C124  A    
C56   C72   A    
C87   C95   A    
C119  C124  A    
C116  H59   S    
C1    O9    A    
C136  H76   S    
C34   C46   A    
C14   H30   S    
O9    Zn2   S    
C57   H33   S    
C97   C102  A    
C52   C68   A    
C43   H3    S    
C78   C86   A    
C32   C40   A    
C132  H72   S    
C129  H70   S    
C53   C69   A    
C10   H26   S    
C83   C99   A    
C82   C98   A    
C62   C70   A    
C15   H31   S    
C8    O8    A    
C17   C33   A    
O2    Zn2   S    
C59   H35   S    
O7    Zn4   S    
C32   C36   A    
C73   C81   A    
C23   H56   S    
C88   C104  A    
C3    C50   S    
C58   C66   A    
C36   C48   A    
C7    O7    A    
C60   C92   A    
C25   C29   A    
C4    O12   A    
O12   Zn2   S    
C76   H7    S    
C5    O5    A    
C30   C34   A    
O15   Zn3   S    
C122  C123  A    
C84   C100  A    
C15   C111  A    
O16   Zn4   S    
C61   H37   S    
C126  C127  A    
C64   C96   A    
C38   C41   A    
C57   C65   A    
C129  C130  A    
C12   C108  A    
C121  C122  A    
C69   H18   S    
C51   C67   A    
C52   C76   A    
C101  C110  A    
C27   C31   A    
C5    O13   A    
C100  C103  A    
C27   N3    A    
C25   N1    A    
C103  C112  A    
O8    Zn3   S    
C60   H36   S    
C113  C114  A    
C53   C77   A    
C125  C126  A    
C37   C38   A    
C12   H28   S    
C105  H41   S    
C55   C79   A    
C15   C91   A    
C13   H29   S    
C132  C133  A    
C54   C70   A    
C16   C112  A    
C28   C32   A    
C11   H27   S    
C3    O3    A    
C135  H75   S    
C59   C91   A    
C46   H50   S    
C22   H53   S    
C9    H25   S    
C25   H22   S    
C18   C34   A    
C68   H15   S    
C60   C68   A    
C133  H73   S    
C6    O14   A    
C49   C65   A    
C58   C90   A    
C87   C103  A    
C97   C106  A    
O1    Zn1   S    
C63   C71   A    
N3    Zn4   S    
C16   C92   A    
C62   C94   A    
C11   C107  A    
C122  H64   S    
C2    O2    A    
C49   C73   A    
C10   C106  A    
C64   H40   S    
C47   H51   S    
C86   C102  A    
C9    C93   A    
C39   C40   A    
C85   C101  A    
C19   C23   A    
O3    Zn2   S    
C115  H58   S    
C74   C82   A    
C11   C95   A    
C127  H68   S    
C14   C110  A    
C74   H5    S    
C117  C118  A    
C100  C107  A    
C73   H6    S    
C13   C89   A    
C18   C22   A    
C75   H8    S    
C41   H1    S    
C116  C117  A    
C26   N2    A    
C56   C80   A    
C8    C53   S    
C4    O4    A    
C104  C111  A    
C50   C66   A    
C63   H39   S    
C39   C44   A    
C98   C101  A    
C83   C91   A    
C79   H12   S    
C22   N2    A    
C45   H49   S    
C3    O11   A    
C124  H66   S    
C82   C90   A    
C66   H13   S    
C117  H60   S    
C4    C49   S    
C61   C69   A    
C65   H14   S    
O13   Zn4   S    
C127  C128  A    
C81   C89   A    
O14   Zn3   S    
C80   C88   A    
C26   H21   S    
C19   C35   A    
C125  C130  A    
C114  C115  A    
N2    Zn1   S    
C75   C83   A    
C21   H54   S    
C81   C97   A    
C120  H62   S    
C16   H32   S    
C6    O6    A    
C109  H45   S    
C31   C39   A    
C130  H71   S    
C99   C104  A    
C24   H55   S    
C31   C35   A    
C64   C72   A    
C135  C136  A    
C8    O16   A    
C1    C52   S    
C17   C21   A    
C80   H11   S    
C1    O1    A    
C2    C51   S    
C133  C134  A    
C115  C116  A    
C20   C36   A    
C114  H57   S    
C44   C48   A    
C107  H43   S    
C7    O15   A    
C119  C120  A    
C110  H46   S    
C131  C132  A    
C70   H17   S    
C29   C37   A    
C118  H61   S    
C41   C45   A    
C12   C96   A    
C102  C109  A    
C18   C119  S    
C84   C92   A    
C7    C54   S    
O4    Zn1   S    
C67   H16   S    
C43   C47   A    
C106  H42   S    
C55   C71   A    
C113  C118  A    
C54   C78   A    
C26   C30   A    
