data_mof_unit_30768.cif
_audit_creation_date              2012-12-11T16:13:51-0500
_audit_creation_method            fapswitch 2.2
_symmetry_space_group_name_H-M    P1
_symmetry_Int_Tables_number       1
_space_group_crystal_system       monoclinic
_cell_length_a                    26.150506
_cell_length_b                    7.2576
_cell_length_c                    23.761841
_cell_angle_alpha                 90.0
_cell_angle_beta                  101.370168
_cell_angle_gamma                 90.0
_cell_volume                      4421.24901406

loop_
_atom_site_label
_atom_site_type_symbol
_atom_type_description
_atom_site_fract_x
_atom_site_fract_y
_atom_site_fract_z
_atom_type_partial_charge
O1    O     O_R   0.192370 0.384760 0.193350 -0.530531
O2    O     O_R   0.807630 0.615240 0.806650 -0.530530
O3    O     O_R   0.307630 0.884760 0.306650 -0.530530
O4    O     O_R   0.692370 0.115240 0.693350 -0.530531
O5    O     O_R   0.296630 0.711620 0.196480 -0.541730
O6    O     O_R   0.703370 0.288380 0.803520 -0.541730
O7    O     O_R   0.203370 0.211620 0.303520 -0.541730
O8    O     O_R   0.796630 0.788380 0.696480 -0.541730
C1    C     C_R   0.312584 0.545809 0.184202 0.684101
C2    C     C_R   0.687416 0.454191 0.815798 0.684101
C3    C     C_R   0.187416 0.045809 0.315798 0.684101
C4    C     C_R   0.812584 0.954191 0.684202 0.684100
O9    O     O_R   0.192080 0.714290 0.186600 -0.534524
O10   O     O_R   0.807920 0.285710 0.813400 -0.534524
O11   O     O_R   0.307920 0.214290 0.313400 -0.534524
O12   O     O_R   0.692080 0.785710 0.686600 -0.534524
O13   O     O_R   0.202340 0.887460 0.296690 -0.537937
O14   O     O_R   0.797660 0.112540 0.703310 -0.537937
O15   O     O_R   0.297660 0.387460 0.203310 -0.537937
O16   O     O_R   0.702340 0.612540 0.796690 -0.537937
C5    C     C_R   0.173742 0.545880 0.171352 0.717343
C6    C     C_R   0.826258 0.454120 0.828647 0.717342
C7    C     C_R   0.326258 0.045880 0.328647 0.717342
C8    C     C_R   0.673742 0.954120 0.671353 0.717342
O17   O     O_3   0.253490 0.552180 0.286130 -0.375637
O18   O     O_3   0.746510 0.447820 0.713870 -0.375637
O19   O     O_3   0.246510 0.052180 0.213870 -0.375637
O20   O     O_3   0.753490 0.947820 0.786130 -0.375637
V1    V     V_3+5 0.249350 0.825920 0.243300 1.403226
V2    V     V_3+5 0.750650 0.174080 0.756700 1.403226
V3    V     V_3+5 0.250650 0.325920 0.256700 1.403226
V4    V     V_3+5 0.749350 0.674080 0.743300 1.403226
C9    C     C_3   0.541467 0.956114 0.476658 -0.175188
C10   C     C_3   0.458532 0.043886 0.523342 -0.175188
C11   C     C_3   0.958533 0.456114 0.023342 -0.175188
C12   C     C_3   0.041467 0.543886 0.976658 -0.175188
C13   C     C_3   0.507111 0.130189 0.463098 0.133333
C14   C     C_3   0.492889 0.869811 0.536902 0.133333
C15   C     C_3   0.992889 0.630189 0.036903 0.133333
C16   C     C_3   0.007111 0.369811 0.963097 0.133333
H1    H     H_    0.575681 0.921338 0.457497 0.120716
H2    H     H_    0.424319 0.078662 0.542503 0.120716
H3    H     H_    0.924319 0.421338 0.042503 0.120715
H4    H     H_    0.075681 0.578662 0.957497 0.120715
H5    H     H_    0.516597 0.296411 0.550262 0.117587
H6    H     H_    0.483403 0.703589 0.449738 0.117587
H7    H     H_    0.983402 0.796411 0.949738 0.117587
H8    H     H_    0.016598 0.203589 0.050262 0.117587
C17   C     C_1   0.371931 0.036411 0.374577 -0.180598
C18   C     C_1   0.628069 0.963589 0.625423 -0.180598
C19   C     C_1   0.128069 0.536411 0.125423 -0.180598
C20   C     C_1   0.871931 0.463589 0.874577 -0.180598
C21   C     C_3   0.491294 0.837410 0.472269 -0.175176
C22   C     C_3   0.508706 0.162590 0.527731 -0.175177
C23   C     C_3   0.008706 0.337410 0.027731 -0.175176
C24   C     C_3   0.991294 0.662590 0.972269 -0.175176
C25   C     C_3   0.457590 0.012770 0.458822 0.113345
C26   C     C_3   0.542410 0.987230 0.541178 0.113345
C27   C     C_3   0.042410 0.512770 0.041178 0.113345
C28   C     C_3   0.957590 0.487230 0.958822 0.113345
C29   C     C_1   0.410401 0.026454 0.412660 -0.064501
C30   C     C_1   0.589599 0.973546 0.587340 -0.064501
C31   C     C_1   0.089599 0.526454 0.087340 -0.064501
C32   C     C_1   0.910401 0.473546 0.912660 -0.064501
C33   C     C_R   0.869268 0.134420 0.629382 -0.159676
C34   C     C_R   0.130732 0.865579 0.370618 -0.159676
C35   C     C_R   0.630732 0.634420 0.870618 -0.159676
C36   C     C_R   0.369268 0.365580 0.129382 -0.159676
C37   C     C_R   0.905759 0.143301 0.593498 -0.138438
C38   C     C_R   0.094241 0.856699 0.406502 -0.138438
C39   C     C_R   0.594241 0.643301 0.906502 -0.138438
C40   C     C_R   0.405759 0.356699 0.093498 -0.138438
H9    H     H_    0.918981 0.277459 0.582428 0.134573
H10   H     H_    0.081019 0.722541 0.417572 0.134573
H11   H     H_    0.581019 0.777459 0.917572 0.134573
H12   H     H_    0.418981 0.222541 0.082428 0.134573
C41   C     C_R   0.924974 0.981594 0.572409 0.020136
C42   C     C_R   0.075026 0.018406 0.427591 0.020136
C43   C     C_R   0.575026 0.481594 0.927591 0.020136
C44   C     C_R   0.424974 0.518406 0.072409 0.020136
C45   C     C_R   0.906482 0.810699 0.588054 -0.136094
C46   C     C_R   0.093518 0.189301 0.411946 -0.136094
C47   C     C_R   0.593518 0.310699 0.911946 -0.136094
C48   C     C_R   0.406481 0.689301 0.088054 -0.136094
H13   H     H_    0.920299 0.683142 0.572706 0.138530
H14   H     H_    0.079701 0.316858 0.427294 0.138530
H15   H     H_    0.579701 0.183142 0.927294 0.138530
H16   H     H_    0.420299 0.816858 0.072706 0.138530
C49   C     C_R   0.869958 0.801742 0.623930 -0.160733
C50   C     C_R   0.130042 0.198257 0.376070 -0.160733
C51   C     C_R   0.630042 0.301742 0.876069 -0.160733
C52   C     C_R   0.369958 0.698257 0.123930 -0.160734
C53   C     C_R   0.850862 0.963492 0.645235 -0.047052
C54   C     C_R   0.149138 0.036508 0.354765 -0.047052
C55   C     C_R   0.649138 0.463492 0.854765 -0.047052
C56   C     C_R   0.350862 0.536508 0.145235 -0.047052
N1    N     N_R   0.982880 0.835176 0.514276 -0.281396
N2    N     N_R   0.017120 0.164824 0.485724 -0.281396
N3    N     N_R   0.517119 0.335176 0.985724 -0.281395
N4    N     N_R   0.482880 0.664824 0.014276 -0.281395
N5    N     N_R   0.017950 0.843798 0.480506 -0.284361
N6    N     N_R   0.982050 0.156202 0.519494 -0.284361
N7    N     N_R   0.482050 0.343798 0.019494 -0.284361
N8    N     N_R   0.517949 0.656202 0.980506 -0.284361
C57   C     C_R   0.035895 0.008816 0.465449 0.513247
C58   C     C_R   0.964105 0.991184 0.534551 0.513247
C59   C     C_R   0.464105 0.508816 0.034551 0.513247
C60   C     C_R   0.535895 0.491184 0.965449 0.513247
C61   C     C_3   0.514432 0.278816 0.419869 -0.370861
C62   C     C_3   0.565655 0.383940 0.439566 -0.308328
C63   C     C_3   0.575044 0.521096 0.394000 -0.758663
H17   H     H_    0.579072 0.447290 0.354154 0.233523
H18   H     H_    0.542229 0.620431 0.383877 0.226430
H19   H     H_    0.611544 0.598934 0.410135 0.217083
H20   H     H_    0.564309 0.460086 0.479851 0.193858
H21   H     H_    0.598843 0.285459 0.448209 0.200043
H22   H     H_    0.514199 0.211788 0.377769 0.180615
H23   H     H_    0.481089 0.376309 0.414863 0.168186
C64   C     C_3   0.485567 0.721184 0.580131 -0.370861
C65   C     C_3   0.434345 0.616060 0.560434 -0.308328
C66   C     C_3   0.424956 0.478903 0.606000 -0.758662
H24   H     H_    0.457771 0.379569 0.616123 0.226430
H25   H     H_    0.420928 0.552710 0.645846 0.233523
H26   H     H_    0.388456 0.401066 0.589865 0.217082
H27   H     H_    0.401157 0.714541 0.551791 0.200042
H28   H     H_    0.435691 0.539914 0.520149 0.193857
H29   H     H_    0.518911 0.623691 0.585137 0.168186
H30   H     H_    0.485801 0.788211 0.622231 0.180615
C67   C     C_3   0.985567 0.778816 0.080131 -0.370861
C68   C     C_3   0.934345 0.883940 0.060434 -0.308328
C69   C     C_3   0.924956 0.021096 0.106000 -0.758662
H31   H     H_    0.920928 0.947290 0.145846 0.233522
H32   H     H_    0.957771 0.120431 0.116123 0.226430
H33   H     H_    0.888456 0.098934 0.089865 0.217082
H34   H     H_    0.935691 0.960086 0.020149 0.193857
H35   H     H_    0.901157 0.785459 0.051792 0.200042
H36   H     H_    0.985801 0.711788 0.122231 0.180615
H37   H     H_    0.018911 0.876309 0.085137 0.168186
C70   C     C_3   0.014432 0.221184 0.919869 -0.370861
C71   C     C_3   0.065655 0.116060 0.939566 -0.308327
C72   C     C_3   0.075044 0.978904 0.894000 -0.758662
H38   H     H_    0.042229 0.879569 0.883877 0.226430
H39   H     H_    0.079071 0.052710 0.854154 0.233523
H40   H     H_    0.111544 0.901066 0.910135 0.217082
H41   H     H_    0.098843 0.214541 0.948208 0.200042
H42   H     H_    0.064309 0.039914 0.979851 0.193858
H43   H     H_    0.981089 0.123691 0.914863 0.168186
H44   H     H_    0.014199 0.288212 0.877769 0.180615
H45   H     H_    0.855627 0.262192 0.644788 0.123488
H46   H     H_    0.144373 0.737808 0.355211 0.123488
H47   H     H_    0.644373 0.762192 0.855211 0.123488
H48   H     H_    0.355627 0.237808 0.144788 0.123488
H49   H     H_    0.856895 0.667464 0.635102 0.122065
H50   H     H_    0.143105 0.332536 0.364897 0.122065
H51   H     H_    0.643105 0.167464 0.864897 0.122065
H52   H     H_    0.356895 0.832536 0.135102 0.122065

loop_
_geom_bond_atom_site_label_1
_geom_bond_atom_site_label_2
_ccdc_geom_bond_type
O17   V3    S    
H8    C23   S    
N3    N7    A    
C26   C30   S    
C9    C26   S    
C16   C28   S    
C23   C27   S    
O19   V1    S    
O13   V1    S    
C37   C41   A    
C68   H34   S    
C10   H2    S    
O1    V3    S    
C44   C48   A    
C69   H33   S    
O15   V3    S    
C39   C43   A    
C61   H22   S    
O1    C5    A    
N3    C60   A    
C44   C59   S    
C70   H43   S    
C36   C56   A    
N2    C57   A    
C42   C57   S    
C36   H48   S    
O9    V1    S    
C41   C58   S    
O7    V3    S    
C34   H46   S    
C72   H39   S    
O16   V4    S    
C11   C15   S    
O4    C8    A    
C65   H28   S    
C7    C17   S    
C38   C42   A    
C16   C70   S    
C52   C56   A    
O2    V4    S    
O3    V1    S    
C62   C63   S    
C66   H26   S    
C14   C26   S    
O3    C7    A    
C1    O15   A    
N4    N8    A    
C67   H37   S    
C63   H17   S    
C2    O16   A    
C43   C47   A    
C38   H10   S    
C10   C25   S    
C37   H9    S    
O14   V2    S    
C50   H50   S    
C11   H3    S    
C13   C61   S    
C36   C40   A    
C34   C54   A    
C45   C49   A    
C64   H30   S    
C12   C27   S    
N8    C60   A    
C33   C53   A    
O12   C8    A    
N5    C57   A    
O10   V2    S    
C61   H23   S    
C50   C54   A    
O5    V1    S    
C9    C21   S    
C70   H44   S    
O4    V2    S    
C17   C29   T    
C11   C23   S    
O8    V4    S    
C12   C16   S    
C19   C31   T    
C71   C72   S    
C52   H52   S    
C20   C32   T    
C72   H40   S    
C71   H42   S    
C21   C25   S    
C65   H27   S    
C15   C67   S    
C46   H14   S    
C35   H47   S    
C9    C13   S    
C24   C28   S    
C11   C28   S    
C71   H41   S    
O7    C3    A    
O5    C1    A    
C12   C24   S    
C42   C46   A    
N1    N5    A    
C49   H49   S    
C15   C24   S    
C1    C56   S    
C41   C45   A    
O8    C4    A    
C16   C23   S    
C15   C27   S    
O9    C5    A    
C40   H12   S    
C63   H18   S    
C64   C65   S    
C25   C29   S    
C8    C18   S    
C66   H24   S    
N1    C58   A    
C3    C54   S    
O6    V2    S    
C35   C55   A    
H5    C22   S    
C10   C22   S    
C72   H38   S    
C18   C30   T    
C4    C53   S    
C12   H4    S    
C51   H51   S    
C14   C64   S    
C69   H31   S    
C62   H21   S    
C5    C19   S    
C65   C66   S    
C6    C20   S    
C67   C68   S    
C22   C26   S    
C3    O13   A    
N4    C59   A    
C10   C14   S    
C68   H35   S    
C48   H16   S    
C69   H32   S    
C47   H15   S    
O6    C2    A    
C13   C22   S    
C70   C71   S    
O11   V3    S    
O18   V4    S    
O12   V4    S    
C47   C51   A    
C27   C31   S    
C46   C50   A    
C28   C32   S    
C9    H1    S    
O10   C6    A    
O20   V2    S    
C68   C69   S    
C40   C44   A    
N2    N6    A    
O2    C6    A    
C39   H11   S    
C34   C38   A    
C14   C21   S    
C2    C55   S    
C33   C37   A    
H6    C21   S    
O11   C7    A    
C43   C60   S    
N6    C58   A    
C63   H19   S    
C35   C39   A    
C49   C53   A    
C45   H13   S    
C66   H25   S    
C51   C55   A    
C67   H36   S    
C4    O14   A    
C33   H45   S    
N7    C59   A    
C48   C52   A    
C61   C62   S    
C62   H20   S    
C13   C25   S    
H7    C24   S    
C64   H29   S    
