data_mof_unit_59619.cif
_audit_creation_date              2013-03-05T16:46:58-0500
_audit_creation_method            fapswitch 2.2
_symmetry_space_group_name_H-M    P1
_symmetry_Int_Tables_number       1
_space_group_crystal_system       triclinic
_cell_length_a                    15.009895
_cell_length_b                    8.957335
_cell_length_c                    8.117233
_cell_angle_alpha                 90.054613
_cell_angle_beta                  90.434673
_cell_angle_gamma                 90.276831
_cell_volume                      1091.30640338

loop_
_atom_site_label
_atom_site_type_symbol
_atom_site_description
_atom_site_fract_x
_atom_site_fract_y
_atom_site_fract_z
_atom_type_partial_charge
O1    O     O_R   0.500000 0.285350 0.636850 -0.622434
O2    O     O_R   0.500000 0.714650 0.363150 -0.622604
O3    O     O_R   0.500000 0.714650 0.636850 -0.602777
O4    O     O_R   0.500000 0.285350 0.363150 -0.602900
C1    C     C_R   0.500672 0.218003 0.499985 0.961688
C2    C     C_R   0.499347 0.781997 0.500015 0.961361
O5    O     O_R   0.367850 0.500000 0.636890 -0.642181
O6    O     O_R   0.632150 0.500000 0.363110 -0.642293
O7    O     O_R   0.632150 0.500000 0.636890 -0.582294
O8    O     O_R   0.367850 0.500000 0.363110 -0.582567
C3    C     C_R   0.326929 0.498209 0.499297 0.919821
C4    C     C_R   0.673070 0.501801 0.500706 0.920212
Zn1   Zn    Zn3+2 0.500000 0.500000 0.682780 1.039508
Zn2   Zn    Zn3+2 0.500000 0.500000 0.317220 1.039293
N1    N     N_1   0.500000 0.500000 0.073640 -0.019953
N2    N     N_1   0.500000 0.500000 0.926360 -0.019935
C5    C     C_R   0.814120 0.639050 0.505897 -0.078987
C6    C     C_R   0.185883 0.360955 0.494521 -0.078837
C7    C     C_R   0.812402 0.364190 0.504099 -0.100502
C8    C     C_R   0.187585 0.635831 0.495923 -0.101165
C9    C     C_R   0.768273 0.501880 0.503044 -0.154648
C10   C     C_R   0.231724 0.498139 0.497011 -0.154760
C11   C     C_R   0.905539 0.363523 0.494645 0.108615
C12   C     C_R   0.094456 0.636461 0.505821 0.108898
C13   C     C_R   0.907364 0.637907 0.510996 0.046548
C14   C     C_R   0.092637 0.362069 0.489613 0.046486
C15   C     C_R   0.953125 0.500346 0.501520 0.049349
C16   C     C_R   0.046875 0.499629 0.499043 0.049250
C17   C     C_R   0.952090 0.229770 0.472946 -0.143332
C18   C     C_R   0.047908 0.770172 0.527881 -0.142855
C19   C     C_R   0.956014 0.771009 0.529762 -0.226283
C20   C     C_R   0.043987 0.228934 0.471118 -0.226016
C21   C     C_1   0.500281 0.065143 0.499965 -0.119821
C22   C     C_1   0.499744 0.934858 0.500034 -0.119966
H1    H     H_    0.918122 0.124678 0.453291 0.165598
H2    H     H_    0.081873 0.875226 0.547795 0.165867
H3    H     H_    0.923798 0.877004 0.549378 0.160571
H4    H     H_    0.076203 0.122909 0.451708 0.160813
C23   C     C_2   0.764939 0.783128 0.499917 0.428719
H5    H     H_    0.787305 0.871821 0.418967 0.072177
O9    O     O_2   0.701047 0.805288 0.588530 -0.542251
C24   C     C_2   0.235083 0.216898 0.500603 0.429000
H6    H     H_    0.212789 0.128305 0.581752 0.072215
O10   O     O_2   0.298911 0.194643 0.411863 -0.542438
C25   C     C_2   0.759810 0.223282 0.519212 0.381740
H7    H     H_    0.698990 0.207776 0.448085 0.052065
O11   O     O_2   0.781695 0.127297 0.618006 -0.551051
C26   C     C_2   0.240153 0.776742 0.480189 0.383063
H8    H     H_    0.301491 0.791915 0.549940 0.051640
O12   O     O_2   0.217645 0.873151 0.382328 -0.551647

loop_
_geom_bond_atom_site_label_1
_geom_bond_atom_site_label_2
_geom_bond_distance
_ccdc_geom_bond_type
O3    Zn1   1.958853 S    
C13   C19   1.402647 A    
C7    C11   1.400708 A    
C7    C25   1.491107 S    
C14   C20   1.402680 A    
C20   H4    1.079767 S    
C13   C15   1.415891 A    
C17   H1    1.079534 S    
C3    C10   1.428995 S    
C14   C16   1.415876 A    
C6    C14   1.399968 A    
C18   H2    1.079510 S    
O6    C4    1.270604 A    
O3    C2    1.264470 A    
C5    C13   1.399968 A    
C26   O12   1.221047 D    
C21   C22   1.166992 T    
C23   O9    1.220043 D    
C8    C26   1.491383 S    
C25   H7    1.084743 S    
O5    C3    1.270587 A    
O2    C2    1.263801 A    
C2    C22   1.369210 S    
C24   O10   1.220043 D    
O1    C1    1.263804 A    
C11   C17   1.401494 A    
C26   H8    1.085093 S    
C7    C9    1.402763 A    
C8    C10   1.402849 A    
C17   C20   1.379600 A    
C11   C15   1.416364 A    
C25   O11   1.220753 D    
O4    Zn2   1.958854 S    
C18   C19   1.379576 A    
O2    Zn2   1.958156 S    
O7    C4    1.268756 A    
C12   C18   1.401525 A    
O1    Zn1   1.958156 S    
C24   H6    1.085072 S    
N1    N2    1.195505 T    
C5    C23   1.490509 S    
C19   H3    1.079784 S    
O5    Zn1   2.015452 S    
O8    C3    1.268788 A    
Zn1   N2    1.977196 S    
C23   H5    1.085078 S    
C8    C12   1.400816 A    
Zn2   N1    1.977196 S    
O7    Zn1   2.021005 S    
O6    Zn2   2.015450 S    
C6    C24   1.490508 S    
C6    C10   1.405475 A    
C4    C9    1.428966 S    
C5    C9    1.405452 A    
C12   C16   1.416378 A    
O8    Zn2   2.021007 S    
O4    C1    1.264468 A    
C15   C16   1.407524 A    
C1    C21   1.369208 S    
