data_mof_unit_65705.cif
_audit_creation_date              2012-12-10T16:42:45-0500
_audit_creation_method            fapswitch 2.2
_symmetry_space_group_name_H-M    P1
_symmetry_Int_Tables_number       1
_space_group_crystal_system       triclinic
_cell_length_a                    15.916538
_cell_length_b                    17.957018
_cell_length_c                    29.270165
_cell_angle_alpha                 89.962151
_cell_angle_beta                  89.715884
_cell_angle_gamma                 89.996395
_cell_volume                      8365.70534714

loop_
_atom_site_label
_atom_site_type_symbol
_atom_type_description
_atom_site_fract_x
_atom_site_fract_y
_atom_site_fract_z
_atom_type_partial_charge
C1    C     C_R   0.499884 0.389831 0.058758 0.754201
C2    C     C_R   0.499875 0.609987 0.058901 0.746446
C3    C     C_R   0.778750 0.999357 0.734817 -0.050629
C4    C     C_R   0.390936 0.999782 0.667016 -0.057479
C5    C     C_R   0.942769 0.997683 0.699780 -0.043665
C6    C     C_R   0.307755 0.998500 0.583022 -0.092626
C7    C     C_1   0.521080 0.932956 0.810347 0.009576
C8    C     C_1   0.521186 0.067578 0.810168 0.009358
C9    C     C_1   0.622738 0.000038 0.766457 -0.010764
C10   C     C_1   0.480230 0.000107 0.742930 -0.003966
C11   C     C_1   0.512977 0.876557 0.832461 -0.045610
C12   C     C_1   0.513094 0.124040 0.832178 -0.045466
C13   C     C_1   0.438036 0.999985 0.708825 0.048355
C14   C     C_1   0.694070 0.999790 0.752302 0.041670
C15   C     C_R   0.583758 0.092727 0.320539 0.248692
C16   C     C_R   0.409708 0.974036 0.298431 0.252499
C17   C     C_R   0.368324 0.105289 0.295696 0.351753
C18   C     C_R   0.628961 0.980027 0.280410 0.348263
C19   C     C_R   0.646422 0.080573 0.353823 0.267012
C20   C     C_R   0.345741 0.960425 0.331301 0.261493
C21   C     C_R   0.303263 0.089720 0.327581 0.228024
C22   C     C_R   0.692487 0.969674 0.313814 0.230270
C23   C     C_R   0.575068 0.190123 0.229334 0.379956
C24   C     C_R   0.433150 0.964381 0.188295 0.389953
C25   C     C_R   0.436069 0.164775 0.197631 0.283403
C26   C     C_R   0.576513 0.009045 0.174846 0.279185
C27   C     C_R   0.568547 0.264300 0.213667 0.445361
C28   C     C_R   0.441226 0.918108 0.149474 0.430703
C29   C     C_R   0.432486 0.238843 0.181567 0.463313
C30   C     C_R   0.581708 0.963119 0.135845 0.465078
C31   C     C_R   0.500245 0.610803 0.941645 0.776442
C32   C     C_R   0.500248 0.389289 0.941598 0.776663
C33   C     C_3   0.501357 0.059834 0.247165 0.199335
C34   C     C_R   0.575915 0.044784 0.281690 0.057736
C35   C     C_R   0.421658 0.046593 0.278945 0.058430
C36   C     C_R   0.698050 0.018164 0.350875 -0.039667
C37   C     C_R   0.296202 0.019055 0.346923 -0.040647
C38   C     C_R   0.504655 0.140482 0.225411 -0.009736
C39   C     C_R   0.503421 0.007876 0.203577 -0.003945
C40   C     C_R   0.496856 0.288747 0.191188 -0.215083
C41   C     C_R   0.515098 0.917122 0.123874 -0.213569
C42   C     C_1   0.236105 0.007239 0.383251 0.210013
C43   C     C_1   0.761032 0.006925 0.385467 0.204934
C44   C     C_1   0.185567 0.001550 0.413777 -0.119634
C45   C     C_1   0.813424 0.001497 0.414790 -0.131313
C46   C     C_1   0.489334 0.365904 0.178059 0.199084
C47   C     C_1   0.521872 0.869600 0.084275 0.232542
C48   C     C_1   0.482961 0.430619 0.167616 0.031284
C49   C     C_1   0.527496 0.829859 0.051202 0.010792
C50   C     C_R   0.123647 0.000122 0.449364 0.833477
C51   C     C_R   0.876673 0.000122 0.449341 0.820642
C52   C     C_R   0.582066 0.770459 0.869217 -0.141425
C53   C     C_R   0.430688 0.219928 0.873435 -0.138845
C54   C     C_R   0.430620 0.780496 0.873667 -0.136960
C55   C     C_R   0.582093 0.230231 0.868802 -0.141086
C56   C     C_R   0.892794 0.999983 0.569380 0.747390
C57   C     C_R   0.106798 0.999984 0.569390 0.786713
C58   C     C_R   0.579101 0.705385 0.895330 -0.169739
C59   C     C_R   0.427482 0.285171 0.899704 -0.170462
C60   C     C_R   0.427445 0.715114 0.899859 -0.170791
C61   C     C_R   0.579099 0.295163 0.894996 -0.169864
C62   C     C_R   0.832097 0.939186 0.744182 -0.258382
C63   C     C_R   0.377520 0.066566 0.643310 -0.247240
C64   C     C_R   0.362108 0.932404 0.648694 -0.240529
C65   C     C_R   0.807747 0.058682 0.707853 -0.261765
C66   C     C_R   0.914048 0.938465 0.726638 0.572035
C67   C     C_R   0.335855 0.065801 0.601341 0.571971
C68   C     C_R   0.320472 0.931904 0.606710 0.560970
C69   C     C_R   0.889757 0.057755 0.690403 0.521543
C70   C     C_3   0.535485 0.000190 0.782801 0.000295
C71   C     C_R   0.508073 0.808565 0.858585 0.129909
C72   C     C_R   0.508141 0.192039 0.858241 0.131071
C73   C     C_R   0.501847 0.677128 0.911322 -0.039260
C74   C     C_R   0.501857 0.323182 0.911148 -0.036928
Cu1   Cu    Cu3+1 0.415470 0.500000 0.000080 1.016614
Cu2   Cu    Cu3+1 0.584530 0.500000 0.000080 1.003527
Cu3   Cu    Cu3+1 1.000000 0.072960 0.508900 1.084140
Cu4   Cu    Cu3+1 1.000000 0.927040 0.508900 1.053377
H1    H     H_    0.637639 0.677747 0.903409 0.166312
H2    H     H_    0.367042 0.305045 0.911670 0.165648
H3    H     H_    0.366998 0.695080 0.911723 0.166661
H4    H     H_    0.637611 0.322856 0.903032 0.165588
H5    H     H_    0.642355 0.791462 0.857640 0.143623
H6    H     H_    0.372959 0.190914 0.865389 0.145538
H7    H     H_    0.372862 0.809444 0.865565 0.148039
H8    H     H_    0.642380 0.209371 0.857137 0.144655
H9    H     H_    0.810253 0.892971 0.764885 0.185276
H10   H     H_    0.400036 0.118876 0.657032 0.189906
H11   H     H_    0.372636 0.880430 0.666600 0.191013
H12   H     H_    0.766966 0.105366 0.700307 0.190557
O1    O     O_R   0.429360 0.416280 0.044700 -0.560836
O2    O     O_R   0.570640 0.583720 0.044700 -0.573376
O3    O     O_R   0.570640 0.416280 0.044700 -0.574820
O4    O     O_R   0.429360 0.583720 0.044700 -0.568287
O5    O     O_R   0.427420 0.583550 0.955440 -0.584838
O6    O     O_R   0.572580 0.416450 0.955440 -0.588423
O7    O     O_R   0.572580 0.583550 0.955440 -0.588391
O8    O     O_R   0.427420 0.416450 0.955440 -0.584822
O9    O     O_R   0.093410 0.059470 0.464300 -0.566877
O10   O     O_R   0.906590 0.940530 0.464300 -0.578183
O11   O     O_R   0.906590 0.059470 0.464300 -0.573213
O12   O     O_R   0.093410 0.940530 0.464300 -0.568979
O13   O     O_R   0.920740 0.061400 0.553530 -0.524228
O14   O     O_R   0.079260 0.938600 0.553530 -0.540995
O15   O     O_R   0.079260 0.061400 0.553530 -0.538060
O16   O     O_R   0.920740 0.938600 0.553530 -0.570223
F1    F     F_    0.965743 0.880349 0.735579 -0.626400
F2    F     F_    0.323124 0.130174 0.578203 -0.620830
F3    F     F_    0.292841 0.866872 0.588761 -0.621811
F4    F     F_    0.917965 0.114989 0.664318 -0.636738
O17   O     O_3   0.660185 0.130154 0.389156 -0.704411
H13   H     H_    0.644173 0.180818 0.379034 0.362402
O18   O     O_3   0.329475 0.890053 0.348358 -0.698064
H14   H     H_    0.344700 0.852684 0.324871 0.359028
O19   O     O_3   0.246120 0.143487 0.341090 -0.699604
H15   H     H_    0.238598 0.179372 0.315703 0.358087
O20   O     O_3   0.750455 0.912524 0.310899 -0.701994
H16   H     H_    0.758991 0.899623 0.278301 0.356485
F5    F     F_    0.632614 0.313188 0.220267 -0.635430
F6    F     F_    0.375981 0.874645 0.135890 -0.642613
F7    F     F_    0.364599 0.263240 0.157826 -0.645681
F8    F     F_    0.652461 0.962559 0.109606 -0.640433
O21   O     O_3   0.530275 0.152620 0.324905 -0.710339
H17   H     H_    0.516954 0.159729 0.357731 0.339504
O22   O     O_3   0.461783 0.916853 0.284798 -0.703302
H18   H     H_    0.472716 0.884173 0.311409 0.337007
O23   O     O_3   0.384209 0.178473 0.284181 -0.698079
H19   H     H_    0.369418 0.211253 0.310237 0.355712
O24   O     O_3   0.614980 0.924730 0.248636 -0.697502
H20   H     H_    0.629540 0.875763 0.262074 0.350262
O25   O     O_3   0.650477 0.165214 0.246909 -0.670278
H21   H     H_    0.693175 0.205283 0.246164 0.386342
O26   O     O_3   0.356003 0.970262 0.209886 -0.667762
H22   H     H_    0.313930 0.937869 0.195005 0.387074
O27   O     O_3   0.370178 0.116569 0.189639 -0.677574
H23   H     H_    0.328141 0.140301 0.169507 0.391437
O28   O     O_3   0.643706 0.053436 0.186863 -0.673028
H24   H     H_    0.689348 0.049188 0.163914 0.391851

loop_
_geom_bond_atom_site_label_1
_geom_bond_atom_site_label_2
_ccdc_geom_bond_type
C24   O26   S    
C22   O20   S    
C57   O15   A    
C63   H10   S    
Cu4   O12   S    
C60   C73   A    
Cu3   O11   S    
O17   H13   S    
C66   F1    S    
C21   O19   S    
C26   O28   S    
C7    C70   S    
C53   C59   A    
Cu1   O5    S    
O21   H17   S    
C47   C49   T    
C54   C60   A    
Cu3   Cu4   S    
C40   C46   S    
C4    C63   A    
C50   O9    A    
C33   C39   S    
C15   O21   S    
C53   H6    S    
C64   C68   A    
O24   H20   S    
C61   H4    S    
C16   C35   A    
C32   C74   S    
C20   O18   S    
C25   C38   A    
C65   C69   A    
C26   C39   A    
C31   C73   S    
C45   C51   S    
O19   H15   S    
C28   C41   A    
C4    C13   S    
C24   C39   A    
C69   F4    S    
C37   C42   S    
C5    C69   A    
C15   C19   A    
C54   C71   A    
C30   F8    S    
C29   F7    S    
C30   C41   A    
C23   C27   A    
C8    C12   T    
O27   H23   S    
C16   O22   S    
C15   C34   A    
C55   C72   A    
Cu1   O1    S    
C6    C68   A    
C12   C72   S    
C1    O1    A    
C3    C65   A    
C42   C44   T    
C64   H11   S    
C25   O27   S    
C63   C67   A    
C25   C29   A    
C65   H12   S    
C46   C48   T    
C62   C66   A    
Cu4   O14   S    
C2    O4    A    
C9    C70   S    
C28   F6    S    
C9    C14   T    
C17   O23   S    
Cu2   O7    S    
Cu1   O8    S    
C17   C21   A    
C52   H5    S    
C7    C11   T    
Cu1   Cu2   S    
Cu2   O3    S    
C43   C45   T    
C60   H3    S    
C27   C40   A    
C16   C20   A    
C33   C34   S    
C41   C47   S    
C23   O25   S    
C2    O2    A    
C18   C34   A    
C59   C74   A    
C56   O16   A    
C3    C14   S    
C52   C58   A    
C58   H1    S    
Cu2   O2    S    
C10   C70   S    
C6    C67   A    
C32   O6    A    
C50   O12   A    
C27   F5    S    
Cu4   O10   S    
O26   H22   S    
Cu3   O13   S    
O25   H21   S    
O18   H14   S    
C62   H9    S    
C3    C62   A    
C44   C50   S    
C51   O10   A    
C57   O14   A    
C18   C22   A    
C19   C36   A    
C24   C28   A    
C56   O13   A    
C5    C66   A    
C36   C43   S    
C10   C13   T    
C59   H2    S    
C54   H7    S    
C26   C30   A    
C19   O17   S    
C61   C74   A    
C51   O11   A    
C23   C38   A    
C22   C36   A    
O28   H24   S    
C4    C64   A    
C8    C70   S    
C33   C38   S    
Cu4   O16   S    
C55   H8    S    
Cu3   O15   S    
C52   C71   A    
O20   H16   S    
Cu2   O6    S    
C20   C37   A    
O22   H18   S    
C31   O5    A    
C55   C61   A    
C29   C40   A    
C33   C35   S    
C32   O8    A    
Cu3   O9    S    
C11   C71   S    
C68   F3    S    
C31   O7    A    
C67   F2    S    
C21   C37   A    
Cu1   O4    S    
C1    O3    A    
C18   O24   S    
C17   C35   A    
C53   C72   A    
O23   H19   S    
C58   C73   A    
