data_mof_unit_5401.cif
_audit_creation_date              2012-12-10T19:05:16-0500
_audit_creation_method            fapswitch 2.2
_symmetry_space_group_name_H-M    P1
_symmetry_Int_Tables_number       1
_space_group_crystal_system       triclinic
_cell_length_a                    9.589285
_cell_length_b                    10.831491
_cell_length_c                    17.431302
_cell_angle_alpha                 91.143482
_cell_angle_beta                  85.511417
_cell_angle_gamma                 90.65708
_cell_volume                      1804.52249343

loop_
_atom_site_label
_atom_site_type_symbol
_atom_type_description
_atom_site_fract_x
_atom_site_fract_y
_atom_site_fract_z
_atom_type_partial_charge
C1    C     C_R   0.500240 0.737560 0.504025 0.779270
C2    C     C_R   0.382417 0.581435 0.773840 -0.273952
C3    C     C_R   0.416535 0.478485 0.144485 0.347082
C4    C     C_R   0.403918 0.500635 0.224154 0.348898
C5    C     C_R   0.654395 0.525910 0.223174 -0.225281
C6    C     C_R   0.666464 0.515805 0.143313 -0.235669
C7    C     C_R   0.548168 0.491449 0.103524 0.024642
C8    C     C_2   0.469792 0.532404 0.976582 -0.133168
C9    C     C_2   0.564145 0.482476 0.019267 -0.186880
C10   C     C_R   0.525314 0.510522 0.265028 -0.183246
C11   C     C_R   0.375374 0.934972 0.529042 0.108778
C12   C     C_R   0.481413 0.498666 0.649224 0.827705
C13   C     C_R   0.500727 0.870572 0.516923 -0.101296
C14   C     C_R   0.627149 0.937250 0.519251 -0.199850
C15   C     C_R   0.626277 0.066293 0.519306 -0.173156
C16   C     C_R   0.499555 0.129401 0.514944 -0.106873
C17   C     C_R   0.375018 0.062230 0.526362 0.112268
C18   C     C_3   0.248180 0.061853 0.482392 -0.440286
C19   C     C_3   0.244781 0.922924 0.488413 -0.445070
C20   C     C_R   0.930400 0.401006 0.471177 0.118768
C21   C     C_R   0.921943 0.593003 0.534440 -0.023560
C22   C     C_R   0.070606 0.593600 0.533783 -0.073763
C23   C     C_R   0.499351 0.262303 0.503186 0.836141
C24   C     C_R   0.076288 0.397540 0.476053 0.214336
C25   C     C_3   0.101065 0.332719 0.400613 -0.565003
C26   C     C_3   0.945958 0.348085 0.390031 -0.109955
C27   C     C_R   0.517974 0.505309 0.350038 0.869304
C28   C     C_R   0.472304 0.498880 0.732650 -0.098795
C29   C     C_R   0.561217 0.423225 0.771084 0.420817
C30   C     C_R   0.557803 0.430659 0.851262 -0.242735
C31   C     C_R   0.473096 0.518349 0.892486 0.100809
C32   C     C_R   0.383800 0.591876 0.853313 -0.168039
Cu1   Cu    Cu3+1 0.359330 0.500020 0.500000 0.953251
Cu2   Cu    Cu3+1 0.640670 0.499980 0.500000 0.987041
H1    H     H_    0.767981 0.528734 0.112464 0.156731
H2    H     H_    0.726757 0.890554 0.516243 0.173299
H3    H     H_    0.725158 0.115540 0.517978 0.187363
H4    H     H_    0.157756 0.107637 0.514636 0.210204
H5    H     H_    0.274512 0.090518 0.422133 0.196332
H6    H     H_    0.155028 0.888394 0.526496 0.189787
H7    H     H_    0.261323 0.875049 0.431884 0.210344
H8    H     H_    0.863834 0.669324 0.561422 0.119281
H9    H     H_    0.122920 0.670350 0.560242 0.127328
H10   H     H_    0.174135 0.383535 0.360337 0.266487
H11   H     H_    0.132388 0.236860 0.406805 0.204292
H12   H     H_    0.744974 0.550828 0.252064 0.216449
H13   H     H_    0.658004 0.439328 0.993031 0.136959
H14   H     H_    0.315648 0.658217 0.884235 0.135535
H15   H     H_    0.314700 0.640639 0.744234 0.156715
H16   H     H_    0.386525 0.588217 0.004672 0.180784
H17   H     H_    0.619772 0.366213 0.880230 0.132622
N1    N     N_R   0.852130 0.499070 0.499500 -0.173985
N2    N     N_R   0.148040 0.499110 0.499500 -0.172955
O1    O     O_R   0.381190 0.680360 0.500000 -0.596238
O2    O     O_R   0.618770 0.680320 0.499990 -0.587417
O3    O     O_R   0.367430 0.500040 0.613600 -0.593826
O4    O     O_R   0.605020 0.500000 0.613590 -0.576778
O5    O     O_R   0.381230 0.319680 0.500010 -0.584824
O6    O     O_R   0.618810 0.319640 0.500000 -0.578921
O7    O     O_R   0.394980 0.500000 0.386410 -0.550105
O8    O     O_R   0.632570 0.499960 0.386400 -0.543417
O9    O     O_3   0.640250 0.333916 0.730336 -0.581410
C33   C     C_3   0.783829 0.363771 0.731889 0.088136
H18   H     H_    0.820080 0.347726 0.789915 0.130153
H19   H     H_    0.805746 0.461706 0.715862 0.142391
C34   C     C_3   0.867390 0.281279 0.673921 -0.765919
H20   H     H_    0.830848 0.292966 0.615664 0.254765
H21   H     H_    0.980194 0.306306 0.672520 0.195171
H22   H     H_    0.853597 0.183019 0.690176 0.240590
O10   O     O_3   0.272064 0.515411 0.260789 -0.585205
C35   C     C_3   0.220401 0.633469 0.244344 0.144074
H23   H     H_    0.109736 0.623200 0.231189 0.183313
H24   H     H_    0.275188 0.679300 0.193424 0.113416
C36   C     C_3   0.226863 0.718701 0.314177 -0.773391
H25   H     H_    0.337693 0.736015 0.325773 0.217766
H26   H     H_    0.177246 0.808092 0.303146 0.203781
H27   H     H_    0.170694 0.676197 0.365348 0.287002
C37   C     C_2   0.933476 0.437298 0.325892 0.900667
O11   O     O_2   0.922648 0.548108 0.339676 -0.617927
O12   O     O_R   0.949734 0.392638 0.249850 -0.757210
H28   H     H_    0.953480 0.460339 0.210524 0.309634
C38   C     C_2   0.863287 0.229587 0.380119 0.858669
O13   O     O_2   0.909964 0.130154 0.397476 -0.630792
O14   O     O_R   0.732367 0.234265 0.350201 -0.747470
H29   H     H_    0.686419 0.149853 0.346232 0.323050
O15   O     O_3   0.297778 0.453048 0.106544 -0.597434
C39   C     C_3   0.265257 0.326193 0.113367 0.102524
H30   H     H_    0.233452 0.303388 0.174317 0.185752
H31   H     H_    0.355996 0.268147 0.091948 0.131647
C40   C     C_3   0.143881 0.294774 0.065062 -0.758341
H32   H     H_    0.173706 0.314456 0.003619 0.241289
H33   H     H_    0.116241 0.195325 0.070465 0.201793
H34   H     H_    0.051164 0.350662 0.084980 0.254936

loop_
_geom_bond_atom_site_label_1
_geom_bond_atom_site_label_2
_ccdc_geom_bond_type
C10   C27   S    
C23   O5    A    
C34   H21   S    
C39   H30   S    
C33   H19   S    
Cu1   O5    S    
C8    H16   S    
C30   H17   S    
C4    O10   S    
C23   O6    A    
C11   C19   S    
C26   C37   S    
C36   H26   S    
C12   C28   S    
C28   C29   A    
C3    C7    A    
C27   O7    A    
C14   H2    S    
C30   C31   A    
C37   O12   S    
C34   H22   S    
C15   C16   A    
C6    H1    S    
C2    C32   A    
C18   C19   S    
C18   H5    S    
C15   H3    S    
C27   O8    A    
C31   C32   A    
C8    C9    D    
C36   H27   S    
Cu2   O4    S    
O10   C35   S    
Cu1   O3    S    
C34   H20   S    
C33   C34   S    
Cu2   O2    S    
C26   C38   S    
C21   C22   A    
C3    O15   S    
C32   H14   S    
C25   H10   S    
Cu1   Cu2   S    
C22   N2    A    
Cu1   N2    S    
C36   H25   S    
C20   C24   A    
C24   C25   S    
C35   H24   S    
O15   C39   S    
C16   C17   A    
C25   C26   S    
Cu2   O8    S    
C33   H18   S    
C1    O1    A    
C29   C30   A    
C2    H15   S    
C40   H33   S    
C22   H9    S    
O9    C33   S    
C17   C18   S    
O14   H29   S    
C12   O3    A    
C12   O4    A    
C9    H13   S    
Cu1   O7    S    
C38   O14   S    
C39   H31   S    
Cu2   O6    S    
C1    C13   S    
C4    C10   A    
C3    C4    A    
C25   H11   S    
C40   H34   S    
Cu1   O1    S    
C7    C9    S    
C29   O9    S    
C11   C17   A    
C37   O11   D    
C8    C31   S    
O12   H28   S    
C35   C36   S    
C6    C7    A    
C16   C23   S    
C5    H12   S    
Cu2   N1    S    
C24   N2    A    
C5    C10   A    
C20   N1    A    
C11   C13   A    
C40   H32   S    
C5    C6    A    
C20   C26   S    
C1    O2    A    
C18   H4    S    
C19   H6    S    
C21   H8    S    
C35   H23   S    
C38   O13   D    
C39   C40   S    
C14   C15   A    
C2    C28   A    
C13   C14   A    
C21   N1    A    
C19   H7    S    
