data_mof_unit_39895.cif
_audit_creation_date              2013-03-05T16:21:17-0500
_audit_creation_method            fapswitch 2.2
_symmetry_space_group_name_H-M    P1
_symmetry_Int_Tables_number       1
_space_group_crystal_system       triclinic
_cell_length_a                    23.076719
_cell_length_b                    29.507961
_cell_length_c                    8.735128
_cell_angle_alpha                 90.141515
_cell_angle_beta                  93.247944
_cell_angle_gamma                 89.980069
_cell_volume                      5938.58580022

loop_
_atom_site_label
_atom_site_type_symbol
_atom_site_description
_atom_site_fract_x
_atom_site_fract_y
_atom_site_fract_z
_atom_type_partial_charge
P1    P     P_3+3 0.880180 0.450420 0.058010 0.419742
P2    P     P_3+3 0.880180 0.549580 0.558010 0.403815
P3    P     P_3+3 0.380180 0.950420 0.058010 0.420146
P4    P     P_3+3 0.380180 0.049580 0.558010 0.419621
O1    O     O_2   0.885810 0.435270 0.885040 -0.398056
O2    O     O_2   0.885810 0.564730 0.385040 -0.414457
O3    O     O_2   0.385810 0.935270 0.885040 -0.398956
O4    O     O_2   0.385810 0.064730 0.385040 -0.398997
O5    O     O_3   0.933490 0.477290 0.133000 -0.412445
O6    O     O_3   0.933490 0.522710 0.633000 -0.410830
O7    O     O_3   0.433490 0.977290 0.133000 -0.385275
O8    O     O_3   0.433490 0.022710 0.633000 -0.386176
O9    O     O_3   0.980190 0.395350 0.639000 -0.340743
O10   O     O_3   0.980190 0.604650 0.139000 -0.367702
O11   O     O_3   0.480190 0.895350 0.639000 -0.355447
O12   O     O_3   0.480190 0.104650 0.139000 -0.359731
O13   O     O_2   0.881111 0.362996 0.725334 -0.390421
O14   O     O_2   0.880769 0.638283 0.217184 -0.400616
O15   O     O_2   0.377262 0.866629 0.708692 -0.388219
O16   O     O_2   0.377556 0.133837 0.210193 -0.388636
O17   O     O_3   0.814264 0.482170 0.046827 -0.593103
O18   O     O_3   0.811723 0.521816 0.564272 -0.624248
O19   O     O_3   0.315776 0.983183 0.075301 -0.622403
O20   O     O_3   0.315702 0.016913 0.575202 -0.622900
O21   O     O_3   0.958117 0.302786 0.668931 -0.494576
O22   O     O_3   0.957739 0.698458 0.169698 -0.559900
O23   O     O_3   0.453069 0.803389 0.674771 -0.565345
O24   O     O_3   0.453448 0.196882 0.174678 -0.571287
H1    H     H_    0.027976 0.312812 0.532778 0.053420
H2    H     H_    0.042962 0.676230 0.173751 0.131530
H3    H     H_    0.539415 0.822569 0.676275 0.131764
H4    H     H_    0.539306 0.176318 0.186547 0.126199
C1    C     C_3   0.025535 0.243862 0.616961 -0.313711
C2    C     C_3   0.038117 0.749591 0.179722 -0.315993
C3    C     C_3   0.530960 0.749508 0.680984 -0.314241
C4    C     C_3   0.532585 0.249457 0.186264 -0.326717
H5    H     H_    0.051398 0.252987 0.723753 0.211128
H6    H     H_    0.039040 0.750000 0.306923 0.217054
H7    H     H_    0.531143 0.748653 0.808013 0.215579
H8    H     H_    0.527182 0.252524 0.311504 0.206402
P5    P     P_3+3 0.119600 0.450040 0.631910 0.416729
P6    P     P_3+3 0.119600 0.549960 0.131910 0.413618
P7    P     P_3+3 0.619600 0.950040 0.631910 0.414257
P8    P     P_3+3 0.619600 0.049960 0.131910 0.413350
P9    P     P_3+3 0.073747 0.354394 0.083421 0.454957
P10   P     P_3+3 0.072560 0.645788 0.586435 0.429731
P11   P     P_3+3 0.572350 0.853923 0.086009 0.429000
P12   P     P_3+3 0.572145 0.146097 0.587664 0.426716
O25   O     O_2   0.113920 0.434910 0.804950 -0.391435
O26   O     O_2   0.113920 0.565090 0.304950 -0.398442
O27   O     O_2   0.613920 0.934910 0.804950 -0.398844
O28   O     O_2   0.613920 0.065090 0.304950 -0.401032
O29   O     O_3   0.019410 0.395290 0.051170 -0.355002
O30   O     O_3   0.019410 0.604710 0.551170 -0.378855
O31   O     O_3   0.519410 0.895290 0.051170 -0.381756
O32   O     O_3   0.519410 0.104710 0.551170 -0.381295
O33   O     O_2   0.120412 0.366931 0.970852 -0.368107
O34   O     O_2   0.116799 0.636961 0.463137 -0.378198
O35   O     O_2   0.616828 0.862416 0.963137 -0.378231
O36   O     O_2   0.616362 0.138408 0.463331 -0.381416
O37   O     O_3   0.184809 0.481929 0.639287 -0.617567
O38   O     O_3   0.184762 0.518034 0.139417 -0.614718
O39   O     O_3   0.684828 0.981919 0.639460 -0.615025
O40   O     O_3   0.684753 0.018022 0.139481 -0.614205
O41   O     O_3   0.046155 0.303050 0.005859 -0.493955
O42   O     O_3   0.041416 0.697961 0.531368 -0.539440
O43   O     O_3   0.540883 0.801786 0.030872 -0.540623
O44   O     O_3   0.539862 0.198226 0.536818 -0.542755
C5    C     C_3   0.016662 0.279271 0.118037 0.462955
C6    C     C_3   0.992742 0.707099 0.617985 0.464315
C7    C     C_3   0.492052 0.793104 0.117268 0.466516
C8    C     C_3   0.490331 0.205470 0.622140 0.455612
C9    C     C_3   0.001956 0.231154 0.062408 -0.599503
C10   C     C_3   0.990997 0.757793 0.657791 -0.650818
C11   C     C_3   0.489694 0.742505 0.157577 -0.654843
C12   C     C_3   0.487665 0.255302 0.672362 -0.641176
C13   C     C_3   0.184070 0.473328 0.198130 0.553855
C14   C     C_3   0.184083 0.526798 0.697685 0.542825
C15   C     C_3   0.683932 0.973193 0.197323 0.553391
C16   C     C_3   0.684105 0.026856 0.697296 0.542409
C17   C     C_3   0.227323 0.443471 0.116193 -1.026464
C18   C     C_3   0.227774 0.556495 0.616862 -1.010423
C19   C     C_3   0.727459 0.943518 0.115671 -1.031188
C20   C     C_3   0.727752 0.056405 0.615841 -1.009895
H9    H     H_    0.269842 0.460880 0.111023 0.246082
H10   H     H_    0.270020 0.538706 0.610811 0.246880
H11   H     H_    0.769927 0.961042 0.111195 0.248128
H12   H     H_    0.770117 0.038724 0.610916 0.246611
Ba1   Ba    Ba6+2 0.999920 0.467660 0.844980 1.499621
Ba2   Ba    Ba6+2 0.999920 0.532340 0.344980 1.475538
Ba3   Ba    Ba6+2 0.499920 0.967660 0.844980 1.493287
Ba4   Ba    Ba6+2 0.499920 0.032340 0.344980 1.492812
C21   C     C_3   0.814972 0.525691 0.977937 0.454360
C22   C     C_3   0.803962 0.480049 0.486436 0.500558
C23   C     C_3   0.296757 0.009824 0.947668 0.578347
C24   C     C_3   0.296629 0.990109 0.447573 0.577184
C25   C     C_3   0.753257 0.537092 0.911351 -0.520036
C26   C     C_3   0.748718 0.456549 0.539003 -0.618545
C27   C     C_3   0.246930 0.042436 0.988766 -0.640482
C28   C     C_3   0.246792 0.957574 0.488656 -0.639435
O45   O     O_3   0.066460 0.522600 0.056690 -0.420683
O46   O     O_3   0.066460 0.477400 0.556690 -0.421997
O47   O     O_3   0.566460 0.022600 0.056690 -0.417745
O48   O     O_3   0.566460 0.977400 0.556690 -0.418662
P13   P     P_3+3 0.928564 0.646898 0.103601 0.406535
P14   P     P_3+3 0.927064 0.354100 0.606828 0.451080
P15   P     P_3+3 0.426555 0.145184 0.103153 0.419282
P16   P     P_3+3 0.426437 0.854966 0.602442 0.422661
C29   C     C_3   0.994632 0.286933 0.556960 0.326105
C30   C     C_3   0.014472 0.703281 0.122431 0.307190
C31   C     C_3   0.509285 0.796435 0.625530 0.301139
C32   C     C_3   0.510663 0.202619 0.131204 0.342513
H13   H     H_    0.968680 0.278496 0.449727 0.015457
H14   H     H_    0.014937 0.701640 0.995320 0.027418
H15   H     H_    0.509445 0.797928 0.498295 0.027471
H16   H     H_    0.512747 0.200357 0.004438 0.039547
C33   C     C_R   0.760878 0.287881 0.007464 0.055947
C34   C     C_R   0.761892 0.712381 0.503910 0.049504
C35   C     C_R   0.264661 0.786004 0.999831 0.044151
C36   C     C_R   0.262990 0.213083 0.502938 0.046864
C37   C     C_R   0.761864 0.329880 0.930413 -0.207997
C38   C     C_R   0.763264 0.670389 0.426302 -0.201305
C39   C     C_R   0.266129 0.827689 0.921358 -0.194374
C40   C     C_R   0.264792 0.171417 0.423970 -0.193427
C41   C     C_R   0.211834 0.747334 0.785630 -0.302474
C42   C     C_R   0.210864 0.251737 0.288082 -0.278206
C43   C     C_R   0.708396 0.249458 0.792301 -0.299999
C44   C     C_R   0.708780 0.750574 0.289268 -0.297808
C45   C     C_R   0.232389 0.748492 0.939470 0.062642
C46   C     C_R   0.230564 0.250447 0.442610 0.054287
C47   C     C_R   0.728993 0.250298 0.946145 0.061749
C48   C     C_R   0.729375 0.749733 0.443231 0.062113
C49   C     C_R   0.175222 0.713242 0.727528 0.049003
C50   C     C_R   0.174988 0.286168 0.229198 0.039213
C51   C     C_R   0.672596 0.215055 0.732674 0.043616
C52   C     C_R   0.673220 0.785167 0.229908 0.049606
C53   C     C_R   0.155772 0.678690 0.826013 -0.014929
C54   C     C_R   0.154996 0.320609 0.327353 -0.032779
C55   C     C_R   0.654119 0.179717 0.829411 -0.013270
C56   C     C_R   0.654270 0.820259 0.327473 -0.016012
C57   C     C_R   0.183752 0.675429 0.975696 -0.037399
C58   C     C_R   0.182178 0.323718 0.478016 -0.018829
C59   C     C_R   0.681889 0.176443 0.979416 -0.037046
C60   C     C_R   0.681860 0.823497 0.477638 -0.036443
C61   C     C_R   0.223348 0.709947 0.031014 0.018715
C62   C     C_R   0.221158 0.288972 0.534413 0.011991
C63   C     C_R   0.720561 0.211375 0.036506 0.018831
C64   C     C_R   0.720686 0.788636 0.534081 0.006895
C65   C     C_R   0.110829 0.647041 0.782759 0.180930
C66   C     C_R   0.110266 0.352291 0.282708 0.126925
C67   C     C_R   0.610177 0.147387 0.784293 0.185087
C68   C     C_R   0.610241 0.852532 0.282792 0.181337
C69   C     C_R   0.094585 0.614474 0.890971 -0.521540
C70   C     C_R   0.094204 0.385297 0.390332 -0.497114
C71   C     C_R   0.594365 0.114407 0.891410 -0.522637
C72   C     C_R   0.594354 0.885533 0.390361 -0.522665
C73   C     C_R   0.129162 0.605532 0.025610 0.301652
C74   C     C_R   0.128683 0.394312 0.525465 0.314001
C75   C     C_R   0.628798 0.105639 0.026308 0.301291
C76   C     C_R   0.628771 0.894354 0.525382 0.301486
C77   C     C_R   0.173915 0.637003 0.068519 -0.075171
C78   C     C_R   0.172812 0.362539 0.569767 -0.041594
C79   C     C_R   0.672790 0.137581 0.070741 -0.076299
C80   C     C_R   0.672789 0.862452 0.569307 -0.054471
C81   C     C_R   0.789544 0.284756 0.154102 0.042323
C82   C     C_R   0.791156 0.715887 0.649882 0.033525
C83   C     C_R   0.293186 0.783112 0.146654 0.043540
C84   C     C_R   0.291763 0.216242 0.649532 0.031100
C85   C     C_R   0.824627 0.321756 0.211195 0.014613
C86   C     C_R   0.827091 0.679287 0.706045 0.007354
C87   C     C_R   0.328243 0.820198 0.203543 0.012930
C88   C     C_R   0.327425 0.179448 0.705525 0.012389
C89   C     C_R   0.830997 0.361327 0.121030 -0.059731
C90   C     C_R   0.833222 0.639418 0.616263 -0.072414
C91   C     C_R   0.334098 0.860000 0.113983 -0.073152
C92   C     C_R   0.333509 0.139664 0.615439 -0.070650
C93   C     C_R   0.795769 0.365645 0.987310 -0.077871
C94   C     C_R   0.797599 0.634765 0.482005 -0.063944
C95   C     C_R   0.299617 0.863675 0.977859 -0.077450
C96   C     C_R   0.298862 0.135726 0.479575 -0.079329
H17   H     H_    0.793737 0.397004 0.926257 0.169592
H18   H     H_    0.795488 0.603692 0.417053 0.158233
H19   H     H_    0.298102 0.894098 0.911306 0.153398
H20   H     H_    0.297693 0.105341 0.412440 0.153091
C97   C     C_R   0.211317 0.630086 0.198114 -0.079808
C98   C     C_R   0.209974 0.369418 0.699978 -0.119849
C99   C     C_R   0.710065 0.130790 0.200590 -0.077639
C100  C     C_R   0.709967 0.869280 0.699357 -0.119293
C101  C     C_R   0.252534 0.662218 0.248537 -0.009875
C102  C     C_R   0.250294 0.336701 0.752045 -0.012608
C103  C     C_R   0.750302 0.163388 0.253096 -0.006819
C104  C     C_R   0.750190 0.836519 0.751278 -0.009821
C105  C     C_R   0.254041 0.705584 0.176217 -0.014230
C106  C     C_R   0.251695 0.293443 0.679805 0.019401
C107  C     C_R   0.751127 0.206972 0.182023 -0.014790
C108  C     C_R   0.751378 0.793209 0.679251 0.013518
C109  C     C_R   0.782868 0.245309 0.244653 0.055866
C110  C     C_R   0.784372 0.755440 0.740562 0.059106
C111  C     C_R   0.286313 0.743786 0.237729 0.058217
C112  C     C_R   0.284837 0.255660 0.740751 0.058081
C113  C     C_R   0.804177 0.247504 0.399036 -0.249780
C114  C     C_R   0.807373 0.754101 0.893675 -0.225773
C115  C     C_R   0.307685 0.746058 0.391869 -0.259684
C116  C     C_R   0.307762 0.254097 0.893887 -0.226638
C117  C     C_R   0.851891 0.319657 0.359827 0.006281
C118  C     C_R   0.855535 0.682149 0.853514 0.003970
C119  C     C_R   0.356031 0.817918 0.351541 -0.006763
C120  C     C_R   0.355693 0.182012 0.852985 -0.006678
C121  C     C_R   0.838533 0.283280 0.454518 -0.172994
C122  C     C_R   0.842674 0.718852 0.947777 -0.176943
C123  C     C_R   0.342404 0.781675 0.446607 -0.169722
C124  C     C_R   0.342653 0.218564 0.947855 -0.176832
C125  C     C_R   0.891468 0.353938 0.409256 0.125624
C126  C     C_R   0.895140 0.647995 0.903459 0.169277
C127  C     C_R   0.395406 0.852351 0.401187 0.153684
C128  C     C_R   0.395171 0.147636 0.902206 0.158182
C129  C     C_R   0.904416 0.389011 0.306885 -0.493410
C130  C     C_R   0.907804 0.612627 0.802108 -0.510338
C131  C     C_R   0.408028 0.887621 0.300239 -0.495254
C132  C     C_R   0.407810 0.112349 0.800878 -0.500305
C133  C     C_R   0.871707 0.395501 0.167737 0.291934
C134  C     C_R   0.874570 0.605657 0.663257 0.303693
C135  C     C_R   0.374419 0.894455 0.162516 0.275261
C136  C     C_R   0.374206 0.105461 0.663171 0.276712
H21   H     H_    0.211230 0.598412 0.258983 0.165823
H22   H     H_    0.210141 0.401155 0.760879 0.162443
H23   H     H_    0.710670 0.098870 0.260047 0.164887
H24   H     H_    0.710210 0.901023 0.760257 0.162907
H25   H     H_    0.225722 0.772030 0.704348 0.135649
H26   H     H_    0.225231 0.227064 0.206897 0.132300
H27   H     H_    0.721495 0.274786 0.712185 0.136789
H28   H     H_    0.722221 0.725387 0.208653 0.135612
H29   H     H_    0.793620 0.222555 0.482058 0.132189
H30   H     H_    0.797104 0.778974 0.977952 0.143463
H31   H     H_    0.296803 0.721319 0.475304 0.131495
H32   H     H_    0.297769 0.278996 0.978296 0.142382
H33   H     H_    0.234079 0.410958 0.178794 0.235605
H34   H     H_    0.235092 0.588811 0.680826 0.234540
H35   H     H_    0.734238 0.910966 0.178025 0.235194
H36   H     H_    0.734777 0.088955 0.678594 0.234483
H37   H     H_    0.210967 0.435009 0.998331 0.253559
H38   H     H_    0.211521 0.565547 0.499480 0.252612
H39   H     H_    0.711315 0.935107 0.997559 0.251653
H40   H     H_    0.711616 0.064946 0.497938 0.252295
N1    N     N_3   0.852898 0.526021 0.855225 -0.193229
H41   H     H_    0.843089 0.497115 0.792852 0.202887
H42   H     H_    0.896193 0.524280 0.896302 0.140792
N2    N     N_3   0.793134 0.488814 0.326035 -0.192934
H43   H     H_    0.760286 0.513166 0.312456 0.111495
H44   H     H_    0.831237 0.503170 0.292940 0.157993
N3    N     N_3   0.271403 0.980901 0.826196 -0.206993
H45   H     H_    0.241705 0.958704 0.872441 0.073046
H46   H     H_    0.302963 0.961754 0.777519 0.185448
N4    N     N_3   0.271253 0.018883 0.326181 -0.206539
H47   H     H_    0.241286 0.040956 0.372324 0.072707
H48   H     H_    0.302766 0.038167 0.278253 0.185568
N5    N     N_3   0.834017 0.561271 0.084386 -0.204599
H49   H     H_    0.875791 0.553277 0.127036 0.194468
H50   H     H_    0.805873 0.565444 0.172336 0.111366
N6    N     N_3   0.853955 0.449936 0.508678 -0.209924
H51   H     H_    0.889439 0.463987 0.457477 0.122231
H52   H     H_    0.866058 0.447205 0.624004 0.191315
N7    N     N_3   0.344431 0.036801 0.895603 -0.200662
H53   H     H_    0.374921 0.015831 0.849225 0.171317
H54   H     H_    0.365854 0.051425 0.992320 0.140254
N8    N     N_3   0.344287 0.963052 0.395393 -0.200816
H55   H     H_    0.374819 0.983978 0.349388 0.171064
H56   H     H_    0.365657 0.948482 0.492053 0.139824
H57   H     H_    0.741255 0.513347 0.816209 0.216222
H58   H     H_    0.713583 0.482217 0.546067 0.202345
H59   H     H_    0.216867 0.024539 0.063150 0.204470
H60   H     H_    0.216878 0.975517 0.563650 0.204434
H61   H     H_    0.752351 0.571927 0.862251 0.160801
H62   H     H_    0.733243 0.430783 0.452410 0.175101
H63   H     H_    0.220589 0.051699 0.882448 0.177659
H64   H     H_    0.220266 0.948360 0.382446 0.178807
N9    N     N_3   0.710349 0.533182 0.027506 -0.179398
H65   H     H_    0.669375 0.530355 0.970741 0.122728
H66   H     H_    0.709694 0.563610 0.089000 0.108140
N10   N     N_3   0.758467 0.434534 0.686933 -0.189148
H67   H     H_    0.717914 0.427912 0.729729 0.118718
H68   H     H_    0.776937 0.402861 0.666737 0.156183
N11   N     N_3   0.267778 0.084398 0.062672 -0.182556
H69   H     H_    0.232463 0.100071 0.110903 0.117448
H70   H     H_    0.281004 0.106461 0.977859 0.147543
N12   N     N_3   0.267634 0.915560 0.561577 -0.182715
H71   H     H_    0.232362 0.899937 0.609881 0.117895
H72   H     H_    0.280700 0.893489 0.476206 0.148277
N13   N     N_3   0.065151 0.225751 0.506752 -0.224634
H73   H     H_    0.095236 0.250785 0.482423 0.117871
H74   H     H_    0.041667 0.217548 0.404645 0.117768
N14   N     N_3   0.097379 0.757006 0.134756 -0.205530
H75   H     H_    0.124247 0.732844 0.190155 0.124228
H76   H     H_    0.099107 0.751856 0.016667 0.134534
N15   N     N_3   0.590294 0.741034 0.637672 -0.205203
H77   H     H_    0.617876 0.764159 0.696257 0.124521
H78   H     H_    0.593043 0.747048 0.520501 0.132986
N16   N     N_3   0.594183 0.255105 0.159468 -0.214329
H79   H     H_    0.617948 0.230632 0.222680 0.131502
H80   H     H_    0.600538 0.249422 0.043472 0.135074
H81   H     H_    0.973635 0.215024 0.145803 0.166831
H82   H     H_    0.952215 0.764399 0.724700 0.188905
H83   H     H_    0.450683 0.736375 0.223961 0.186079
H84   H     H_    0.447033 0.260735 0.732834 0.198551
H85   H     H_    0.057818 0.592763 0.862186 0.173319
H86   H     H_    0.057824 0.407283 0.360634 0.168757
H87   H     H_    0.557964 0.092408 0.861841 0.173576
H88   H     H_    0.557962 0.907539 0.361017 0.174157
N17   N     N_3   0.161458 0.713624 0.565824 -0.143186
H89   H     H_    0.199466 0.707275 0.510219 0.115410
H90   H     H_    0.146763 0.745781 0.532132 0.109670
N18   N     N_3   0.162977 0.286577 0.067017 -0.144493
H91   H     H_    0.201575 0.293514 0.015208 0.116014
H92   H     H_    0.149463 0.254344 0.031123 0.118567
N19   N     N_3   0.657822 0.216444 0.571524 -0.143947
H93   H     H_    0.695669 0.211964 0.513399 0.114938
H94   H     H_    0.641047 0.248368 0.542122 0.113307
N20   N     N_3   0.660377 0.784936 0.067780 -0.143590
H95   H     H_    0.698938 0.790539 0.013972 0.114665
H96   H     H_    0.644991 0.753018 0.033081 0.110497
H97   H     H_    0.854249 0.281741 0.573163 0.183442
H98   H     H_    0.859157 0.720986 0.065598 0.188115
H99   H     H_    0.357675 0.780199 0.565391 0.187836
H100  H     H_    0.358600 0.220392 0.066054 0.189011
H101  H     H_    0.938660 0.412681 0.339723 0.173998
H102  H     H_    0.940857 0.588337 0.837903 0.174453
H103  H     H_    0.439686 0.912924 0.337848 0.177192
H104  H     H_    0.439603 0.087130 0.837994 0.178032
H105  H     H_    0.735184 0.336606 0.827532 0.112849
H106  H     H_    0.736592 0.663568 0.323323 0.117552
H107  H     H_    0.240169 0.834050 0.816992 0.115966
H108  H     H_    0.238720 0.164915 0.319756 0.116957
N21   N     N_3   0.297340 0.646110 0.355563 -0.221634
H109  H     H_    0.336837 0.662475 0.341755 0.117795
H110  H     H_    0.283734 0.648858 0.467285 0.106648
N22   N     N_3   0.293230 0.350032 0.868343 -0.224665
H111  H     H_    0.271920 0.360198 0.965164 0.113813
H112  H     H_    0.315667 0.378043 0.828630 0.109422
N23   N     N_3   0.794975 0.147615 0.361079 -0.222355
H113  H     H_    0.834369 0.164195 0.347882 0.116418
H114  H     H_    0.780982 0.150254 0.472445 0.108736
N24   N     N_3   0.793210 0.849837 0.867379 -0.224137
H115  H     H_    0.771952 0.859984 0.964321 0.113276
H116  H     H_    0.815639 0.877844 0.827602 0.110366
N25   N     N_3   0.982878 0.209370 0.653244 -0.181795
H117  H     H_    0.005202 0.181028 0.697659 0.117188
H118  H     H_    0.960114 0.199078 0.552094 0.121298
N26   N     N_3   0.001017 0.787002 0.123698 -0.192700
H119  H     H_    0.988101 0.781579 0.008635 0.138342
H120  H     H_    0.963224 0.787090 0.184442 0.140949
N27   N     N_3   0.492822 0.713133 0.621241 -0.194040
H121  H     H_    0.481808 0.718722 0.505255 0.134273
H122  H     H_    0.454142 0.714305 0.678082 0.138596
N28   N     N_3   0.498984 0.285345 0.107488 -0.195260
H123  H     H_    0.515607 0.316559 0.146240 0.117684
H124  H     H_    0.456307 0.283979 0.141701 0.146126
N29   N     N_3   0.962454 0.301963 0.148754 -0.233758
H125  H     H_    0.973238 0.329418 0.219515 0.063614
H126  H     H_    0.943342 0.314510 0.045910 0.183352
N30   N     N_3   0.939435 0.695238 0.528494 -0.227019
H127  H     H_    0.943773 0.662811 0.482687 0.199793
H128  H     H_    0.933477 0.717370 0.435803 0.156190
N31   N     N_3   0.438935 0.805193 0.027511 -0.226685
H129  H     H_    0.444168 0.836923 0.977642 0.201865
H130  H     H_    0.431564 0.782030 0.937930 0.149917
N32   N     N_3   0.437951 0.194832 0.527061 -0.225522
H131  H     H_    0.443099 0.163319 0.474993 0.202257
H132  H     H_    0.432480 0.218708 0.439341 0.149063
H133  H     H_    0.044199 0.276241 0.226097 0.019842
H134  H     H_    0.993599 0.688241 0.728401 0.044570
H135  H     H_    0.493030 0.812164 0.227623 0.046037
H136  H     H_    0.490304 0.184711 0.728512 0.053086
H137  H     H_    0.977194 0.232343 0.949562 0.229954
H138  H     H_    0.986779 0.778440 0.551181 0.197049
H139  H     H_    0.485412 0.721573 0.051297 0.196362
H140  H     H_    0.486464 0.277948 0.570448 0.190831
N33   N     N_3   0.054381 0.203885 0.052242 -0.198686
H141  H     H_    0.071824 0.210464 0.946846 0.144150
H142  H     H_    0.041999 0.169797 0.048532 0.121383
N34   N     N_3   0.043041 0.771413 0.748756 -0.196435
H143  H     H_    0.076913 0.774200 0.675307 0.163475
H144  H     H_    0.036247 0.804323 0.788564 0.125610
N35   N     N_3   0.541404 0.728736 0.249397 -0.195654
H145  H     H_    0.575192 0.724944 0.176125 0.163400
H146  H     H_    0.533902 0.696206 0.291060 0.125688
N36   N     N_3   0.537215 0.266962 0.775829 -0.189631
H147  H     H_    0.573434 0.270455 0.710746 0.159309
H148  H     H_    0.529634 0.299289 0.819594 0.138977
N37   N     N_3   0.203429 0.475568 0.356942 -0.191449
H149  H     H_    0.246165 0.487608 0.366532 0.130127
H150  H     H_    0.178130 0.501626 0.396884 0.173013
N38   N     N_3   0.202830 0.524799 0.856903 -0.189636
H151  H     H_    0.245474 0.512582 0.867603 0.129817
H152  H     H_    0.177169 0.498956 0.896359 0.174021
N39   N     N_3   0.702832 0.975178 0.356482 -0.190410
H153  H     H_    0.745456 0.987427 0.367140 0.131422
H154  H     H_    0.677139 0.000982 0.396541 0.172558
N40   N     N_3   0.702912 0.025047 0.856538 -0.190192
H155  H     H_    0.745580 0.012887 0.867323 0.129808
H156  H     H_    0.677320 0.999201 0.896263 0.174247
N41   N     N_3   0.127358 0.451638 0.183874 -0.193227
H157  H     H_    0.098183 0.467969 0.252631 0.132923
H158  H     H_    0.111583 0.451831 0.070217 0.220807
N42   N     N_3   0.127467 0.548619 0.681901 -0.194309
H159  H     H_    0.097989 0.532554 0.750141 0.134957
H160  H     H_    0.112023 0.548268 0.568020 0.219645
N43   N     N_3   0.627279 0.951419 0.181668 -0.194727
H161  H     H_    0.597867 0.967620 0.250047 0.134345
H162  H     H_    0.611762 0.951629 0.067866 0.220100
N44   N     N_3   0.627494 0.048690 0.681452 -0.194830
H163  H     H_    0.598033 0.032591 0.749644 0.134920
H164  H     H_    0.612036 0.048340 0.567596 0.219140

loop_
_geom_bond_atom_site_label_1
_geom_bond_atom_site_label_2
_geom_bond_distance
_ccdc_geom_bond_type
C3    N15   1.462355 S    
C49   C53   1.424578 A    
N29   H125  1.039493 S    
C35   C83   1.410777 A    
C46   C62   1.413345 A    
C58   C62   1.433431 A    
O38   C13   1.416979 S    
C90   C134  1.424207 A    
P5    O37   1.773055 S    
C52   C56   1.423837 A    
C81   C85   1.431208 A    
P7    O39   1.773265 S    
P2    O2    1.589092 D    
N21   H109  1.044771 S    
P8    O40   1.772342 S    
C51   C55   1.424311 A    
P9    O33   1.544491 D    
H1    C29   1.113294 S    
C70   C74   1.410445 A    
O20   C24   1.415089 S    
C85   C117  1.411782 A    
C3    H7    1.109730 S    
C23   C27   1.556055 S    
C18   H38   1.105025 S    
P1    C133  1.900597 S    
P2    Ba2   3.454539 S    
C65   C69   1.415057 A    
O10   Ba2   2.814759 S    
N4    H48   1.031445 S    
O8    Ba3   2.847617 S    
O26   Ba2   2.843358 S    
C85   C89   1.422384 A    
C68   C72   1.414170 A    
C6    C10   1.535950 S    
P12   O36   1.548011 D    
O4    Ba4   2.840974 S    
C3    N27   1.464519 S    
C62   C106  1.422944 A    
C84   C112  1.422361 A    
C56   C68   1.431032 A    
C45   C61   1.414281 A    
P8    Ba4   3.456917 S    
C57   C61   1.433190 A    
O15   P16   1.544375 D    
C118  C126  1.413399 A    
C23   N7    1.452554 S    
C44   H28   1.080022 S    
N1    H41   1.029326 S    
C60   C80   1.421483 A    
O22   P13   1.747470 S    
C59   C79   1.420974 A    
N2    H44   1.032405 S    
C19   H35   1.112029 S    
C70   H86   1.081095 S    
C123  H99   1.077715 S    
C2    N26   1.464800 S    
C37   H105  1.078971 S    
N7    H53   1.035782 S    
N38   H152  1.037162 S    
N24   H115  1.045509 S    
N22   H111  1.045417 S    
C83   C87   1.432236 A    
C105  C111  1.437457 A    
C101  N21   1.435735 S    
O11   P16   1.736354 S    
C98   C102  1.399363 A    
C10   N34   1.458052 S    
C82   C110  1.422499 A    
C7    N31   1.461729 S    
C114  H30   1.074126 S    
C14   C18   1.538576 S    
C4    H8    1.111529 S    
C120  C124  1.401501 A    
C116  C124  1.388799 A    
C20   H40   1.104816 S    
C6    H134  1.113896 S    
C94   H18   1.076715 S    
C21   N1    1.421761 S    
C21   N5    1.452342 S    
C51   N19   1.430151 S    
C71   H87   1.081068 S    
O29   Ba1   2.816575 S    
N37   H149  1.047162 S    
O40   C15   1.417686 S    
P6    C73   1.905475 S    
N16   H79   1.046172 S    
C11   H83   1.113195 S    
N35   H145  1.042243 S    
C104  C108  1.424005 A    
C12   H84   1.113335 S    
C36   C84   1.411523 A    
C86   C90   1.423732 A    
N7    H54   1.046618 S    
C8    N32   1.461037 S    
Ba1   O45   2.840974 S    
C20   H12   1.110917 S    
Ba3   O47   2.840974 S    
O9    P14   1.738928 S    
C80   C100  1.398480 A    
O5    Ba2   2.843004 S    
C4    N28   1.462460 S    
P10   O42   1.755502 S    
C35   C39   1.410968 A    
C121  H97   1.079489 S    
N14   H76   1.045272 S    
C24   N4    1.456682 S    
C116  H32   1.073830 S    
N12   H72   1.045984 S    
O42   C6    1.414903 S    
C13   N37   1.434482 S    
O23   P16   1.747350 S    
C40   H108  1.079186 S    
N26   H119  1.044003 S    
O19   C23   1.415011 S    
C43   C47   1.399974 A    
P16   C127  1.861727 S    
P3    O7    1.574163 S    
Ba4   O48   2.845574 S    
O11   Ba3   2.808255 S    
P5    C74   1.904448 S    
C41   C45   1.399831 A    
C11   H139  1.113532 S    
P11   C68   1.884405 S    
C42   C50   1.391379 A    
P12   C67   1.884334 S    
P8    C75   1.903995 S    
C42   C46   1.400299 A    
O1    Ba1   2.842169 S    
C96   H20   1.069647 S    
N34   H143  1.042355 S    
C74   C78   1.422066 A    
P5    Ba1   3.455245 S    
N27   H121  1.043985 S    
N41   H157  1.044221 S    
N15   H78   1.044665 S    
O17   C21   1.420049 S    
C15   N43   1.456250 S    
O30   Ba2   2.810060 S    
C41   H25   1.079988 S    
C16   N40   1.434582 S    
C13   N41   1.455910 S    
P5    O46   1.580489 S    
N5    H49   1.040818 S    
C34   C38   1.412141 A    
C25   N9    1.462084 S    
P7    O48   1.580489 S    
Ba2   O46   2.845574 S    
N20   H96   1.044826 S    
C26   H62   1.115553 S    
C55   C59   1.429110 A    
O10   P13   1.740177 S    
C106  C112  1.437890 A    
O6    Ba1   2.847617 S    
C52   N20   1.430357 S    
C110  C114  1.411345 A    
C77   C97   1.399428 A    
C47   C63   1.414925 A    
C117  C121  1.401745 A    
C8    H136  1.114220 S    
O21   C29   1.405846 S    
P8    O28   1.587542 D    
O23   C31   1.404501 S    
N9    H65   1.045763 S    
P10   O34   1.546935 D    
C119  C123  1.402307 A    
O18   C22   1.412635 S    
C115  C123  1.389182 A    
C113  C121  1.390121 A    
N30   H127  1.043210 S    
P8    O47   1.579267 S    
O39   C16   1.418246 S    
N17   H90   1.044909 S    
C71   C75   1.407874 A    
C72   C76   1.407865 A    
N10   H67   1.045862 S    
C39   C95   1.386777 A    
C126  C130  1.408158 A    
Ba3   Ba4   4.770685 S    
C37   C93   1.388103 A    
O2    Ba2   2.840974 S    
P11   O35   1.547458 D    
P6    Ba2   3.456917 S    
P2    O18   1.783459 S    
C99   H23   1.076420 S    
C118  C122  1.400758 A    
C4    N16   1.463302 S    
C112  C116  1.411185 A    
C97   H21   1.076502 S    
N13   H73   1.044360 S    
N44   H163  1.044126 S    
N8    H56   1.046613 S    
P6    O26   1.587542 D    
C82   C86   1.431985 A    
C67   C71   1.413906 A    
P9    O41   1.762559 S    
C2    C30   1.543291 S    
N40   H156  1.037141 S    
P4    O8    1.575361 S    
N26   H120  1.046232 S    
C87   C119  1.411907 A    
P6    O45   1.579267 S    
C21   C25   1.544847 S    
C32   H16   1.112911 S    
C91   C135  1.425834 A    
P13   C126  1.870798 S    
C92   C136  1.425323 A    
C128  C132  1.406119 A    
C103  N23   1.435528 S    
N6    H51   1.041687 S    
C100  H24   1.075915 S    
C97   C101  1.395988 A    
C129  H101  1.080856 S    
C14   N42   1.456003 S    
C100  C104  1.398437 A    
C26   N10   1.453782 S    
O13   P14   1.545268 D    
C9    H81   1.113653 S    
C25   H57   1.108833 S    
C93   H17   1.068861 S    
C24   C28   1.556384 S    
C27   H59   1.111483 S    
C35   C45   1.418119 A    
C17   H33   1.112031 S    
C75   C79   1.422618 A    
N43   H162  1.037375 S    
C33   C47   1.418165 A    
C103  C107  1.430060 A    
N33   H142  1.045665 S    
C9    H137  1.111639 S    
C14   N38   1.434282 S    
C92   C96   1.397528 A    
P10   C65   1.884226 S    
N28   H123  1.045996 S    
N11   H69   1.045570 S    
C83   C111  1.422548 A    
C22   N2    1.433374 S    
C17   H9    1.110936 S    
C88   C92   1.423000 A    
C107  C109  1.437904 A    
C19   H11   1.110935 S    
C16   C20   1.538162 S    
C89   C133  1.421633 A    
C38   H106  1.079336 S    
C7    H135  1.113977 S    
N3    H45   1.046356 S    
O24   C32   1.404790 S    
P1    O17   1.784290 S    
H2    C30   1.112810 S    
P1    O1    1.586964 D    
C76   C80   1.422022 A    
C43   C51   1.390531 A    
C86   C118  1.414585 A    
P3    O3    1.586964 D    
C44   C52   1.392133 A    
P4    O20   1.786816 S    
N24   H116  1.045809 S    
C22   C26   1.544490 S    
C19   H39   1.104576 S    
P2    C134  1.898919 S    
C24   N8    1.452294 S    
P3    Ba3   3.456175 S    
P9    C66   1.891751 S    
C17   H37   1.104323 S    
N32   H131  1.043850 S    
O31   Ba3   2.816575 S    
O12   P15   1.737106 S    
O27   Ba3   2.842147 S    
P3    O19   1.786074 S    
C33   C81   1.411143 A    
C4    C32   1.538520 S    
P3    C135  1.897242 S    
N31   H129  1.043562 S    
C5    C9    1.531493 S    
C5    N29   1.456641 S    
N25   H118  1.046455 S    
C90   C94   1.400020 A    
C61   C105  1.423358 A    
C60   C64   1.433807 A    
P6    O38   1.772312 S    
C28   H64   1.115306 S    
C117  C125  1.413359 A    
N19   H93   1.043025 S    
N29   H126  1.046546 S    
C111  C115  1.408882 A    
N16   H80   1.045109 S    
C49   N17   1.430178 S    
O21   P14   1.749216 S    
N21   H110  1.044927 S    
C122  H98   1.078513 S    
C95   H19   1.070204 S    
P1    O5    1.574163 S    
C129  C133  1.407444 A    
C108  C110  1.436942 A    
C54   C58   1.428207 A    
C23   N3    1.456752 S    
N15   H77   1.046095 S    
C27   H63   1.115298 S    
C18   H10   1.110903 S    
C1    H5    1.111166 S    
C15   N39   1.434366 S    
C115  H31   1.072659 S    
N4    H47   1.046368 S    
C127  C131  1.406928 A    
C113  H29   1.072394 S    
N23   H113  1.044773 S    
C11   N35   1.457791 S    
C39   H107  1.078942 S    
O3    Ba3   2.842169 S    
P10   O30   1.739223 S    
C119  C127  1.414147 A    
N18   H91   1.042281 S    
P12   O44   1.755975 S    
C5    H133  1.111394 S    
C12   H140  1.113542 S    
C104  N24   1.432742 S    
O12   Ba4   2.814759 S    
N1    H42   1.043570 S    
O28   Ba4   2.843358 S    
C73   C77   1.422864 A    
N2    H43   1.046373 S    
N34   H144  1.045429 S    
C28   H60   1.111446 S    
C38   C94   1.388464 A    
C53   C57   1.428519 A    
H4    C32   1.112732 S    
C12   N36   1.457520 S    
C56   C60   1.428240 A    
N42   H160  1.037529 S    
N38   H151  1.047179 S    
C58   C78   1.419919 A    
C1    N13   1.464585 S    
N39   H153  1.047155 S    
N27   H122  1.046210 S    
N22   H112  1.045792 S    
C9    N33   1.459482 S    
C131  H103  1.082154 S    
N36   H147  1.042386 S    
C15   C19   1.536837 S    
P7    O27   1.589666 D    
C124  H100  1.077511 S    
O41   C5    1.412459 S    
N18   H92   1.043030 S    
C10   H82   1.113168 S    
O43   C7    1.415097 S    
C69   C73   1.408738 A    
C131  C135  1.408843 A    
C84   C88   1.432352 A    
N37   H150  1.036947 S    
Ba1   Ba2   4.770685 S    
C132  H104  1.082149 S    
P4    Ba4   3.454539 S    
C1    N25   1.463896 S    
C57   C77   1.421348 A    
P1    Ba1   3.456175 S    
C28   N12   1.463849 S    
Ba1   O46   3.037117 S    
N11   H70   1.045953 S    
N36   H148  1.045158 S    
Ba3   O48   3.037117 S    
P4    O4    1.589092 D    
N30   H128  1.044462 S    
N17   H89   1.043079 S    
C54   C66   1.430744 A    
C59   C63   1.433629 A    
C72   H88   1.081057 S    
C36   C46   1.418020 A    
N14   H75   1.046090 S    
C42   H26   1.080192 S    
N10   H68   1.045806 S    
C81   C109  1.422241 A    
N12   H71   1.045579 S    
C69   H85   1.081175 S    
N3    H46   1.031530 S    
O24   P15   1.747756 S    
C79   C99   1.398945 A    
C55   C67   1.430807 A    
C33   C37   1.412553 A    
Ba4   O47   3.035839 S    
O7    Ba4   2.843004 S    
P5    O25   1.589666 D    
P15   C128  1.862079 S    
N43   H161  1.044169 S    
C63   C107  1.424543 A    
C130  H102  1.080272 S    
C13   C17   1.536856 S    
O22   C30   1.402293 S    
N44   H164  1.037416 S    
O44   C8    1.415348 S    
O16   P15   1.544835 D    
C120  C128  1.414539 A    
N31   H130  1.044403 S    
C53   C65   1.430079 A    
C20   H36   1.112095 S    
C114  C122  1.388188 A    
C44   C48   1.401046 A    
P11   O43   1.756024 S    
N41   H158  1.037926 S    
C64   C108  1.423144 A    
C130  C134  1.412457 A    
C2    N14   1.460785 S    
C22   N6    1.460493 S    
N19   H94   1.045395 S    
C48   C64   1.414623 A    
C88   C120  1.412360 A    
C34   C48   1.419880 A    
N6    H52   1.033355 S    
P7    C76   1.904013 S    
C78   C98   1.399569 A    
C125  C129  1.412476 A    
C91   C95   1.397193 A    
P4    C136  1.894333 S    
C87   C91   1.423498 A    
C34   C82   1.412239 A    
P7    Ba3   3.455245 S    
N5    H50   1.040784 S    
N35   H146  1.045370 S    
Ba2   O45   3.035839 S    
N20   H95   1.043061 S    
C101  C105  1.429792 A    
C109  C113  1.410346 A    
C98   H22   1.075789 S    
C89   C93   1.390883 A    
O37   C14   1.418139 S    
C43   H27   1.080006 S    
C8    C12   1.535638 S    
C16   N44   1.456121 S    
N33   H141  1.044148 S    
N23   H114  1.044922 S    
N28   H124  1.046094 S    
N9    H66   1.045689 S    
C6    N30   1.461794 S    
C1    C29   1.535844 S    
P2    O6    1.575361 S    
C132  C136  1.408124 A    
C3    C31   1.541973 S    
P11   O31   1.741776 S    
C41   C49   1.390310 A    
N42   H159  1.044204 S    
P12   O32   1.740463 S    
P14   C125  1.868832 S    
C30   H14   1.111930 S    
H3    C31   1.112828 S    
O9    Ba1   2.808255 S    
C2    H6    1.110156 S    
C99   C103  1.395709 A    
O25   Ba1   2.842147 S    
C50   C54   1.421642 A    
C26   H58   1.113503 S    
C29   H13   1.110608 S    
O14   P13   1.546260 D    
C7    C11   1.536558 S    
N39   H154  1.037119 S    
C102  N22   1.432731 S    
C18   H34   1.112132 S    
N13   H74   1.045026 S    
C10   H138  1.113723 S    
N32   H132  1.044542 S    
C40   C96   1.386345 A    
N8    H55   1.035775 S    
C102  C106  1.423705 A    
P9    O29   1.751712 S    
O32   Ba4   2.810060 S    
C66   C70   1.415807 A    
N40   H155  1.047164 S    
C31   H15   1.112617 S    
N25   H117  1.045962 S    
C25   H61   1.114505 S    
C36   C40   1.410025 A    
C50   N18   1.428113 S    
C27   N11   1.463795 S    
