data_mof_unit_14120.cif
_audit_creation_date              2012-12-10T18:44:28-0500
_audit_creation_method            fapswitch 2.2
_symmetry_space_group_name_H-M    P1
_symmetry_Int_Tables_number       1
_space_group_crystal_system       triclinic
_cell_length_a                    12.899881
_cell_length_b                    10.586896
_cell_length_c                    9.915865
_cell_angle_alpha                 89.542946
_cell_angle_beta                  97.363263
_cell_angle_gamma                 90.731291
_cell_volume                      1342.90243328

loop_
_atom_site_label
_atom_site_type_symbol
_atom_type_description
_atom_site_fract_x
_atom_site_fract_y
_atom_site_fract_z
_atom_type_partial_charge
C1    C     C_R   0.502174 0.260894 0.500872 1.009617
C2    C     C_R   0.700834 0.489185 0.526485 0.917622
C3    C     C_R   0.812054 0.471693 0.543349 -0.217493
C4    C     C_R   0.184963 0.499227 0.460430 -0.249482
C5    C     C_R   0.020905 0.453586 0.323126 0.602411
C6    C     C_R   0.975846 0.496516 0.685243 0.575295
C7    C     C_R   0.128368 0.470681 0.335137 -0.402851
C8    C     C_R   0.868429 0.496936 0.669729 -0.423949
C9    C     C_R   0.133752 0.517600 0.575837 0.497291
C10   C     C_R   0.862534 0.431851 0.433568 0.503113
C11   C     C_R   0.027036 0.491189 0.567969 -0.199330
C12   C     C_R   0.499527 0.739443 0.499155 0.979703
C13   C     C_R   0.969808 0.457583 0.440568 -0.179954
C14   C     C_R   0.405823 0.065452 0.489888 -0.042069
C15   C     C_R   0.596796 0.935654 0.507674 -0.045402
C16   C     C_R   0.404619 0.934986 0.480700 0.445342
C17   C     C_R   0.597952 0.066449 0.512853 0.440628
C18   C     C_3   0.761566 0.367204 0.232551 -0.112690
C19   C     C_3   0.189673 0.687416 0.705092 -0.189437
C20   C     C_3   0.953120 0.553595 0.129540 -0.393951
C21   C     C_3   0.046960 0.388722 0.871004 -0.245957
C22   C     C_3   0.277111 0.847314 0.329021 -0.351795
C23   C     C_R   0.500358 0.872110 0.496323 -0.192111
C24   C     C_3   0.730842 0.160124 0.651728 -0.323511
C25   C     C_3   0.672173 0.724225 0.184279 -0.205541
C26   C     C_3   0.492022 0.190159 0.879585 -0.231862
C27   C     C_3   0.676935 0.702994 0.855814 -0.207697
C28   C     C_3   0.303254 0.305547 0.093684 -0.214658
C29   C     C_R   0.502144 0.128744 0.502395 -0.234354
C30   C     C_R   0.538393 0.601791 0.077515 0.356939
C31   C     C_R   0.463538 0.397142 0.922866 0.375419
C32   C     C_R   0.538136 0.601758 0.933772 0.375890
C33   C     C_R   0.458798 0.400112 0.066516 0.332386
C34   C     C_R   0.297970 0.502163 0.473775 0.944289
H1    H     H_    0.829674 0.515628 0.757807 0.183067
H2    H     H_    0.915552 0.622653 0.191625 0.137158
H3    H     H_    0.900660 0.540849 0.032792 0.203191
H4    H     H_    0.095725 0.331583 0.810003 0.167898
H5    H     H_    0.972090 0.338322 0.881607 0.149512
H6    H     H_    0.090430 0.398560 0.974259 0.193879
H7    H     H_    0.263675 0.118886 0.395926 0.195639
H8    H     H_    0.270873 0.100141 0.566714 0.221930
H9    H     H_    0.739419 0.886425 0.602568 0.185150
H10   H     H_    0.731654 0.899609 0.431797 0.216828
H11   H     H_    0.199404 0.799729 0.319663 0.183907
H12   H     H_    0.167077 0.461621 0.245435 0.185483
H13   H     H_    0.330896 0.783753 0.283787 0.207500
H14   H     H_    0.268345 0.936843 0.269454 0.167762
H15   H     H_    0.729898 0.076335 0.720168 0.135156
H16   H     H_    0.687010 0.238250 0.690966 0.170800
H17   H     H_    0.813341 0.192199 0.655155 0.204086
H18   H     H_    0.695506 0.823880 0.168273 0.165426
H19   H     H_    0.720030 0.663996 0.125730 0.075310
H20   H     H_    0.692420 0.702644 0.293675 0.187738
H21   H     H_    0.480320 0.147319 0.979050 0.196416
H22   H     H_    0.575840 0.216416 0.878649 0.112638
H23   H     H_    0.762974 0.470300 0.212196 0.118088
H24   H     H_    0.472331 0.116194 0.801577 0.185846
H25   H     H_    0.686721 0.717082 0.747507 0.195001
H26   H     H_    0.715439 0.612604 0.890798 0.087558
H27   H     H_    0.719360 0.781882 0.912509 0.139725
H28   H     H_    0.280660 0.254518 0.996811 0.182734
H29   H     H_    0.272445 0.403530 0.084884 0.137981
H30   H     H_    0.265110 0.256073 0.173541 0.162730
H31   H     H_    0.679463 0.334683 0.232379 0.180971
H32   H     H_    0.791474 0.318324 0.147098 0.171401
H33   H     H_    0.109062 0.725770 0.694790 0.144375
H34   H     H_    0.233566 0.728981 0.626424 0.198282
H35   H     H_    0.230168 0.716465 0.805733 0.181238
H36   H     H_    0.028837 0.592454 0.104306 0.203893
N1    N     N_R   0.499970 0.499970 0.857200 -0.201480
N2    N     N_R   0.500030 0.500030 0.142800 -0.215195
N3    N     N_3   0.310556 0.134610 0.488264 -0.428045
N4    N     N_3   0.692317 0.866848 0.511291 -0.474863
O1    O     O_R   0.499990 0.316750 0.614620 -0.596718
O2    O     O_3   0.189082 0.554495 0.698640 -0.552222
O3    O     O_3   0.966554 0.435087 0.195523 -0.611746
O4    O     O_3   0.028978 0.510376 0.814460 -0.590153
O5    O     O_3   0.310669 0.869038 0.468120 -0.652648
O6    O     O_3   0.691464 0.132781 0.515524 -0.577787
O7    O     O_3   0.563013 0.712458 0.147920 -0.540809
O8    O     O_3   0.425114 0.293763 0.847281 -0.554602
O9    O     O_3   0.569565 0.709767 0.870675 -0.545623
O10   O     O_3   0.412500 0.302269 0.130746 -0.565931
O11   O     O_R   0.500010 0.683250 0.385380 -0.582793
O12   O     O_R   0.499990 0.316780 0.385290 -0.559157
O13   O     O_R   0.500010 0.683220 0.614710 -0.571210
O14   O     O_R   0.346360 0.499970 0.595710 -0.536519
O15   O     O_R   0.653640 0.500030 0.404290 -0.642979
O16   O     O_R   0.346360 0.499990 0.366380 -0.626478
O17   O     O_R   0.653640 0.500010 0.633620 -0.653736
O18   O     O_3   0.820745 0.329867 0.355856 -0.558333
Zn1   Zn    Zn3+2 0.500000 0.499980 0.653120 1.017467
Zn2   Zn    Zn3+2 0.500000 0.500020 0.346880 0.993411

loop_
_geom_bond_atom_site_label_1
_geom_bond_atom_site_label_2
_ccdc_geom_bond_type
C22   H14   S    
C28   O10   S    
C17   C29   A    
C26   H21   S    
C18   H31   S    
C12   C23   S    
C31   O8    S    
C12   O11   A    
C19   O2    S    
C25   H19   S    
C22   O5    S    
C27   H26   S    
C6    O4    S    
C1    O12   A    
O15   Zn2   S    
O12   Zn2   S    
C33   N2    A    
C24   O6    S    
C21   H4    S    
C21   O4    S    
C31   C33   A    
C19   H33   S    
C9    O2    S    
C27   H27   S    
C5    C13   A    
N2    Zn2   S    
H9    N4    S    
C15   C23   A    
C22   H13   S    
C10   O18   S    
C26   O8    S    
C25   O7    S    
C20   H36   S    
C4    C7    A    
O16   Zn2   S    
C32   N1    A    
C24   H16   S    
C4    C34   S    
C1    O1    A    
C7    H12   S    
C25   H20   S    
C3    C8    A    
C6    C11   A    
C5    C7    A    
C6    C8    A    
C17   O6    S    
C8    H1    S    
C2    O15   A    
C34   O16   A    
O17   Zn1   S    
C26   H24   S    
O11   Zn2   S    
C18   H23   S    
C21   H5    S    
C15   N4    S    
C1    C29   S    
C19   H34   S    
C34   O14   A    
H10   N4    S    
C9    C11   A    
C20   O3    S    
C14   N3    S    
C16   C23   A    
C14   C16   A    
C19   H35   S    
C14   C29   A    
C5    O3    S    
C28   H30   S    
O1    Zn1   S    
C24   H15   S    
C15   C17   A    
C32   O9    S    
O14   Zn1   S    
H8    N3    S    
C12   O13   A    
C10   C13   A    
C26   H22   S    
C30   N2    A    
N1    Zn1   S    
C18   H32   S    
C16   O5    S    
C18   O18   S    
C30   O7    S    
C27   O9    S    
C2    C3    S    
C25   H18   S    
C3    C10   A    
C27   H25   S    
C30   C32   A    
C20   H3    S    
C11   C13   A    
C21   H6    S    
C24   H17   S    
O13   Zn1   S    
C31   N1    A    
C2    O17   A    
C33   O10   S    
H7    N3    S    
C20   H2    S    
C28   H29   S    
C22   H11   S    
C4    C9    A    
C28   H28   S    
