data_mof_unit_10634.cif
_audit_creation_date              2012-12-10T22:11:06-0500
_audit_creation_method            fapswitch 2.2
_symmetry_space_group_name_H-M    P1
_symmetry_Int_Tables_number       1
_space_group_crystal_system       triclinic
_cell_length_a                    12.12367
_cell_length_b                    12.245783
_cell_length_c                    23.054334
_cell_angle_alpha                 91.083857
_cell_angle_beta                  91.510272
_cell_angle_gamma                 93.038887
_cell_volume                      3416.02688034

loop_
_atom_site_label
_atom_site_type_symbol
_atom_type_description
_atom_site_fract_x
_atom_site_fract_y
_atom_site_fract_z
_atom_type_partial_charge
C1    C     C_R   0.660270 0.000765 0.578211 0.904143
C2    C     C_R   0.342775 0.998948 0.419598 0.898647
C3    C     C_R   0.901473 0.812871 0.122439 -0.235417
C4    C     C_R   0.096421 0.187439 0.877021 -0.233565
C5    C     C_R   0.088943 0.878314 0.187953 -0.165543
C6    C     C_R   0.912554 0.133103 0.806024 -0.163868
C7    C     C_R   0.096710 0.792459 0.148150 0.079419
C8    C     C_R   0.904920 0.217094 0.847003 0.079411
C9    C     C_R   0.894382 0.167663 0.196326 -0.177761
C10   C     C_R   0.102196 0.828308 0.801137 -0.180869
C11   C     C_R   0.897740 0.247803 0.154950 -0.199395
C12   C     C_R   0.098993 0.748105 0.842529 -0.200887
C13   C     C_R   0.099107 0.900168 0.319210 0.472674
C14   C     C_R   0.913735 0.093503 0.671304 0.474164
C15   C     C_R   0.195534 0.893158 0.355568 -0.032629
C16   C     C_R   0.829041 0.096812 0.627458 -0.037533
C17   C     C_R   0.877589 0.098136 0.326049 -0.175210
C18   C     C_R   0.120816 0.902494 0.673171 -0.184203
C19   C     C_R   0.801169 0.095479 0.368940 -0.290517
C20   C     C_R   0.197587 0.904988 0.630409 -0.288444
C21   C     C_3   0.983797 0.011011 0.248075 -0.049126
C22   C     C_3   0.015570 0.990153 0.751293 -0.042570
C23   C     C_R   0.650608 0.002828 0.419259 0.920683
C24   C     C_R   0.349284 0.997115 0.580679 0.930192
C25   C     C_R   0.079485 0.002262 0.292729 0.018686
C26   C     C_R   0.920883 0.997691 0.705730 0.012109
C27   C     C_R   0.254909 0.992854 0.374127 -0.105173
C28   C     C_R   0.750802 0.005868 0.621303 -0.101528
C29   C     C_R   0.883050 0.010006 0.286184 0.111364
C30   C     C_R   0.117391 0.989402 0.713943 0.109412
C31   C     C_R   0.725592 0.006477 0.371874 -0.107025
C32   C     C_R   0.274458 0.993156 0.628109 -0.111286
C33   C     C_R   0.990712 0.114186 0.212001 0.102026
C34   C     C_R   0.008305 0.888517 0.788970 0.102637
C35   C     C_R   0.996623 0.274845 0.127574 -0.026397
C36   C     C_R   0.002944 0.727261 0.873399 -0.023933
C37   C     C_R   0.987017 0.920775 0.201663 0.160010
C38   C     C_R   0.012584 0.083465 0.795891 0.154272
C39   C     C_R   0.998806 0.756975 0.115989 -0.079249
C40   C     C_R   0.001053 0.246619 0.882004 -0.081809
C41   C     C_R   0.995325 0.663891 0.075059 0.867772
C42   C     C_R   0.004655 0.337109 0.924410 0.870013
C43   C     C_R   0.998350 0.353704 0.081623 0.870217
C44   C     C_R   0.001581 0.646910 0.918653 0.866609
C45   C     C_R   0.142925 0.096631 0.310454 -0.281804
C46   C     C_R   0.845959 0.908077 0.694882 -0.289992
C47   C     C_R   0.226954 0.092173 0.350974 -0.229254
C48   C     C_R   0.760785 0.913696 0.655056 -0.228254
C49   C     C_R   0.802243 0.923189 0.287476 -0.210608
C50   C     C_R   0.200002 0.074772 0.713532 -0.200452
C51   C     C_R   0.721528 0.922013 0.329722 0.455540
C52   C     C_R   0.279691 0.076597 0.670834 0.458217
C53   C     C_R   0.089952 0.143466 0.184300 -0.167131
C54   C     C_R   0.912323 0.866519 0.820950 -0.167359
C55   C     C_R   0.093189 0.223992 0.143176 -0.197693
C56   C     C_R   0.909083 0.785579 0.861949 -0.196251
C57   C     C_R   0.896353 0.895451 0.163987 -0.203140
C58   C     C_R   0.101058 0.105000 0.835512 -0.204488
H1    H     H_    0.270783 0.168448 0.364066 0.178228
H2    H     H_    0.703406 0.843063 0.649637 0.176006
H3    H     H_    0.801177 0.855900 0.257016 0.143064
H4    H     H_    0.202010 0.141824 0.744286 0.141763
H5    H     H_    0.164708 0.101626 0.193209 0.136082
H6    H     H_    0.840150 0.913836 0.814953 0.137188
H7    H     H_    0.820608 0.937782 0.167628 0.140962
H8    H     H_    0.174707 0.058873 0.833679 0.143884
H9    H     H_    0.162924 0.911459 0.209860 0.108548
H10   H     H_    0.839435 0.105327 0.781588 0.115823
H11   H     H_    0.814657 0.144523 0.213633 0.140794
H12   H     H_    0.180547 0.845491 0.781011 0.143420
H13   H     H_    0.936150 0.167859 0.325429 0.153032
H14   H     H_    0.059660 0.834690 0.672877 0.158029
H15   H     H_    0.170424 0.243370 0.122125 0.155767
H16   H     H_    0.834347 0.771386 0.886054 0.154644
H17   H     H_    0.828164 0.791651 0.095876 0.170417
H18   H     H_    0.168098 0.204860 0.905394 0.170211
H19   H     H_    0.822098 0.286335 0.143291 0.155807
H20   H     H_    0.172594 0.703973 0.851177 0.154331
H21   H     H_    0.802881 0.162039 0.400683 0.172073
H22   H     H_    0.194646 0.839493 0.598018 0.172877
H23   H     H_    0.124864 0.176765 0.295115 0.166931
H24   H     H_    0.853353 0.830746 0.715897 0.173842
O1    O     O_R   0.621380 0.090460 0.561410 -0.632830
O2    O     O_R   0.378620 0.909540 0.438590 -0.630082
O3    O     O_R   0.617150 0.909540 0.438590 -0.592886
O4    O     O_R   0.382850 0.090460 0.561410 -0.591189
O5    O     O_R   0.619720 0.093230 0.440890 -0.646499
O6    O     O_R   0.380280 0.906770 0.559110 -0.643465
O7    O     O_R   0.618800 0.906770 0.559110 -0.631960
O8    O     O_R   0.381200 0.093230 0.440890 -0.631353
O9    O     O_R   0.087590 0.627480 0.058790 -0.641804
O10   O     O_R   0.912410 0.372520 0.941210 -0.641503
O11   O     O_R   0.905660 0.383870 0.059980 -0.625928
O12   O     O_R   0.094340 0.616130 0.940020 -0.625415
O13   O     O_R   0.092570 0.390420 0.063230 -0.631379
O14   O     O_R   0.907430 0.609580 0.936770 -0.631478
O15   O     O_R   0.900680 0.620930 0.055550 -0.622053
O16   O     O_R   0.099320 0.379070 0.944450 -0.621376
Zn1   Zn    Zn3+2 0.501730 0.123520 0.501540 0.934877
Zn2   Zn    Zn3+2 0.498270 0.876480 0.498460 0.936436
Zn3   Zn    Zn3+2 0.125690 0.504390 0.002180 0.927646
Zn4   Zn    Zn3+2 0.874310 0.495610 0.997820 0.927300
O17   O     O_3   0.010788 0.821144 0.319107 -0.620985
C59   C     C_3   0.034905 0.717438 0.295775 0.093431
H25   H     H_    0.055330 0.662310 0.331586 0.166645
H26   H     H_    0.102152 0.721620 0.264090 0.132870
C60   C     C_3   0.933066 0.661451 0.266093 -0.877518
H27   H     H_    0.902106 0.710493 0.230140 0.265688
H28   H     H_    0.954267 0.580803 0.247926 0.213769
H29   H     H_    0.867406 0.647616 0.298047 0.235685
O18   O     O_3   0.001565 0.172318 0.674747 -0.632120
C61   C     C_3   0.968176 0.276569 0.692698 0.095266
H30   H     H_    0.892426 0.272656 0.718757 0.127004
H31   H     H_    0.955375 0.327404 0.654319 0.173241
C62   C     C_3   0.060168 0.338095 0.728061 -0.872203
H32   H     H_    0.131404 0.357367 0.700203 0.230387
H33   H     H_    0.029972 0.416224 0.745064 0.214891
H34   H     H_    0.087709 0.289862 0.765179 0.269500
O19   O     O_3   0.630274 0.848368 0.326547 -0.618618
C63   C     C_3   0.662573 0.739463 0.327792 0.117316
H35   H     H_    0.732267 0.729453 0.359497 0.150784
H36   H     H_    0.685722 0.712420 0.283691 0.136827
C64   C     C_3   0.564933 0.665968 0.346011 -0.834536
H37   H     H_    0.494131 0.672608 0.314918 0.249880
H38   H     H_    0.588554 0.579611 0.346653 0.200812
H39   H     H_    0.539265 0.690470 0.390082 0.258491
O20   O     O_3   0.370002 0.151357 0.673485 -0.616823
C65   C     C_3   0.335723 0.259567 0.671175 0.120501
H40   H     H_    0.313198 0.287977 0.715149 0.135906
H41   H     H_    0.264829 0.267256 0.639906 0.153038
C66   C     C_3   0.431431 0.333820 0.651286 -0.832482
H42   H     H_    0.455443 0.308527 0.607053 0.258005
H43   H     H_    0.406462 0.419723 0.650312 0.199131
H44   H     H_    0.503758 0.329035 0.681549 0.251969
C67   C     C_3   0.207036 0.737943 0.141784 -0.395960
C68   C     C_3   0.304072 0.779716 0.182333 -0.394043
C69   C     C_3   0.405781 0.713554 0.173527 -0.876039
H45   H     H_    0.387195 0.626369 0.183833 0.255637
H46   H     H_    0.432824 0.719258 0.127971 0.258491
H47   H     H_    0.474402 0.746300 0.202826 0.264936
H48   H     H_    0.326900 0.866683 0.173129 0.229620
H49   H     H_    0.280667 0.772784 0.228437 0.213611
H50   H     H_    0.192466 0.649254 0.150084 0.217961
H51   H     H_    0.234660 0.749211 0.096601 0.229819
C70   C     C_3   0.796201 0.274780 0.852647 -0.392894
C71   C     C_3   0.699856 0.237893 0.810540 -0.390322
C72   C     C_3   0.599156 0.305104 0.820190 -0.875174
H52   H     H_    0.570992 0.296619 0.865423 0.257983
H53   H     H_    0.619463 0.392789 0.811733 0.256445
H54   H     H_    0.530641 0.275432 0.790031 0.264548
H55   H     H_    0.724721 0.248130 0.764880 0.214820
H56   H     H_    0.675119 0.150525 0.817608 0.229696
H57   H     H_    0.765736 0.261349 0.897124 0.229874
H58   H     H_    0.813955 0.363707 0.846248 0.217483
C73   C     C_3   0.235586 0.781856 0.372718 -0.372203
C74   C     C_3   0.184925 0.742480 0.429574 -0.283190
C75   C     C_3   0.228041 0.632638 0.446917 -0.910436
H59   H     H_    0.206333 0.569576 0.412651 0.253862
H60   H     H_    0.319234 0.639906 0.453678 0.261066
H61   H     H_    0.190095 0.606262 0.488025 0.247278
H62   H     H_    0.204831 0.803132 0.465225 0.234438
H63   H     H_    0.093503 0.734164 0.424628 0.223812
H64   H     H_    0.222995 0.720186 0.337718 0.139761
H65   H     H_    0.326642 0.781008 0.374073 0.231673
C76   C     C_3   0.835070 0.186023 0.581845 -0.362753
C77   C     C_3   0.764792 0.284946 0.595736 -0.323947
C78   C     C_3   0.796961 0.382228 0.558110 -0.929434
H66   H     H_    0.884888 0.409485 0.566305 0.257135
H67   H     H_    0.784111 0.359496 0.511446 0.266805
H68   H     H_    0.744736 0.451435 0.568467 0.251721
H69   H     H_    0.675620 0.265941 0.588012 0.258180
H70   H     H_    0.772771 0.310210 0.642035 0.186963
H71   H     H_    0.922674 0.214121 0.576330 0.213933
H72   H     H_    0.810504 0.151328 0.538258 0.196455

loop_
_geom_bond_atom_site_label_1
_geom_bond_atom_site_label_2
_ccdc_geom_bond_type
C16   C28   A    
C77   H70   S    
C76   C77   S    
C5    C37   A    
C17   C29   A    
C53   C55   A    
C2    O2    A    
C8    C70   S    
C5    H9    S    
C66   H44   S    
C19   C31   A    
C65   H40   S    
C59   H26   S    
C70   C71   S    
C67   C68   S    
C39   C41   S    
C29   C49   A    
C69   H46   S    
C75   H59   S    
C36   C56   A    
C74   C75   S    
C72   H53   S    
C9    H11   S    
O14   Zn4   S    
C42   O16   A    
C64   H38   S    
C21   C33   S    
C76   H71   S    
C62   H32   S    
C22   C38   S    
C18   C20   A    
C50   C52   A    
C2    O8    A    
C59   H25   S    
C68   H49   S    
C11   H19   S    
C43   O11   A    
C46   H24   S    
C15   C27   A    
C58   H8    S    
C32   C52   A    
C72   H52   S    
O12   Zn3   S    
C49   C51   A    
C18   H14   S    
C12   H20   S    
C1    C28   S    
C51   O19   S    
C60   H27   S    
C6    C38   A    
C2    C27   S    
C18   C30   A    
C14   C16   A    
C12   C36   A    
C3    H17   S    
C15   C73   S    
O15   Zn4   S    
C63   C64   S    
O10   Zn4   S    
C70   H57   S    
C6    H10   S    
C30   C50   A    
C74   H63   S    
C77   H69   S    
C75   H60   S    
O1    Zn1   S    
C9    C33   A    
C60   H28   S    
C13   C25   A    
O9    Zn3   S    
C61   H31   S    
C61   H30   S    
C52   O20   S    
C63   H36   S    
C48   H2    S    
C78   H68   S    
C46   C48   A    
C45   C47   A    
C33   C53   A    
C14   O18   S    
C22   C34   S    
C69   H47   S    
C54   C56   A    
C56   H16   S    
C20   H22   S    
O7    Zn2   S    
C35   C55   A    
O2    Zn2   S    
C4    C40   A    
C64   H37   S    
C72   H54   S    
C49   H3    S    
C78   H67   S    
C57   H7    S    
C78   H66   S    
C5    C7    A    
C64   H39   S    
C6    C8    A    
C62   H33   S    
C76   H72   S    
C21   C29   S    
C23   C31   S    
C24   C32   S    
C7    C67   S    
C68   H48   S    
C44   O14   A    
C9    C11   A    
C43   O13   A    
C16   C76   S    
C62   H34   S    
C10   C34   A    
C38   C58   A    
C14   C26   A    
C19   H21   S    
O4    Zn1   S    
C24   O6    A    
O6    Zn2   S    
C10   C12   A    
C71   H56   S    
C70   H58   S    
C10   H12   S    
C67   H51   S    
C41   O9    A    
C74   H62   S    
C17   H13   S    
C75   H61   S    
C13   C15   A    
C23   O3    A    
C77   C78   S    
C50   H4    S    
C60   H29   S    
C41   O15   A    
C36   C44   S    
C13   O17   S    
C66   H42   S    
C65   C66   S    
C25   C45   A    
O8    Zn1   S    
C73   C74   S    
C35   C43   S    
C63   H35   S    
C71   C72   S    
C20   C32   A    
C27   C47   A    
C21   C25   S    
C28   C48   A    
C1    O7    A    
C22   C30   S    
O18   C61   S    
C45   H23   S    
C31   C51   A    
C68   C69   S    
C66   H43   S    
C65   H41   S    
O11   Zn4   S    
O19   C63   S    
C34   C54   A    
C73   H65   S    
C1    O1    A    
O16   Zn3   S    
C69   H45   S    
C73   H64   S    
C11   C35   A    
O3    Zn2   S    
C53   H5    S    
C54   H6    S    
C40   C42   S    
C67   H50   S    
C17   C19   A    
C3    C57   A    
C42   O10   A    
C61   C62   S    
C4    H18   S    
C44   O12   A    
C26   C46   A    
C47   H1    S    
C71   H55   S    
C55   H15   S    
O5    Zn1   S    
O13   Zn3   S    
C21   C37   S    
C22   C26   S    
C4    C58   A    
O17   C59   S    
C7    C39   A    
C23   O5    A    
C8    C40   A    
C24   O4    A    
C59   C60   S    
C37   C57   A    
C3    C39   A    
O20   C65   S    
