data_mof_unit_62154.cif
_audit_creation_date              2012-10-26T17:48:23-0400
_audit_creation_method            fapswitch 2.2
_symmetry_space_group_name_H-M    P1
_symmetry_Int_Tables_number       1
_space_group_crystal_system       triclinic
_cell_length_a                    21.917511
_cell_length_b                    21.917485
_cell_length_c                    47.276258
_cell_angle_alpha                 90.000029
_cell_angle_beta                  90.0
_cell_angle_gamma                 90.000177
_cell_volume                      22710.4136847

loop_
_atom_site_label
_atom_site_type_symbol
_atom_type_description
_atom_site_fract_x
_atom_site_fract_y
_atom_site_fract_z
_atom_type_partial_charge
C1    C     C_R   0.998000 0.882445 0.999893 0.558164
C2    C     C_R   0.458543 0.037797 0.219996 0.048097
C3    C     C_R   0.514628 0.053319 0.100885 -0.143689
C4    C     C_R   0.446706 0.014718 0.600884 -0.143688
C5    C     C_R   0.985388 0.446677 0.600885 -0.143689
C6    C     C_R   0.553294 0.985283 0.600884 -0.143688
C7    C     C_R   0.014612 0.553323 0.600885 -0.143689
C8    C     C_R   0.000000 0.500000 0.085811 0.006506
C9    C     C_R   0.500000 0.000000 0.085810 0.006511
C10   C     C_R   0.500000 0.000000 0.585810 0.006526
C11   C     C_R   1.000000 0.500000 0.585811 0.006509
C12   C     C_R   0.000000 0.500000 0.145426 0.229480
C13   C     C_R   0.962236 0.458513 0.219996 0.048096
C14   C     C_R   0.500000 0.000000 0.145426 0.229475
C15   C     C_R   0.500000 0.000001 0.645425 0.229452
C16   C     C_R   0.000000 0.500000 0.645426 0.229478
C17   C     C_2   0.683681 0.997303 0.002859 -0.110306
C18   C     C_2   0.002697 0.683681 0.002859 -0.110308
C19   C     C_2   0.316319 0.002697 0.002859 -0.110306
C20   C     C_2   0.997303 0.316319 0.002859 -0.110308
C21   C     C_2   0.183681 0.497303 0.502859 -0.110309
C22   C     C_2   0.502697 0.183681 0.502859 -0.110308
C23   C     C_2   0.816319 0.502697 0.502859 -0.110309
C24   C     C_R   0.541457 0.962203 0.219996 0.048097
C25   C     C_2   0.497303 0.816319 0.502859 -0.110308
C26   C     C_2   0.783352 0.034240 0.018794 -0.155910
C27   C     C_2   0.965760 0.783352 0.018794 -0.155909
C28   C     C_2   0.216648 0.965760 0.018794 -0.155910
C29   C     C_2   0.034240 0.216648 0.018794 -0.155908
C30   C     C_2   0.283352 0.534240 0.518794 -0.155909
C31   C     C_2   0.465760 0.283352 0.518794 -0.155912
C32   C     C_2   0.716648 0.465760 0.518794 -0.155909
C33   C     C_2   0.534240 0.716648 0.518794 -0.155912
C34   C     C_2   0.816271 0.006253 0.998742 -0.112670
C35   C     C_R   0.537895 0.041368 0.719996 0.048100
C36   C     C_2   0.993746 0.816271 0.998742 -0.112670
C37   C     C_2   0.183729 0.993746 0.998742 -0.112670
C38   C     C_2   0.006253 0.183729 0.998742 -0.112670
C39   C     C_2   0.316271 0.506253 0.498742 -0.112670
C40   C     C_2   0.493746 0.316271 0.498742 -0.112669
C41   C     C_2   0.683729 0.493746 0.498742 -0.112670
C42   C     C_2   0.506254 0.683729 0.498742 -0.112669
C43   C     C_R   0.500000 1.000000 0.945446 0.556443
C44   C     C_R   0.000000 0.500000 0.945446 0.556431
C45   C     C_R   1.000000 0.500000 0.445446 0.556428
C46   C     C_R   0.958529 0.537781 0.719996 0.048095
C47   C     C_R   0.500000 0.000000 0.445446 0.556430
C48   C     C_R   0.617508 0.999798 0.000904 0.559980
C49   C     C_R   0.000202 0.617508 0.000904 0.559975
C50   C     C_R   0.382491 0.000202 0.000904 0.559980
C51   C     C_R   0.999798 0.382491 0.000904 0.559975
C52   C     C_R   0.117508 0.499798 0.500904 0.559972
C53   C     C_R   0.500202 0.117508 0.500904 0.559968
C54   C     C_R   0.882491 0.500202 0.500904 0.559972
C55   C     C_R   0.499798 0.882491 0.500904 0.559968
C56   C     C_R   0.500000 0.000000 0.054554 0.550729
C57   C     C_R   0.462104 0.958633 0.719996 0.048100
C58   C     C_R   0.000000 0.500000 0.054554 0.550732
C59   C     C_R   0.000000 0.500000 0.554554 0.550729
C60   C     C_R   0.500000 0.000000 0.554554 0.550718
C61   C     C_R   0.962807 0.460177 0.190097 0.405189
C62   C     C_R   0.539795 0.962777 0.190097 0.405192
C63   C     C_R   0.037193 0.539822 0.190097 0.405190
C64   C     C_R   0.460205 0.037222 0.190097 0.405191
C65   C     C_R   0.462686 0.960291 0.690096 0.405194
C66   C     C_R   0.039809 0.462793 0.690097 0.405189
C67   C     C_R   0.537314 0.039710 0.690096 0.405194
C68   C     C_R   0.041472 0.462219 0.719996 0.048095
C69   C     C_R   0.960191 0.537208 0.690097 0.405189
C70   C     C_3   0.081731 0.684937 0.217262 -0.260528
C71   C     C_3   0.315125 0.081879 0.217263 -0.260528
C72   C     C_3   0.918281 0.315061 0.217261 -0.260529
C73   C     C_3   0.684875 0.918120 0.217263 -0.260528
C74   C     C_3   0.582344 0.184684 0.717268 -0.260522
C75   C     C_3   0.815094 0.581804 0.717262 -0.260525
C76   C     C_3   0.417655 0.815318 0.717268 -0.260521
C77   C     C_3   0.184906 0.418198 0.717262 -0.260525
C78   C     C_R   0.000001 0.499999 0.234924 -0.090417
C79   C     C_R   0.500000 0.000000 0.234923 -0.090416
C80   C     C_R   0.500000 0.000000 0.734923 -0.090418
C81   C     C_R   0.117555 0.998000 0.999893 0.558164
C82   C     C_R   0.000000 0.500000 0.734923 -0.090418
C83   C     C_R   0.075038 0.582770 0.235491 0.129650
C84   C     C_R   0.417288 0.075101 0.235491 0.129650
C85   C     C_R   0.924965 0.417227 0.235491 0.129653
C86   C     C_R   0.582712 0.924899 0.235491 0.129649
C87   C     C_R   0.575300 0.082533 0.735491 0.129646
C88   C     C_R   0.917259 0.575069 0.735491 0.129648
C89   C     C_R   0.424700 0.917468 0.735491 0.129646
C90   C     C_R   0.082741 0.424932 0.735491 0.129649
C91   C     C_R   0.575790 0.080533 0.765087 -0.118797
C92   C     C_R   0.002000 0.117555 0.999893 0.558164
C93   C     C_R   0.919258 0.575565 0.765087 -0.118794
C94   C     C_R   0.424210 0.919468 0.765087 -0.118796
C95   C     C_R   0.080743 0.424435 0.765087 -0.118794
C96   C     C_R   0.075535 0.580771 0.265087 -0.118792
C97   C     C_R   0.419287 0.075596 0.265087 -0.118792
C98   C     C_R   0.924467 0.419227 0.265087 -0.118791
C99   C     C_R   0.580713 0.924404 0.265087 -0.118793
C100  C     C_R   0.538308 0.040006 0.779954 0.008847
C101  C     C_R   0.959890 0.538197 0.779954 0.008850
C102  C     C_R   0.461692 0.959994 0.779954 0.008846
C103  C     C_R   0.882444 0.002000 0.999893 0.558164
C104  C     C_R   0.040111 0.461803 0.779954 0.008850
C105  C     C_R   0.038183 0.540124 0.279955 0.008851
C106  C     C_R   0.459904 0.038213 0.279954 0.008851
C107  C     C_R   0.961819 0.459874 0.279955 0.008852
C108  C     C_R   0.540096 0.961787 0.279954 0.008851
C109  C     C_R   0.500000 0.000000 0.764921 -0.047752
C110  C     C_R   0.000000 0.500000 0.764921 -0.047752
C111  C     C_R   0.000001 0.499999 0.264921 -0.047751
C112  C     C_R   0.500000 0.000000 0.264921 -0.047751
C113  C     C_R   0.538116 0.038796 0.809711 0.400562
C114  C     C_R   0.498000 0.382445 0.499893 0.558165
C115  C     C_R   0.961101 0.538011 0.809711 0.400559
C116  C     C_R   0.461884 0.961203 0.809710 0.400561
C117  C     C_R   0.038899 0.461989 0.809711 0.400559
C118  C     C_R   0.037997 0.538913 0.309711 0.400560
C119  C     C_R   0.461115 0.038025 0.309711 0.400560
C120  C     C_R   0.962004 0.461086 0.309711 0.400561
C121  C     C_R   0.538885 0.961975 0.309711 0.400561
C122  C     C_R   0.514521 0.946698 0.869554 -0.058055
C123  C     C_R   0.053271 0.514633 0.869556 -0.058053
C124  C     C_R   0.485479 0.053301 0.869554 -0.058056
C125  C     C_R   0.617555 0.498000 0.499893 0.558165
C126  C     C_R   0.946729 0.485367 0.869556 -0.058053
C127  C     C_R   0.014651 0.446733 0.369556 -0.058052
C128  C     C_R   0.553275 0.014618 0.369555 -0.058052
C129  C     C_R   0.985350 0.553266 0.369556 -0.058051
C130  C     C_R   0.446725 0.985382 0.369555 -0.058052
C131  C     C_R   0.514149 0.946559 0.899106 -0.142591
C132  C     C_R   0.053411 0.514259 0.899107 -0.142592
C133  C     C_R   0.485850 0.053440 0.899106 -0.142591
C134  C     C_R   0.946589 0.485741 0.899107 -0.142592
C135  C     C_R   0.014277 0.446593 0.399107 -0.142591
C136  C     C_R   0.502000 0.617555 0.499893 0.558165
C137  C     C_R   0.553415 0.014244 0.399107 -0.142591
C138  C     C_R   0.985724 0.553406 0.399107 -0.142591
C139  C     C_R   0.446585 0.985756 0.399107 -0.142591
C140  C     C_R   0.500000 1.000000 0.914183 0.006074
C141  C     C_R   0.000000 0.500000 0.914184 0.006090
C142  C     C_R   0.000000 0.500000 0.414184 0.006092
C143  C     C_R   0.500000 0.000000 0.414184 0.006087
C144  C     C_2   0.716592 0.040362 0.015974 -0.154585
C145  C     C_2   0.959638 0.716592 0.015974 -0.154580
C146  C     C_2   0.283408 0.959637 0.015974 -0.154585
C147  C     C_R   0.382445 0.502000 0.499893 0.558165
C148  C     C_2   0.040362 0.283408 0.015974 -0.154580
C149  C     C_2   0.216592 0.540362 0.515974 -0.154581
C150  C     C_2   0.459638 0.216592 0.515974 -0.154588
C151  C     C_2   0.783408 0.459638 0.515974 -0.154581
C152  C     C_2   0.540362 0.783408 0.515974 -0.154588
C153  C     C_R   0.500000 1.000000 0.854547 0.234227
C154  C     C_R   1.000000 0.500000 0.854548 0.234200
C155  C     C_R   0.000000 0.500000 0.354548 0.234197
C156  C     C_R   0.500000 0.000000 0.354548 0.234203
C157  C     C_R   0.946818 0.514971 0.130436 -0.060157
C158  C     C_R   0.037766 0.541485 0.219996 0.048097
C159  C     C_R   0.484997 0.946827 0.130436 -0.060156
C160  C     C_R   0.053182 0.485029 0.130436 -0.060159
C161  C     C_R   0.515003 0.053173 0.130436 -0.060156
C162  C     C_R   0.446853 0.015096 0.630434 -0.060151
C163  C     C_R   0.985013 0.446822 0.630436 -0.060158
C164  C     C_R   0.553147 0.984905 0.630435 -0.060152
C165  C     C_R   0.014987 0.553178 0.630436 -0.060158
C166  C     C_R   0.946673 0.514596 0.100885 -0.143690
C167  C     C_R   0.485372 0.946681 0.100885 -0.143689
C168  C     C_R   0.053327 0.485404 0.100885 -0.143690
Cu1   Cu    Cu3+1 0.000000 0.000000 0.028140 0.943020
Cu2   Cu    Cu3+1 0.438930 0.000010 0.500000 0.948041
Cu3   Cu    Cu3+1 0.999990 0.438930 0.500000 0.948034
Cu4   Cu    Cu3+1 0.561070 0.999990 0.500000 0.948041
Cu5   Cu    Cu3+1 0.500000 0.500000 0.528140 0.943013
Cu6   Cu    Cu3+1 0.000000 0.000000 0.971860 0.965018
Cu7   Cu    Cu3+1 0.500000 0.500000 0.471860 0.965006
Cu8   Cu    Cu3+1 0.500010 0.061070 0.000000 0.948021
Cu9   Cu    Cu3+1 0.938930 0.500010 0.000000 0.948025
Cu10  Cu    Cu3+1 0.499990 0.938930 0.000000 0.948021
Cu11  Cu    Cu3+1 0.061070 0.499990 0.000000 0.948025
Cu12  Cu    Cu3+1 0.000010 0.561070 0.500000 0.948034
H1    H     H_    0.694143 0.078776 0.026098 0.147060
H2    H     H_    0.473604 0.905014 0.089850 0.133109
H3    H     H_    0.387386 0.784809 0.704835 0.153556
H4    H     H_    0.132519 0.345613 0.730950 0.246664
H5    H     H_    0.206976 0.428448 0.737895 0.120684
H6    H     H_    0.178374 0.461335 0.705283 0.180574
H7    H     H_    0.215506 0.388019 0.704831 0.153554
H8    H     H_    0.095002 0.473662 0.089851 0.133118
H9    H     H_    0.526396 0.094986 0.089850 0.133109
H10   H     H_    0.405060 0.026557 0.589849 0.133085
H11   H     H_    0.973633 0.405006 0.589851 0.133113
H12   H     H_    0.594940 0.973444 0.589849 0.133085
H13   H     H_    0.026367 0.594994 0.589851 0.133113
H14   H     H_    0.705289 0.955593 0.995533 0.109888
H15   H     H_    0.044407 0.705289 0.995533 0.109882
H16   H     H_    0.294711 0.044407 0.995533 0.109888
H17   H     H_    0.921224 0.694143 0.026098 0.147063
H18   H     H_    0.955593 0.294711 0.995533 0.109882
H19   H     H_    0.205289 0.455593 0.495533 0.109883
H20   H     H_    0.544407 0.205289 0.495533 0.109885
H21   H     H_    0.794711 0.544407 0.495533 0.109883
H22   H     H_    0.455593 0.794711 0.495533 0.109885
H23   H     H_    0.805792 0.055802 0.036676 0.148542
H24   H     H_    0.944198 0.805792 0.036676 0.148542
H25   H     H_    0.194207 0.944198 0.036676 0.148542
H26   H     H_    0.055802 0.194208 0.036676 0.148542
H27   H     H_    0.305792 0.555802 0.536676 0.148540
H28   H     H_    0.305857 0.921224 0.026098 0.147060
H29   H     H_    0.444198 0.305792 0.536676 0.148539
H30   H     H_    0.694207 0.444198 0.536676 0.148540
H31   H     H_    0.555802 0.694208 0.536676 0.148538
H32   H     H_    0.794668 0.990715 0.979358 0.111959
H33   H     H_    0.009285 0.794668 0.979358 0.111954
H34   H     H_    0.205331 0.009285 0.979358 0.111959
H35   H     H_    0.990715 0.205331 0.979358 0.111954
H36   H     H_    0.294668 0.490715 0.479358 0.111953
H37   H     H_    0.509285 0.294668 0.479358 0.111955
H38   H     H_    0.705331 0.509285 0.479358 0.111953
H39   H     H_    0.078776 0.305857 0.026098 0.147063
H40   H     H_    0.490715 0.705331 0.479358 0.111955
H41   H     H_    0.604997 0.112085 0.776409 0.160070
H42   H     H_    0.887623 0.604683 0.776409 0.160067
H43   H     H_    0.395003 0.887915 0.776409 0.160070
H44   H     H_    0.112378 0.395318 0.776409 0.160067
H45   H     H_    0.104640 0.612417 0.276410 0.160065
H46   H     H_    0.387663 0.104726 0.276409 0.160066
H47   H     H_    0.895363 0.387580 0.276410 0.160064
H48   H     H_    0.612337 0.895274 0.276409 0.160066
H49   H     H_    0.526270 0.905317 0.858291 0.138425
H50   H     H_    0.194143 0.578776 0.526098 0.147062
H51   H     H_    0.094628 0.526471 0.858293 0.138456
H52   H     H_    0.473729 0.094683 0.858291 0.138425
H53   H     H_    0.905372 0.473528 0.858293 0.138456
H54   H     H_    0.026504 0.405381 0.358293 0.138461
H55   H     H_    0.594635 0.026445 0.358292 0.138455
H56   H     H_    0.973497 0.594618 0.358293 0.138461
H57   H     H_    0.405365 0.973555 0.358292 0.138455
H58   H     H_    0.525550 0.904786 0.910137 0.134772
H59   H     H_    0.095160 0.525746 0.910139 0.134747
H60   H     H_    0.474450 0.095213 0.910137 0.134773
H61   H     H_    0.421224 0.194143 0.526098 0.147055
H62   H     H_    0.904840 0.474253 0.910139 0.134747
H63   H     H_    0.025778 0.404849 0.410139 0.134745
H64   H     H_    0.595167 0.025721 0.410139 0.134753
H65   H     H_    0.974222 0.595151 0.410139 0.134745
H66   H     H_    0.404833 0.974279 0.410139 0.134753
H67   H     H_    0.905541 0.526993 0.141720 0.137109
H68   H     H_    0.472949 0.905557 0.141720 0.137115
H69   H     H_    0.094459 0.473007 0.141720 0.137108
H70   H     H_    0.527051 0.094443 0.141720 0.137115
H71   H     H_    0.405604 0.027217 0.641718 0.137145
H72   H     H_    0.805857 0.421224 0.526098 0.147062
H73   H     H_    0.972978 0.405549 0.641720 0.137110
H74   H     H_    0.594396 0.972785 0.641718 0.137145
H75   H     H_    0.027022 0.594451 0.641720 0.137109
H76   H     H_    0.154337 0.632579 0.230950 0.246662
H77   H     H_    0.071473 0.707003 0.237895 0.120684
H78   H     H_    0.038596 0.678387 0.205284 0.180575
H79   H     H_    0.111897 0.715548 0.204831 0.153550
H80   H     H_    0.367545 0.154442 0.230950 0.246662
H81   H     H_    0.293051 0.071641 0.237896 0.120684
H82   H     H_    0.321637 0.038739 0.205285 0.180579
H83   H     H_    0.578775 0.805857 0.526098 0.147055
H84   H     H_    0.284538 0.112072 0.204832 0.153549
H85   H     H_    0.845671 0.367410 0.230951 0.246661
H86   H     H_    0.928544 0.292995 0.237892 0.120685
H87   H     H_    0.961413 0.321616 0.205281 0.180576
H88   H     H_    0.888116 0.284447 0.204830 0.153549
H89   H     H_    0.632454 0.845558 0.230950 0.246662
H90   H     H_    0.706948 0.928358 0.237896 0.120684
H91   H     H_    0.678363 0.961261 0.205285 0.180579
H92   H     H_    0.715462 0.887928 0.204832 0.153549
H93   H     H_    0.654771 0.132068 0.730948 0.246666
H94   H     H_    0.904998 0.526338 0.089851 0.133118
H95   H     H_    0.572171 0.206780 0.737903 0.120685
H96   H     H_    0.539184 0.178289 0.705292 0.180584
H97   H     H_    0.612614 0.215194 0.704837 0.153554
H98   H     H_    0.867483 0.654389 0.730950 0.246665
H99   H     H_    0.793025 0.571555 0.737895 0.120684
H100  H     H_    0.821626 0.538667 0.705284 0.180574
H101  H     H_    0.784495 0.611984 0.704831 0.153554
H102  H     H_    0.345228 0.867934 0.730947 0.246666
H103  H     H_    0.427825 0.793220 0.737903 0.120684
H104  H     H_    0.460817 0.821713 0.705293 0.180581
N1    N     N_R   0.000000 0.500000 0.175950 -0.414706
N2    N     N_2   0.373007 0.112132 0.221717 -0.454338
N3    N     N_2   0.887974 0.372914 0.221717 -0.454337
N4    N     N_2   0.626992 0.887868 0.221717 -0.454337
N5    N     N_2   0.612444 0.126720 0.721717 -0.454338
N6    N     N_2   0.872964 0.612082 0.721717 -0.454337
N7    N     N_2   0.387555 0.873282 0.721716 -0.454339
N8    N     N_2   0.127038 0.387920 0.721717 -0.454337
N9    N     N_R   0.500000 0.000000 0.175950 -0.414704
N10   N     N_R   0.500000 0.000001 0.675949 -0.414698
N11   N     N_R   0.000000 0.500000 0.675950 -0.414705
N12   N     N_R   0.500000 1.000000 0.824029 -0.392036
N13   N     N_R   1.000000 0.500000 0.824030 -0.392031
N14   N     N_R   0.000001 0.499999 0.324030 -0.392030
N15   N     N_R   0.500000 0.000000 0.324030 -0.392031
N16   N     N_2   0.112032 0.627080 0.221717 -0.454338
O1    O     O_R   0.999970 0.911020 0.023770 -0.504405
O2    O     O_R   0.088970 0.000000 0.976240 -0.504376
O3    O     O_R   1.000000 0.088970 0.976240 -0.504378
O4    O     O_R   0.911030 0.000000 0.976240 -0.504377
O5    O     O_R   0.500000 0.411030 0.476240 -0.504378
O6    O     O_R   0.588970 0.500000 0.476240 -0.504378
O7    O     O_R   0.500000 0.588970 0.476240 -0.504378
O8    O     O_R   0.411030 0.500000 0.476240 -0.504379
O9    O     O_R   0.500030 0.051590 0.958940 -0.507915
O10   O     O_R   0.948410 0.500030 0.958940 -0.507900
O11   O     O_R   0.499970 0.948410 0.958940 -0.507915
O12   O     O_R   0.088980 0.999970 0.023770 -0.504405
O13   O     O_R   0.051590 0.499970 0.958940 -0.507901
O14   O     O_R   0.000030 0.551590 0.458940 -0.507898
O15   O     O_R   0.448410 0.000030 0.458940 -0.507902
O16   O     O_R   0.999970 0.448410 0.458940 -0.507898
O17   O     O_R   0.551590 0.999970 0.458940 -0.507902
O18   O     O_R   0.589030 0.051570 0.000000 -0.501142
O19   O     O_R   0.948430 0.589030 0.000000 -0.501135
O20   O     O_R   0.410970 0.948430 0.000000 -0.501142
O21   O     O_R   0.051570 0.410970 0.000000 -0.501135
O22   O     O_R   0.089030 0.551570 0.500000 -0.501135
O23   O     O_R   0.000030 0.088980 0.023770 -0.504405
O24   O     O_R   0.448430 0.089030 0.500000 -0.501142
O25   O     O_R   0.910970 0.448430 0.500000 -0.501135
O26   O     O_R   0.551570 0.910970 0.500000 -0.501142
O27   O     O_R   0.589020 0.948510 0.000000 -0.505382
O28   O     O_R   0.051490 0.589020 0.000000 -0.505392
O29   O     O_R   0.410980 0.051490 0.000000 -0.505382
O30   O     O_R   0.948510 0.410980 0.000000 -0.505392
O31   O     O_R   0.089020 0.448510 0.500000 -0.505392
O32   O     O_R   0.551490 0.089020 0.500000 -0.505387
O33   O     O_R   0.910980 0.551490 0.500000 -0.505392
O34   O     O_R   0.911020 0.000030 0.023770 -0.504405
O35   O     O_R   0.448510 0.910980 0.500000 -0.505386
O36   O     O_R   0.499980 0.051580 0.041060 -0.511666
O37   O     O_R   0.948420 0.499980 0.041060 -0.511671
O38   O     O_R   0.500020 0.948420 0.041060 -0.511666
O39   O     O_R   0.051580 0.500020 0.041060 -0.511671
O40   O     O_R   0.999980 0.551580 0.541060 -0.511668
O41   O     O_R   0.448420 0.999980 0.541060 -0.511654
O42   O     O_R   0.000020 0.448420 0.541060 -0.511668
O43   O     O_R   0.551580 0.000020 0.541060 -0.511654
O44   O     O_2   0.926721 0.422280 0.175090 -0.465738
O45   O     O_R   0.499970 0.411020 0.523770 -0.504405
O46   O     O_2   0.577666 0.926665 0.175090 -0.465740
O47   O     O_2   0.073279 0.577720 0.175090 -0.465737
O48   O     O_2   0.422333 0.073335 0.175090 -0.465740
O49   O     O_2   0.426491 0.922498 0.675090 -0.465753
O50   O     O_2   0.077694 0.426694 0.675090 -0.465738
O51   O     O_2   0.573509 0.077504 0.675090 -0.465754
O52   O     O_2   0.922307 0.573306 0.675090 -0.465738
O53   O     O_2   0.576174 0.075758 0.824201 -0.504956
O54   O     O_2   0.924038 0.575972 0.824201 -0.504969
O55   O     O_2   0.423826 0.924241 0.824201 -0.504955
O56   O     O_R   0.588980 0.499970 0.523770 -0.504405
O57   O     O_2   0.075962 0.424027 0.824201 -0.504969
O58   O     O_2   0.075945 0.575990 0.324201 -0.504970
O59   O     O_2   0.424066 0.076000 0.324201 -0.504967
O60   O     O_2   0.924056 0.424009 0.324201 -0.504970
O61   O     O_2   0.575934 0.924000 0.324201 -0.504968
O62   O     O_R   0.500030 0.588980 0.523770 -0.504405
O63   O     O_R   0.411020 0.500030 0.523770 -0.504405
O64   O     O_R   1.000000 0.911030 0.976240 -0.504378

loop_
_geom_bond_atom_site_label_1
_geom_bond_atom_site_label_2
_ccdc_geom_bond_type
C22   C150  D    
C74   H97   S    
C87   C91   A    
C37   H34   S    
C48   O18   A    
Cu10  O11   S    
C17   C48   S    
Cu8   O36   S    
C41   H38   S    
C90   C95   A    
C15   N10   S    
C72   N3    S    
C124  C133  A    
C23   H21   S    
C25   C152  D    
C88   N6    S    
C149  H50   S    
C117  O57   S    
C132  H59   S    
C42   H40   S    
C3    H9    S    
C161  H70   S    
C106  C119  A    
C53   O32   A    
C116  O55   S    
C47   C143  S    
C35   C80   A    
C52   O22   A    
C42   C136  S    
C135  H63   S    
C125  O6    A    
C126  H53   S    
C76   N7    S    
C131  C140  A    
C8    C168  A    
C135  C142  A    
C154  N13   S    
C68   C90   A    
C60   O41   A    
Cu6   O2    S    
C56   O38   A    
C133  H60   S    
C91   C100  A    
H4    N8    S    
C99   H48   S    
C56   O36   A    
C83   N16   S    
C113  N12   A    
C97   H46   S    
C100  C109  A    
Cu1   O23   S    
C37   C81   S    
H93   N5    S    
C16   N11   S    
C41   C125  S    
C73   H91   S    
C93   C101  A    
Cu4   O32   S    
C31   C150  S    
C30   C149  S    
C101  C110  A    
C27   H24   S    
Cu6   O64   S    
C10   C60   S    
C45   O16   A    
Cu11  O13   S    
C50   O20   A    
C31   H29   S    
C27   C145  S    
C69   O52   S    
C72   H86   S    
C86   C99   A    
C20   H18   S    
C124  H52   S    
C34   H32   S    
C126  C154  A    
C152  H83   S    
C70   H79   S    
Cu3   O31   S    
C45   C142  S    
C101  C115  A    
C105  C118  A    
C107  C120  A    
C104  C117  A    
C71   H84   S    
C76   H104  S    
C25   C55   S    
Cu1   O12   S    
C5    C11   A    
C151  H72   S    
C103  O34   A    
C115  N13   A    
C14   C161  A    
C26   H23   S    
C134  C141  A    
C104  C110  A    
C30   H27   S    
C60   O43   A    
C159  C167  A    
C160  C168  A    
C148  H39   S    
C63   N1    A    
Cu11  O39   S    
C126  C134  A    
C50   O29   A    
C13   C85   A    
Cu2   O41   S    
C102  C109  A    
C130  C156  A    
C131  H58   S    
H80   N2    S    
C18   C49   S    
C123  C154  A    
Cu7   O8    S    
C61   O44   S    
C117  N13   A    
C123  C132  A    
C55   O35   A    
C119  O59   S    
C29   C148  S    
Cu4   O26   S    
C99   C108  A    
C155  N14   S    
C17   C144  D    
C49   O19   A    
C33   C42   D    
C5    C163  A    
C36   H33   S    
C64   O48   S    
C89   C94   A    
C115  O54   S    
Cu1   O1    S    
C166  H94   S    
C81   O12   A    
C121  N15   A    
C46   C82   A    
C35   C87   A    
C78   C158  A    
C70   H77   S    
Cu5   O63   S    
C44   C141  S    
Cu9   Cu11  S    
C147  O63   A    
C29   C38   D    
C47   O17   A    
C32   C41   D    
C20   C148  D    
C78   C111  A    
C21   C149  D    
C92   O23   A    
C71   H82   S    
Cu8   Cu10  S    
C59   O42   A    
C19   H16   S    
C124  C153  A    
C14   N9    S    
C77   H6    S    
C57   C80   A    
C17   H14   S    
C54   O25   A    
C21   H19   S    
Cu5   Cu7   S    
C19   C146  D    
C118  N14   A    
C1    O64   A    
C4    H10   S    
C43   C140  S    
C5    H11   S    
C128  C156  A    
C147  O8    A    
C74   N5    S    
C162  H71   S    
C3    C9    A    
Cu4   O43   S    
Cu5   O45   S    
C24   C79   A    
C35   C67   A    
C16   C165  A    
Cu1   Cu6   S    
C52   O31   A    
Cu2   O35   S    
Cu3   O25   S    
C9    C56   S    
C94   C102  A    
C64   N9    A    
C103  O4    A    
Cu7   O6    S    
Cu8   O9    S    
C12   C157  A    
C122  C153  A    
C122  C131  A    
C98   H47   S    
Cu1   O34   S    
C122  H49   S    
C13   C78   A    
C24   C62   A    
C107  C111  A    
C160  H69   S    
C38   H35   S    
C164  H74   S    
C119  N15   A    
C49   O28   A    
C28   C146  S    
C34   C103  S    
C14   C159  A    
C66   O50   S    
C68   C82   A    
C120  O60   S    
Cu3   O42   S    
C73   N4    S    
C28   C37   D    
C83   C96   A    
C67   N10   A    
C30   C39   D    
C121  O61   S    
C7    C165  A    
C159  H68   S    
H85   N3    S    
Cu12  O22   S    
C59   O40   A    
C71   N2    S    
Cu6   O3    S    
C24   C86   A    
C1    C36   S    
Cu5   O56   S    
Cu2   O15   S    
C96   C105  A    
C130  H57   S    
C168  H8    S    
C40   H37   S    
H89   N4    S    
C2    C84   A    
C44   O13   A    
C18   C145  D    
C77   N8    S    
C57   C89   A    
C79   C112  A    
C118  O58   S    
C84   C97   A    
C22   H20   S    
C127  C135  A    
H76   N16   S    
C20   C51   S    
C73   H90   S    
Cu4   O17   S    
C167  H2    S    
C48   O27   A    
C74   H95   S    
C132  C141  A    
C31   C40   D    
C163  H73   S    
C134  H62   S    
C23   C151  D    
C2    C79   A    
C76   H103  S    
C8    C58   S    
C144  H1    S    
C65   N10   A    
C89   N7    S    
C90   N8    S    
C80   C109  A    
C93   H42   S    
C76   H3    S    
C128  H55   S    
C105  C111  A    
C28   H25   S    
C75   N6    S    
C11   C59   S    
C130  C139  A    
C62   O46   S    
C153  N12   S    
H98   N6    S    
C55   O26   A    
C129  H56   S    
C15   C164  A    
C146  H28   S    
Cu11  O21   S    
Cu9   O37   S    
C129  C155  A    
C98   C107  A    
C108  C112  A    
C165  H75   S    
C32   H30   S    
C12   C160  A    
C157  H67   S    
C97   C106  A    
C6    C164  A    
C92   O3    A    
C138  C142  A    
C4    C162  A    
C127  C155  A    
C116  N12   A    
Cu7   O7    S    
C18   H15   S    
Cu8   O18   S    
C57   C65   A    
C73   H92   S    
C6    C10   A    
Cu10  O27   S    
C27   C36   D    
C75   H100  S    
C114  O5    A    
C96   H45   S    
C138  H65   S    
C67   O51   S    
C19   C50   S    
C83   C158  A    
Cu2   Cu4   S    
C66   N11   A    
C87   N5    S    
Cu11  O28   S    
C3    C161  A    
C114  O45   A    
C53   O24   A    
H102  N7    S    
C70   H78   S    
C123  H51   S    
Cu5   O62   S    
Cu10  O38   S    
C133  C140  A    
C6    H12   S    
C70   N16   S    
C139  H66   S    
Cu8   O29   S    
C38   C92   S    
C136  O62   A    
C71   H81   S    
C66   C68   A    
C77   H5    S    
C15   C162  A    
C72   H88   S    
C81   O2    A    
C106  C112  A    
C7    C11   A    
C39   H36   S    
C82   C110  A    
C43   O11   A    
C62   N9    A    
Cu9   O30   S    
C46   C69   A    
C85   C98   A    
C137  H64   S    
C26   C34   D    
C40   C114  S    
C129  C138  A    
C69   N11   A    
Cu9   O19   S    
C61   N1    A    
C7    H13   S    
Cu10  O20   S    
C137  C143  A    
Cu7   O5    S    
C58   O39   A    
C1    O1    A    
C139  C143  A    
C26   C144  S    
C2    C64   A    
C22   C53   S    
C46   C88   A    
C150  H61   S    
C16   C163  A    
C47   O15   A    
Cu9   O10   S    
C44   O10   A    
C9    C167  A    
C25   H22   S    
C63   O47   S    
Cu12  O40   S    
C72   H87   S    
C29   H26   S    
C75   H99   S    
C128  C137  A    
C145  H17   S    
C12   N1    S    
C125  O56   A    
C51   O30   A    
Cu2   O24   S    
C120  N14   A    
C8    C166  A    
C108  C121  A    
C94   H43   S    
C77   H7    S    
Cu6   O4    S    
Cu3   Cu12  S    
C91   H41   S    
C4    C10   A    
C95   C104  A    
C23   C54   S    
C51   O21   A    
C84   N2    S    
C88   C93   A    
C127  H54   S    
C85   N3    S    
C86   N4    S    
C43   O9    A    
C100  C113  A    
C33   C152  S    
C157  C166  A    
C156  N15   S    
C75   H101  S    
C113  O53   S    
C95   H44   S    
C54   O33   A    
C65   O49   S    
C33   H31   S    
C136  O7    A    
C32   C151  S    
Cu12  O14   S    
Cu3   O16   S    
C74   H96   S    
C45   O14   A    
C102  C116  A    
Cu12  O33   S    
C13   C61   A    
C58   O37   A    
C39   C147  S    
C63   C158  A    
C21   C52   S    
