data_mof_unit_41657.cif
_audit_creation_date              2012-12-11T15:24:41-0500
_audit_creation_method            fapswitch 2.2
_symmetry_space_group_name_H-M    P1
_symmetry_Int_Tables_number       1
_space_group_crystal_system       monoclinic
_cell_length_a                    23.014605
_cell_length_b                    6.95071
_cell_length_c                    20.701155
_cell_angle_alpha                 90.0
_cell_angle_beta                  93.176932
_cell_angle_gamma                 90.0
_cell_volume                      3306.42987411

loop_
_atom_site_label
_atom_site_type_symbol
_atom_type_description
_atom_site_fract_x
_atom_site_fract_y
_atom_site_fract_z
_atom_type_partial_charge
O1    O     O_R   0.188030 0.379840 0.189340 -0.544284
O2    O     O_R   0.811970 0.620160 0.810660 -0.544284
O3    O     O_R   0.311970 0.879840 0.310660 -0.544284
O4    O     O_R   0.688030 0.120160 0.689340 -0.544284
O5    O     O_R   0.307090 0.708420 0.185790 -0.537645
O6    O     O_R   0.692910 0.291580 0.814210 -0.537645
O7    O     O_R   0.192910 0.208420 0.314210 -0.537645
O8    O     O_R   0.807090 0.791580 0.685790 -0.537645
C1    C     C_R   0.326733 0.540758 0.170683 0.731821
C2    C     C_R   0.673267 0.459242 0.829317 0.731821
C3    C     C_R   0.173267 0.040758 0.329317 0.731821
C4    C     C_R   0.826733 0.959242 0.670683 0.731821
O9    O     O_R   0.188180 0.709480 0.181650 -0.537710
O10   O     O_R   0.811820 0.290520 0.818350 -0.537711
O11   O     O_R   0.311820 0.209480 0.318350 -0.537710
O12   O     O_R   0.688180 0.790520 0.681650 -0.537711
O13   O     O_R   0.192210 0.880960 0.306500 -0.533010
O14   O     O_R   0.807790 0.119040 0.693500 -0.533010
O15   O     O_R   0.307790 0.380960 0.193500 -0.533010
O16   O     O_R   0.692210 0.619040 0.806500 -0.533010
C5    C     C_R   0.167597 0.540566 0.165582 0.706753
C6    C     C_R   0.832403 0.459434 0.834418 0.706753
C7    C     C_R   0.332403 0.040566 0.334418 0.706753
C8    C     C_R   0.667597 0.959434 0.665582 0.706753
O17   O     O_3   0.251460 0.546730 0.290970 -0.371493
O18   O     O_3   0.748540 0.453270 0.709030 -0.371493
O19   O     O_3   0.248540 0.046730 0.209030 -0.371493
O20   O     O_3   0.751460 0.953270 0.790970 -0.371493
V1    V     V_3+5 0.249730 0.821120 0.242400 1.468506
V2    V     V_3+5 0.750270 0.178880 0.757600 1.468506
V3    V     V_3+5 0.250270 0.321120 0.257600 1.468506
V4    V     V_3+5 0.749730 0.678880 0.742400 1.468506
C9    C     C_R   0.579751 0.127162 0.616164 -0.132080
C10   C     C_R   0.420249 0.872838 0.383836 -0.132079
C11   C     C_R   0.920249 0.627162 0.883836 -0.132079
C12   C     C_R   0.079751 0.372838 0.116164 -0.132079
C13   C     C_R   0.618043 0.970382 0.616548 -0.093345
C14   C     C_R   0.381957 0.029618 0.383452 -0.093345
C15   C     C_R   0.881957 0.470382 0.883452 -0.093345
C16   C     C_R   0.118043 0.529618 0.116548 -0.093346
C17   C     C_R   0.608865 0.824840 0.570330 -0.124541
C18   C     C_R   0.391135 0.175160 0.429670 -0.124541
C19   C     C_R   0.891135 0.324840 0.929670 -0.124541
C20   C     C_R   0.108865 0.675160 0.070330 -0.124541
C21   C     C_R   0.562073 0.834050 0.523305 0.047497
C22   C     C_R   0.437927 0.165950 0.476695 0.047497
C23   C     C_R   0.937927 0.334050 0.976695 0.047498
C24   C     C_R   0.062073 0.665950 0.023305 0.047498
C25   C     C_R   0.523527 0.993542 0.523448 -0.012270
C26   C     C_R   0.476473 0.006458 0.476552 -0.012270
C27   C     C_R   0.976473 0.493542 0.976552 -0.012270
C28   C     C_R   0.023527 0.506458 0.023447 -0.012270
C29   C     C_R   0.532172 0.140344 0.570511 -0.007520
C30   C     C_R   0.467828 0.859656 0.429488 -0.007520
C31   C     C_R   0.967828 0.640344 0.929488 -0.007520
C32   C     C_R   0.032172 0.359656 0.070511 -0.007520
C33   C     C_R   0.553389 0.688728 0.475665 0.228340
C34   C     C_R   0.446611 0.311272 0.524335 0.228340
C35   C     C_R   0.946611 0.188728 0.024334 0.228340
C36   C     C_R   0.053389 0.811271 0.975665 0.228340
C37   C     C_R   0.506644 0.702265 0.429162 0.347796
C38   C     C_R   0.493356 0.297735 0.570838 0.347796
C39   C     C_R   0.993356 0.202265 0.070837 0.347796
C40   C     C_R   0.006644 0.797735 0.929162 0.347796
H1    H     H_    0.587235 0.237699 0.652442 0.180412
H2    H     H_    0.412765 0.762301 0.347558 0.180412
H3    H     H_    0.912765 0.737699 0.847557 0.180412
H4    H     H_    0.087235 0.262301 0.152442 0.180412
H5    H     H_    0.639461 0.706854 0.570892 0.121294
H6    H     H_    0.360539 0.293146 0.429108 0.121294
H7    H     H_    0.860539 0.206854 0.929108 0.121294
H8    H     H_    0.139461 0.793146 0.070892 0.121294
C41   C     C_3   0.049496 0.059093 0.531895 -0.199920
C42   C     C_3   0.950504 0.940907 0.468105 -0.199920
C43   C     C_3   0.450504 0.559093 0.968105 -0.199920
C44   C     C_3   0.549496 0.440907 0.031895 -0.199920
C45   C     C_3   0.014677 0.875555 0.546627 0.450490
C46   C     C_3   0.985323 0.124445 0.453373 0.450490
C47   C     C_3   0.485323 0.375555 0.953373 0.450490
C48   C     C_3   0.514677 0.624445 0.046627 0.450490
H9    H     H_    0.090326 0.106172 0.558312 0.177408
H10   H     H_    0.909674 0.893828 0.441688 0.177408
H11   H     H_    0.409674 0.606172 0.941688 0.177408
H12   H     H_    0.590326 0.393828 0.058312 0.177408
H13   H     H_    0.015841 0.680875 0.452912 0.199433
H14   H     H_    0.984159 0.319125 0.547088 0.199433
H15   H     H_    0.484159 0.180875 0.047088 0.199433
H16   H     H_    0.515841 0.819125 0.952912 0.199433
C49   C     C_1   0.872140 0.968884 0.624853 -0.147744
C50   C     C_1   0.127860 0.031116 0.375147 -0.147745
C51   C     C_1   0.627860 0.468884 0.875147 -0.147745
C52   C     C_1   0.372140 0.531116 0.124853 -0.147745
C53   C     C_3   0.991537 0.174735 0.526149 -0.208253
C54   C     C_3   0.008463 0.825265 0.473851 -0.208253
C55   C     C_3   0.508463 0.674735 0.973851 -0.208253
C56   C     C_3   0.491537 0.325265 0.026149 -0.208253
C57   C     C_3   0.957520 0.989736 0.540893 0.006960
C58   C     C_3   0.042480 0.010264 0.459107 0.006960
C59   C     C_3   0.542480 0.489736 0.959107 0.006960
C60   C     C_3   0.457520 0.510264 0.040893 0.006960
C61   C     C_1   0.910466 0.977941 0.586884 0.075434
C62   C     C_1   0.089534 0.022059 0.413116 0.075435
C63   C     C_1   0.589534 0.477941 0.913116 0.075435
C64   C     C_1   0.410466 0.522059 0.086884 0.075435
N1    N     N_2   0.590553 0.524905 0.474205 -0.487202
H17   H     H_    0.600069 0.460514 0.518342 0.258066
C65   C     C_3   0.640763 0.549384 0.436009 -0.434665
H18   H     H_    0.670253 0.661181 0.457812 0.160807
H19   H     H_    0.627014 0.591719 0.385713 0.248465
H20   H     H_    0.664901 0.411351 0.434231 0.198946
N2    N     N_2   0.409447 0.475095 0.525795 -0.487203
H21   H     H_    0.399931 0.539486 0.481657 0.258066
C66   C     C_3   0.359237 0.450616 0.563991 -0.434666
H22   H     H_    0.329747 0.338819 0.542188 0.160807
H23   H     H_    0.335099 0.588649 0.565769 0.198946
H24   H     H_    0.372986 0.408281 0.614287 0.248465
N3    N     N_2   0.909447 0.024905 0.025795 -0.487203
H25   H     H_    0.899931 0.960514 0.981657 0.258067
C67   C     C_3   0.859237 0.049383 0.063991 -0.434667
H26   H     H_    0.829747 0.161183 0.042189 0.160808
H27   H     H_    0.872986 0.091713 0.114287 0.248466
H28   H     H_    0.835098 0.911351 0.065768 0.198945
N4    N     N_2   0.090553 0.975094 0.974205 -0.487202
H29   H     H_    0.100069 0.039486 0.018342 0.258066
C68   C     C_3   0.140763 0.950616 0.936009 -0.434666
H30   H     H_    0.170253 0.838819 0.957812 0.160807
H31   H     H_    0.164902 0.088648 0.934231 0.198947
H32   H     H_    0.127015 0.908280 0.885713 0.248464
Cl1   Cl    Cl    0.497180 0.515277 0.371333 -0.628359
Cl2   Cl    Cl    0.502820 0.484723 0.628667 -0.628359
Cl3   Cl    Cl    0.002820 0.015276 0.128667 -0.628360
Cl4   Cl    Cl    0.997180 0.984723 0.871333 -0.628359
Cl5   Cl    Cl    0.034479 0.707886 0.609031 -0.608384
Cl6   Cl    Cl    0.965521 0.292114 0.390969 -0.608385
Cl7   Cl    Cl    0.465521 0.207886 0.890969 -0.608384
Cl8   Cl    Cl    0.534479 0.792114 0.109031 -0.608384

loop_
_geom_bond_atom_site_label_1
_geom_bond_atom_site_label_2
_ccdc_geom_bond_type
C34   C38   A    
C33   N1    S    
O1    C5    A    
O19   V1    S    
O13   V1    S    
C42   C54   S    
C59   C63   S    
N2    H21   S    
C41   C53   S    
O15   V3    S    
C10   H2    S    
C43   C55   S    
N4    H29   S    
C44   C59   S    
O7    C3    A    
N1    C65   S    
C21   C33   A    
O5    C1    A    
C26   C30   A    
C47   C59   S    
O10   V2    S    
C14   C18   A    
C24   C28   A    
N3    C67   S    
O4    C8    A    
C55   C59   S    
N4    C68   S    
C54   C58   S    
C46   C53   S    
C45   C54   S    
C18   H6    S    
O2    V4    S    
C18   C22   A    
O3    V1    S    
C38   Cl2   S    
C50   C62   T    
O3    C7    A    
C1    O15   A    
C60   C64   S    
C40   Cl4   S    
C2    O16   A    
C46   C58   S    
C68   H32   S    
C65   H18   S    
C45   C57   S    
O14   V2    S    
C39   Cl3   S    
C37   Cl1   S    
C66   H24   S    
O11   C7    A    
H16   C55   S    
O12   C8    A    
C22   C34   A    
O17   V1    S    
C65   H19   S    
C44   H12   S    
C45   Cl5   S    
C42   H10   S    
C1    C52   S    
C41   H9    S    
C24   C36   A    
C42   C57   S    
O5    V1    S    
C67   H27   S    
O1    V3    S    
C9    C29   A    
C41   C58   S    
O7    V3    S    
C9    H1    S    
C34   N2    S    
O8    V4    S    
C4    C49   S    
O20   V4    S    
C8    C13   S    
O18   V4    S    
C15   C19   A    
C58   C62   S    
O19   V3    S    
C11   C31   A    
C9    C13   A    
C27   C28   A    
C36   N4    S    
C11   C15   A    
O2    C6    A    
C12   C32   A    
H14   C53   S    
H13   C54   S    
C12   C16   A    
O8    C4    A    
C57   C61   S    
C31   C40   A    
C21   C25   A    
C32   C39   A    
O9    C5    A    
N2    C66   S    
C48   C55   S    
C33   C37   A    
C46   Cl6   S    
O6    V2    S    
C2    C51   S    
C10   C30   A    
C68   H30   S    
C65   H20   S    
C53   C57   S    
C17   H5    S    
C66   H22   S    
O16   V4    S    
C67   H28   S    
O9    V1    S    
C3    O13   A    
C19   H7    S    
C49   C61   T    
C10   C14   A    
O17   V3    S    
C44   C48   S    
C51   C63   T    
O6    C2    A    
C23   C27   A    
C67   H26   S    
C12   H4    S    
H15   C56   S    
O11   V3    S    
C30   C37   A    
O12   V4    S    
C7    C14   S    
C47   Cl7   S    
N1    H17   S    
C22   C26   A    
C35   C39   A    
C48   Cl8   S    
C36   C40   A    
O10   C6    A    
O20   V2    S    
C47   C56   S    
C17   C21   A    
N3    H25   S    
C44   C56   S    
C3    C50   S    
C43   H11   S    
C5    C16   S    
C43   C47   S    
C25   C29   A    
C6    C15   S    
C56   C60   S    
C43   C60   S    
C20   H8    S    
C27   C31   A    
C13   C17   A    
O4    V2    S    
C11   H3    S    
C52   C64   T    
C23   C35   A    
C28   C32   A    
C16   C20   A    
C29   C38   A    
C35   N3    S    
C25   C26   A    
C42   C46   S    
C4    O14   A    
C68   H31   S    
C41   C45   S    
C19   C23   A    
C48   C60   S    
C20   C24   A    
C66   H23   S    
O18   V2    S    
