data_mof_unit_15288.cif
_audit_creation_date              2012-12-11T15:40:40-0500
_audit_creation_method            fapswitch 2.2
_symmetry_space_group_name_H-M    P1
_symmetry_Int_Tables_number       1
_space_group_crystal_system       triclinic
_cell_length_a                    6.950557
_cell_length_b                    18.860595
_cell_length_c                    20.648564
_cell_angle_alpha                 107.160109
_cell_angle_beta                  89.461946
_cell_angle_gamma                 90.635718
_cell_volume                      2586.14363699

loop_
_atom_site_label
_atom_site_type_symbol
_atom_type_description
_atom_site_fract_x
_atom_site_fract_y
_atom_site_fract_z
_atom_type_partial_charge
O1    O     O_R   0.494330 0.423860 0.422200 -0.533751
O2    O     O_R   0.819690 0.434890 0.556180 -0.538425
O3    O     O_R   0.994310 0.576140 0.577800 -0.533386
C1    C     C_R   0.650204 0.420806 0.576632 0.725522
O4    O     O_R   0.823770 0.415220 0.421380 -0.535667
O5    O     O_R   0.998410 0.556340 0.442040 -0.533884
C2    C     C_R   0.654956 0.393794 0.395459 0.721508
O6    O     O_R   0.490230 0.443660 0.557960 -0.535376
O7    O     O_3   0.662220 0.546320 0.506940 -0.366250
V1    V     V_3+5 0.935390 0.491410 0.498710 1.426411
O8    O     O_R   0.328380 0.565110 0.443820 -0.537542
C3    C     C_R   0.160686 0.579183 0.423329 0.728460
O9    O     O_R   0.324310 0.584780 0.578620 -0.535912
C4    C     C_R   0.155288 0.606211 0.604535 0.721104
V2    V     V_3+5 0.435920 0.508590 0.501290 1.426452
O10   O     O_3   0.159220 0.453680 0.493060 -0.367799
C5    C     C_1   0.144952 0.668311 0.666843 -0.197430
C6    C     C_1   0.134383 0.719802 0.719118 0.003958
C7    C     C_1   0.121158 0.780263 0.780759 0.002809
C8    C     C_1   0.110542 0.831727 0.833050 -0.200059
C9    C     C_3   0.305785 0.754697 0.275807 -0.230666
C10   C     C_3   0.159215 0.817439 0.281118 0.043020
H1    H     H_    0.450449 0.761471 0.299353 0.119574
H2    H     H_    0.881014 0.785146 0.335461 0.111566
C11   C     C_1   0.101329 0.873848 0.120982 -0.193555
C12   C     C_1   0.154292 0.623936 0.376971 -0.187571
C13   C     C_3   0.264074 0.724969 0.198713 0.078531
C14   C     C_3   0.119851 0.787966 0.204648 0.110380
C15   C     C_3   0.100975 0.675208 0.212815 0.045218
C16   C     C_3   0.139924 0.705447 0.289400 0.109533
C17   C     C_3   0.954545 0.738300 0.218125 -0.213366
C18   C     C_3   0.993845 0.768423 0.295619 -0.171723
C19   C     C_1   0.108441 0.835110 0.158592 -0.057437
C20   C     C_1   0.148413 0.660761 0.337643 -0.042441
H3    H     H_    0.810358 0.732827 0.195018 0.111063
C21   C     C_3   0.490988 0.196469 0.727895 0.054297
C22   C     C_3   0.670655 0.208535 0.687392 -0.179497
H4    H     H_    0.710609 0.174080 0.635581 0.119489
H5    H     H_    0.939213 0.195974 0.753882 0.136158
C23   C     C_1   0.640062 0.375748 0.622672 -0.194300
C24   C     C_1   0.614385 0.125499 0.878510 -0.200726
C25   C     C_3   0.447986 0.280534 0.748392 -0.198411
C26   C     C_3   0.628174 0.292395 0.708688 0.116740
C27   C     C_3   0.571928 0.292077 0.813066 -0.166334
C28   C     C_3   0.614815 0.208071 0.791894 0.112228
C29   C     C_3   0.751011 0.304038 0.772524 0.130351
C30   C     C_3   0.795472 0.220210 0.752011 -0.152081
C31   C     C_1   0.634194 0.338346 0.661522 -0.065954
C32   C     C_1   0.616415 0.163052 0.839793 -0.069184
H6    H     H_    0.531407 0.326653 0.864782 0.117463
H7    H     H_    0.305064 0.305050 0.746105 0.124773
C33   C     C_1   0.644429 0.331711 0.333146 -0.198423
C34   C     C_1   0.633875 0.280227 0.280868 0.002666
C35   C     C_1   0.620785 0.219764 0.219229 0.002191
C36   C     C_1   0.610306 0.168292 0.166940 -0.198672
O11   O     O_R   0.764940 0.056420 0.942120 -0.534645
O12   O     O_R   0.431180 0.084790 0.078640 -0.535516
O13   O     O_R   0.256690 0.943640 0.057940 -0.533936
C37   C     C_R   0.599929 0.106232 0.104608 0.721841
O14   O     O_R   0.435470 0.065130 0.943840 -0.539471
O15   O     O_R   0.261010 0.923840 0.922180 -0.533276
C38   C     C_R   0.604997 0.079737 0.923879 0.726414
O16   O     O_R   0.760620 0.076220 0.077880 -0.533310
O17   O     O_3   0.592970 0.953720 0.993110 -0.366384
V3    V     V_3+5 0.319740 0.008590 0.001280 1.423342
O18   O     O_R   0.931020 0.915140 0.921290 -0.536367
C39   C     C_R   0.100090 0.893775 0.895387 0.717928
O19   O     O_R   0.926730 0.934800 0.056090 -0.537902
C40   C     C_R   0.094492 0.920331 0.076212 0.730366
V4    V     V_3+5 0.819230 0.991300 0.998610 1.423959
O20   O     O_3   0.095870 0.046270 0.006890 -0.367196
C41   C     C_R   0.199857 0.897607 0.317912 0.102820
C42   C     C_R   0.070611 0.939554 0.366583 -0.127214
C43   C     C_R   0.110322 0.014233 0.399828 -0.115705
C44   C     C_R   0.279216 0.047387 0.384957 -0.094023
C45   C     C_R   0.408296 0.005995 0.336493 -0.120570
C46   C     C_R   0.368662 0.931410 0.302902 -0.133616
H8    H     H_    0.938728 0.915042 0.378619 0.100731
H9    H     H_    0.009746 0.046452 0.436973 0.100104
H10   H     H_    0.309772 0.105164 0.410848 0.103061
H11   H     H_    0.538902 0.031716 0.324875 0.112278
H12   H     H_    0.469512 0.899939 0.265288 0.106775
C47   C     C_3   0.896949 0.366988 0.798387 -0.371344
C48   C     C_3   0.001347 0.360167 0.861356 -0.310773
C49   C     C_3   0.142521 0.424414 0.888519 -0.768448
H13   H     H_    0.252058 0.425567 0.849316 0.227804
H14   H     H_    0.064798 0.478014 0.903822 0.231991
H15   H     H_    0.217109 0.417500 0.933574 0.217600
H16   H     H_    0.894810 0.360110 0.901840 0.193900
H17   H     H_    0.081679 0.307129 0.848532 0.195353
H18   H     H_    0.002417 0.365556 0.757322 0.170143
H19   H     H_    0.819547 0.420631 0.810911 0.177476
C50   C     C_R   0.077415 0.594188 0.174759 0.091476
C51   C     C_R   0.918769 0.568756 0.132392 -0.152310
C52   C     C_R   0.902746 0.493903 0.095108 -0.117515
C53   C     C_R   0.045225 0.443969 0.099742 -0.095545
C54   C     C_R   0.203896 0.468859 0.141686 -0.120528
C55   C     C_R   0.220264 0.543690 0.179009 -0.127463
H20   H     H_    0.809651 0.606783 0.127016 0.103589
H21   H     H_    0.780547 0.474731 0.062242 0.107367
H22   H     H_    0.033082 0.386100 0.070624 0.104088
H23   H     H_    0.314693 0.430244 0.145043 0.111003
H24   H     H_    0.344910 0.562392 0.210790 0.107885
C56   C     C_3   0.422930 0.701828 0.145122 -0.379645
C57   C     C_3   0.344115 0.673048 0.072821 -0.286927
C58   C     C_3   0.507127 0.648562 0.021296 -0.776453
H25   H     H_    0.608683 0.695395 0.024630 0.230676
H26   H     H_    0.586199 0.601640 0.030501 0.225103
H27   H     H_    0.446738 0.629859 0.969348 0.219433
H28   H     H_    0.246323 0.624966 0.068107 0.207819
H29   H     H_    0.261841 0.717287 0.060270 0.197896
H30   H     H_    0.517043 0.750840 0.148941 0.173135
H31   H     H_    0.508414 0.657876 0.156743 0.168616
C59   C     C_R   0.335046 0.140641 0.697527 0.085218
C60   C     C_R   0.246278 0.143619 0.637511 -0.139936
C61   C     C_R   0.096156 0.094680 0.609273 -0.121643
C62   C     C_R   0.033042 0.042337 0.640656 -0.089880
C63   C     C_R   0.120433 0.038778 0.700244 -0.120868
C64   C     C_R   0.270767 0.087651 0.728670 -0.145310
H32   H     H_    0.292255 0.184394 0.612917 0.110451
H33   H     H_    0.027672 0.097795 0.563380 0.100444
H34   H     H_    0.916041 0.004748 0.618952 0.108657
H35   H     H_    0.070913 0.998378 0.724693 0.111288
H36   H     H_    0.333481 0.084015 0.775065 0.120048

loop_
_geom_bond_atom_site_label_1
_geom_bond_atom_site_label_2
_ccdc_geom_bond_type
C16   C18   S    
C57   H28   S    
C50   C51   A    
C36   C37   S    
C13   C15   S    
C42   C43   A    
C8    C39   S    
C21   C25   S    
C52   C53   A    
C48   H17   S    
C62   H34   S    
C21   C59   S    
C59   C60   A    
C49   H13   S    
C33   C34   T    
C47   H19   S    
C15   C16   S    
C10   C18   S    
C57   C58   S    
C46   H12   S    
H5    C30   S    
C21   C22   S    
C2    C33   S    
O5    C3    A    
O12   C37   A    
C58   H25   S    
C55   H24   S    
C13   C56   S    
C61   C62   A    
O14   C38   A    
C6    C7    S    
C10   C41   S    
C63   C64   A    
C41   C46   A    
C35   C36   T    
O8    V2    S    
C12   C20   T    
C1    C23   S    
O19   C40   A    
C42   H8    S    
V4    O20   S    
O1    V2    S    
O17   V4    S    
C22   C30   S    
C26   C31   S    
C54   H23   S    
C1    O6    A    
C25   H7    S    
C49   H14   S    
O18   C39   A    
C9    C13   S    
C10   C14   S    
C9    C10   S    
C4    C5    S    
C25   C27   S    
C24   C38   S    
C24   C32   T    
C56   C57   S    
C27   C29   S    
C54   C55   A    
C64   H36   S    
C28   C30   S    
C14   C17   S    
C43   C44   A    
C16   C20   S    
C53   H22   S    
C45   C46   A    
C61   H33   S    
C56   H30   S    
C52   H21   S    
V3    O20   S    
C29   C47   S    
C3    C12   S    
C22   C26   S    
O2    C1    A    
C44   C45   A    
H2    C18   S    
O5    V1    S    
C22   H4    S    
O15   C39   A    
O13   V3    S    
C47   C48   S    
O16   V4    S    
C28   C32   S    
C53   C54   A    
C5    C6    T    
C21   C28   S    
C48   C49   S    
O3    C4    A    
O14   V3    S    
O6    V2    S    
O11   V4    S    
C43   H9    S    
C9    H1    S    
O11   C38   A    
C11   C40   S    
C48   H16   S    
O2    V1    S    
C27   C28   S    
O4    C2    A    
O7    V1    S    
C49   H15   S    
C27   H6    S    
C23   C31   T    
C29   C30   S    
O1    C2    A    
C17   C18   S    
C59   C64   A    
O12   V3    S    
C41   C42   A    
C45   H11   S    
C14   C19   S    
O8    C3    A    
O13   C40   A    
C34   C35   S    
C47   H18   S    
C9    C16   S    
C37   O16   A    
O17   V3    S    
C7    C8    T    
O9    V2    S    
O7    V2    S    
O4    V1    S    
C15   C17   S    
O3    V1    S    
V1    O10   S    
C62   C63   A    
C15   C50   S    
C60   C61   A    
O18   V4    S    
C58   H26   S    
C51   H20   S    
C17   H3    S    
C63   H35   S    
C57   H29   S    
C51   C52   A    
C26   C29   S    
C56   H31   S    
O15   V3    S    
C44   H10   S    
O19   V4    S    
C60   H32   S    
C25   C26   S    
C13   C14   S    
O9    C4    A    
C50   C55   A    
V2    O10   S    
C11   C19   T    
C58   H27   S    
