data_mof_unit_49445.cif
_audit_creation_date              2012-10-26T20:03:18-0400
_audit_creation_method            fapswitch 2.2
_symmetry_space_group_name_H-M    P1
_symmetry_Int_Tables_number       1
_space_group_crystal_system       triclinic
_cell_length_a                    10.605644
_cell_length_b                    12.332786
_cell_length_c                    13.196473
_cell_angle_alpha                 116.764738
_cell_angle_beta                  77.460587
_cell_angle_gamma                 101.420183
_cell_volume                      1494.39419903

loop_
_atom_site_label
_atom_site_type_symbol
_atom_type_description
_atom_site_fract_x
_atom_site_fract_y
_atom_site_fract_z
_atom_type_partial_charge
C1    C     C_R   0.511073 0.854819 0.286602 0.526887
C2    C     C_R   0.493971 0.566319 0.009494 0.034292
C3    C     C_R   0.457053 0.650309 0.124068 0.024278
C4    C     C_R   0.740492 0.999644 0.499587 0.549622
C5    C     C_R   0.452062 0.439632 0.976718 0.008573
C6    C     C_R   0.362748 0.399898 0.054174 0.055119
C7    C     C_R   0.314887 0.487196 0.161587 -0.144258
C8    C     C_R   0.359912 0.610024 0.195276 -0.126597
C9    C     C_R   0.498451 0.351078 0.869323 -0.149799
C10   C     C_R   0.365906 0.188832 0.911365 -0.084951
C11   C     C_R   0.517035 0.772877 0.163548 -0.003096
C12   C     C_3   0.013403 0.908209 0.523967 -0.112767
C13   C     C_R   0.707479 0.346826 0.328657 -0.148987
C14   C     C_R   0.324040 0.759432 0.645341 0.047956
C15   C     C_R   0.285891 0.662985 0.677065 -0.160286
C16   C     C_R   0.480432 0.145160 0.713456 0.542725
C17   C     C_R   0.352072 0.559655 0.622339 -0.137324
C18   C     C_R   0.458039 0.551489 0.534607 -0.006515
C19   C     C_R   0.493810 0.653021 0.505211 0.181045
C20   C     C_R   0.529882 0.447089 0.475228 -0.014125
C21   C     C_R   0.635332 0.446850 0.388238 0.036949
C22   C     C_R   0.668652 0.546467 0.361163 -0.174591
C23   C     C_3   0.955012 0.891983 0.419730 -0.129550
C24   C     C_R   0.599784 0.647104 0.418375 -0.095515
C25   C     C_R   0.502399 0.342096 0.497897 0.041145
C26   C     C_R   0.675520 0.246884 0.355132 0.040982
C27   C     C_R   0.259535 0.000083 0.500053 0.547379
C28   C     C_3   0.986652 0.090956 0.475145 -0.110634
C29   C     C_3   0.066366 0.983106 0.395552 -0.124483
C30   C     C_3   0.122463 0.999497 0.499786 0.044012
C31   C     C_3   0.044979 0.107176 0.579399 -0.126223
C32   C     C_3   0.933688 0.016044 0.603563 -0.121679
C33   C     C_3   0.877577 0.999730 0.499371 0.045971
C34   C     C_R   0.321626 0.273424 0.021148 0.097167
C35   C     C_R   0.451740 0.227946 0.834691 -0.037302
C36   C     C_R   0.594365 0.814756 0.084701 -0.132689
C37   C     C_R   0.617575 0.735790 0.969433 -0.140457
C38   C     C_R   0.570295 0.612675 0.931963 -0.120034
Cu1   Cu    Cu3+1 0.529830 0.098270 0.475420 0.923015
Cu2   Cu    Cu3+1 0.470170 0.901730 0.524580 0.908674
H1    H     H_    0.123914 0.969688 0.310595 0.116094
H2    H     H_    0.424031 0.334324 0.562419 0.118675
H3    H     H_    0.272126 0.839248 0.688368 0.124232
H4    H     H_    0.973160 0.165849 0.455076 0.121001
H5    H     H_    0.318363 0.487849 0.650423 0.098160
H6    H     H_    0.204710 0.668346 0.744360 0.103193
H7    H     H_    0.633737 0.718511 0.391437 0.182044
H8    H     H_    0.085074 0.195114 0.644568 0.106674
H9    H     H_    0.876181 0.029421 0.688522 0.112689
H10   H     H_    0.026940 0.833282 0.543968 0.119197
H11   H     H_    0.914815 0.804009 0.354657 0.099434
H12   H     H_    0.571171 0.375275 0.809732 0.125623
H13   H     H_    0.329235 0.093007 0.884729 0.143157
H14   H     H_    0.242507 0.461739 0.221152 0.108077
H15   H     H_    0.272886 0.256540 0.171018 0.235435
H16   H     H_    0.145474 0.265835 0.117000 0.221585
H17   H     H_    0.639410 0.908443 0.112468 0.128246
H18   H     H_    0.592546 0.557132 0.841263 0.104743
H19   H     H_    0.676006 0.769451 0.909069 0.118598
H20   H     H_    0.314440 0.672975 0.276996 0.150706
H21   H     H_    0.730822 0.169385 0.309440 0.118522
H22   H     H_    0.749435 0.546926 0.294871 0.104987
H23   H     H_    0.788224 0.346031 0.262038 0.089238
N1    N     N_R   0.575030 0.246270 0.438190 -0.232864
N2    N     N_R   0.425760 0.754330 0.561190 -0.235771
N3    N     N_3   0.232898 0.228380 0.096067 -0.650436
O1    O     O_R   0.537510 0.972500 0.318130 -0.501675
O2    O     O_R   0.487140 0.806530 0.359650 -0.528369
O3    O     O_R   0.708330 0.082950 0.479220 -0.505444
O4    O     O_R   0.657960 0.916980 0.520740 -0.517540
O5    O     O_R   0.512860 0.193470 0.640350 -0.506306
O6    O     O_R   0.462490 0.027500 0.681870 -0.505357
O7    O     O_R   0.342040 0.083020 0.479260 -0.502368
O8    O     O_R   0.291670 0.917050 0.520780 -0.518110

loop_
_geom_bond_atom_site_label_1
_geom_bond_atom_site_label_2
_ccdc_geom_bond_type
C16   O6    A    
C34   N3    S    
C4    O4    A    
C7    C8    A    
Cu1   N1    S    
C9    H12   S    
C12   C23   S    
C29   C30   S    
Cu2   O4    S    
C23   C29   S    
C11   C36   A    
C26   H21   S    
C17   H5    S    
C2    C3    A    
C16   C35   S    
C30   C31   S    
C20   C25   A    
C1    O2    A    
C18   C19   A    
C10   H13   S    
C26   N1    A    
C38   H18   S    
C23   C33   S    
C1    C11   S    
C10   C35   A    
C27   O8    A    
C29   H1    S    
C21   C22   A    
C12   C32   S    
C27   C30   S    
C16   O5    A    
C4    O3    A    
C36   H17   S    
Cu1   Cu2   S    
C28   H4    S    
C6    C34   A    
C25   N1    A    
C5    C9    A    
C37   C38   A    
C22   H22   S    
C2    C38   A    
C23   H11   S    
C31   C32   S    
C13   H23   S    
C17   C18   A    
Cu1   O3    S    
C13   C21   A    
C10   C34   A    
C37   H19   S    
C28   C33   S    
C3    C8    A    
C31   H8    S    
C22   C24   A    
C13   C26   A    
C2    C5    A    
H15   N3    S    
C15   C17   A    
C4    C33   S    
C28   C29   S    
Cu2   O6    S    
C12   C30   S    
C24   H7    S    
Cu1   O1    S    
C28   C31   S    
C25   H2    S    
C12   H10   S    
C6    C7    A    
C7    H14   S    
Cu2   N2    S    
C32   C33   S    
C19   C24   A    
C8    H20   S    
C5    C6    A    
H16   N3    S    
C1    O1    A    
C14   N2    A    
Cu2   O8    S    
C19   N2    A    
C18   C20   A    
Cu1   O7    S    
C32   H9    S    
C3    C11   A    
C20   C21   A    
C36   C37   A    
Cu2   O2    S    
C9    C35   A    
Cu1   O5    S    
C14   C15   A    
C15   H6    S    
C27   O7    A    
C14   H3    S    
