data_mof_unit_33878.cif
_audit_creation_date              2012-12-11T16:05:08-0500
_audit_creation_method            fapswitch 2.2
_symmetry_space_group_name_H-M    P1
_symmetry_Int_Tables_number       1
_space_group_crystal_system       triclinic
_cell_length_a                    10.657071
_cell_length_b                    10.647749
_cell_length_c                    16.929096
_cell_angle_alpha                 98.443777
_cell_angle_beta                  99.104309
_cell_angle_gamma                 61.736155
_cell_volume                      1664.94270329

loop_
_atom_site_label
_atom_site_type_symbol
_atom_type_description
_atom_site_fract_x
_atom_site_fract_y
_atom_site_fract_z
_atom_type_partial_charge
C1    C     C_R   0.379292 0.713128 0.386698 0.556224
C2    C     C_3   0.414893 0.658269 0.236525 -0.140633
C3    C     C_3   0.363848 0.764082 0.309669 0.058833
C4    C     C_R   0.370116 0.347018 0.358859 0.534445
C5    C     C_3   0.427337 0.854777 0.286678 -0.108854
C6    C     C_3   0.282184 0.943829 0.239307 -0.122586
C7    C     C_3   0.219069 0.853205 0.264001 -0.124806
C8    C     C_3   0.269852 0.747243 0.189894 -0.121894
C9    C     C_3   0.333597 0.836752 0.165898 0.058216
C10   C     C_3   0.469085 0.329384 0.803014 -0.146820
C11   C     C_3   0.378157 0.463043 0.755276 -0.178278
C12   C     C_3   0.726762 0.313066 0.250258 -0.083829
C13   C     C_3   0.379977 0.363614 0.679654 0.051359
C14   C     C_3   0.471309 0.230270 0.726358 -0.147086
C15   C     C_3   0.331993 0.233025 0.743770 -0.122495
C16   C     C_R   0.776027 0.377290 0.401747 0.534035
C17   C     C_3   0.242764 0.366527 0.697366 0.302873
C18   C     C_3   0.237810 0.467057 0.773401 -0.072908
C19   C     C_3   0.329889 0.333588 0.819529 0.016938
C20   C     C_1   0.768029 0.367828 0.715379 -0.041067
C21   C     C_1   0.812822 0.330345 0.782190 -0.045172
C22   C     C_1   0.337063 0.816055 0.709220 -0.057885
C23   C     C_3   0.818927 0.346706 0.321665 0.039051
C24   C     C_1   0.310989 0.843618 0.777742 -0.049109
C25   C     C_R   0.899648 0.306442 0.092783 0.551637
C26   C     C_R   0.319617 0.299177 0.120172 0.539891
C27   C     C_R   0.296461 0.887783 0.087212 0.540230
C28   C     C_R   0.356532 0.772497 0.626999 0.520086
C29   C     C_R   0.878680 0.302413 0.862184 0.541868
C30   C     C_R   0.308696 0.294887 0.892729 0.546732
C31   C     C_R   0.278731 0.886763 0.858455 0.545725
C32   C     C_R   0.408742 0.376380 0.601091 0.546694
C33   C     C_R   0.718246 0.410340 0.635382 0.524619
C34   C     C_3   0.957697 0.230184 0.289768 -0.153189
C35   C     C_1   0.343493 0.336951 0.275037 -0.068515
C36   C     C_1   0.332776 0.325998 0.203801 -0.061161
C37   C     C_3   0.865503 0.200804 0.217323 0.113314
C38   C     C_3   0.106445 0.278576 0.606609 0.020659
C39   C     C_3   0.210175 0.192139 0.543002 -0.281877
C40   C     C_3   0.170977 0.080754 0.494868 -0.456104
C41   C     C_3   0.959645 0.345667 0.244190 -0.136022
C42   C     C_3   0.820048 0.462036 0.276926 -0.111643
C43   C     C_3   0.729737 0.426997 0.204657 -0.158552
C44   C     C_3   0.867191 0.313795 0.172722 0.081780
C45   C     C_3   0.478357 0.749814 0.211589 -0.128863
Cr1   Cr    Cr6+3 0.608340 0.611040 0.520430 1.022009
Cr2   Cr    Cr6+3 0.287650 0.601120 0.489350 1.024109
Cr3   Cr    Cr6+3 0.604040 0.287870 0.490280 0.997997
Cr4   Cr    Cr6+3 0.054020 0.052700 0.970850 1.033861
Cr5   Cr    Cr6+3 0.059230 0.375120 0.993390 1.024867
Cr6   Cr    Cr6+3 0.374950 0.061200 0.992340 1.037822
H1    H     H_    0.633390 0.295767 0.254644 0.131123
H2    H     H_    0.048391 0.151361 0.326652 0.097857
H3    H     H_    0.054806 0.359550 0.239249 0.123948
H4    H     H_    0.801325 0.570796 0.302833 0.138938
H5    H     H_    0.644888 0.490487 0.159296 0.108501
H6    H     H_    0.460128 0.541528 0.238933 0.096946
H7    H     H_    0.581168 0.719671 0.188113 0.118146
H8    H     H_    0.490969 0.898644 0.328627 0.133193
H9    H     H_    0.996394 0.317153 0.576060 0.203936
H10   H     H_    0.114295 0.210780 0.653093 0.111983
H11   H     H_    0.206129 0.265395 0.501073 0.205919
H12   H     H_    0.230776 0.061502 0.236854 0.109401
H13   H     H_    0.320998 0.136422 0.572402 0.178139
H14   H     H_    0.179015 0.003198 0.534864 0.185200
H15   H     H_    0.245246 0.022737 0.447918 0.171372
H16   H     H_    0.059789 0.132872 0.465495 0.142483
H17   H     H_    0.875953 0.007565 0.225330 0.219934
H18   H     H_    0.984657 0.004939 0.162293 0.258459
H19   H     H_    0.114931 0.893796 0.288449 0.126476
H20   H     H_    0.206128 0.702496 0.148701 0.131318
H21   H     H_    0.401612 0.554355 0.758530 0.109656
H22   H     H_    0.561202 0.314387 0.848583 0.131197
H23   H     H_    0.567492 0.133800 0.706214 0.145540
H24   H     H_    0.316104 0.136820 0.742144 0.105014
H25   H     H_    0.141751 0.562858 0.794203 0.141807
N1    N     N_3   0.882062 0.062039 0.180713 -0.605396
O1    O     O_R   0.751220 0.499230 0.435170 -0.517060
O2    O     O_R   0.412990 0.180750 0.091610 -0.498613
O3    O     O_R   0.366620 0.943130 0.065760 -0.499416
O4    O     O_R   0.477220 0.727600 0.436870 -0.506912
O5    O     O_R   0.160510 0.906330 0.879210 -0.506499
O6    O     O_R   0.930190 0.179050 0.889450 -0.495051
O7    O     O_R   0.909140 0.398170 0.896710 -0.502895
O8    O     O_R   0.186190 0.363460 0.918830 -0.502265
O9    O     O_R   0.401670 0.173200 0.913310 -0.509164
O10   O     O_R   0.356120 0.936130 0.900470 -0.497903
O11   O     O_3   0.162740 0.163010 0.985530 -0.263152
O12   O     O_R   0.297880 0.469080 0.560050 -0.460704
O13   O     O_R   0.258650 0.745120 0.411470 -0.527956
O14   O     O_R   0.297070 0.467240 0.395960 -0.506343
O15   O     O_R   0.488830 0.252610 0.387790 -0.510336
O16   O     O_R   0.724400 0.302390 0.420980 -0.506228
O17   O     O_R   0.752100 0.501210 0.612190 -0.486003
O18   O     O_R   0.478040 0.729440 0.600970 -0.502928
O19   O     O_R   0.259530 0.747110 0.588490 -0.511990
O20   O     O_3   0.121508 0.400946 0.640032 -0.536442
O21   O     O_R   0.489720 0.254590 0.564810 -0.538195
O22   O     O_R   0.725220 0.304230 0.585080 -0.515425
O23   O     O_3   0.500010 0.500010 0.500020 -0.311087
O24   O     O_R   0.171830 0.913880 0.057510 -0.531233
O25   O     O_R   0.940690 0.186050 0.054730 -0.491030
O26   O     O_R   0.920470 0.405720 0.075010 -0.525216
O27   O     O_R   0.196690 0.370460 0.084120 -0.507570

loop_
_geom_bond_atom_site_label_1
_geom_bond_atom_site_label_2
_ccdc_geom_bond_type
C6    H12   S    
C15   H24   S    
C11   C18   S    
C9    C45   S    
C1    O13   A    
C34   C37   S    
C41   C42   S    
C13   C32   S    
H18   N1    S    
C35   C36   T    
C33   O17   A    
C7    H19   S    
C2    H6    S    
Cr5   O7    S    
C7    C8    S    
Cr5   O27   S    
C39   H13   S    
C12   C23   S    
C16   O16   A    
C23   C42   S    
C28   O18   A    
C14   H23   S    
C29   O6    A    
C12   C43   S    
C3    C7    S    
Cr4   O24   S    
C38   C39   S    
C10   H22   S    
C25   O25   A    
C1    O4    A    
C25   C44   S    
C18   C19   S    
C12   C37   S    
C39   H11   S    
Cr6   O3    S    
Cr5   O8    S    
C26   O27   A    
Cr1   O18   S    
C8    C9    S    
C40   H16   S    
Cr2   O19   S    
C30   O9    A    
Cr5   O11   S    
C4    O14   A    
C4    C35   S    
Cr5   O26   S    
C22   C28   S    
C13   C14   S    
Cr2   O12   S    
Cr4   O11   S    
C34   C41   S    
C6    C9    S    
C38   O20   S    
Cr6   O9    S    
C12   H1    S    
C2    C45   S    
Cr3   O23   S    
C45   H7    S    
C31   O10   A    
Cr3   O16   S    
C5    H8    S    
C29   O7    A    
C27   O3    A    
C10   C14   S    
Cr6   O10   S    
Cr4   O25   S    
Cr1   O1    S    
C11   H21   S    
C25   O26   A    
C21   C29   S    
C27   O24   A    
Cr2   O23   S    
C1    C3    S    
Cr4   O5    S    
C15   C19   S    
C43   C44   S    
C42   H4    S    
Cr1   O4    S    
C32   O12   A    
Cr1   O17   S    
C10   C19   S    
C23   C34   S    
C17   C18   S    
C30   O8    A    
C31   O5    A    
C38   H9    S    
C20   C33   S    
C26   C36   S    
C16   C23   S    
C40   H14   S    
C41   C44   S    
C22   C24   T    
C42   C43   S    
C39   C40   S    
C9    C27   S    
H17   N1    S    
C15   C17   S    
Cr3   O22   S    
Cr1   O23   S    
C8    H20   S    
C18   H25   S    
Cr2   O14   S    
C2    C8    S    
C3    C5    S    
Cr6   O11   S    
C6    C7    S    
Cr3   O21   S    
C26   O2    A    
C13   C17   S    
C28   O19   A    
C38   H10   S    
C37   C44   S    
C2    C3    S    
C24   C31   S    
C11   C13   S    
Cr4   O6    S    
C5    C6    S    
C5    C45   S    
Cr2   O13   S    
C32   O21   A    
C16   O1    A    
Cr6   O2    S    
C41   H3    S    
C10   C11   S    
C43   H5    S    
C37   N1    S    
C20   C21   T    
C34   H2    S    
Cr3   O15   S    
C14   C15   S    
C40   H15   S    
C33   O22   A    
C19   C30   S    
C17   O20   S    
C4    O15   A    
