data_mof_unit_43988.cif
_audit_creation_date              2013-03-05T15:44:18-0500
_audit_creation_method            fapswitch 2.2
_symmetry_space_group_name_H-M    P1
_symmetry_Int_Tables_number       1
_space_group_crystal_system       triclinic
_cell_length_a                    20.608882
_cell_length_b                    7.098444
_cell_length_c                    16.882673
_cell_angle_alpha                 90.148938
_cell_angle_beta                  92.358399
_cell_angle_gamma                 89.71893
_cell_volume                      2467.65425419

loop_
_atom_site_label
_atom_site_type_symbol
_atom_site_description
_atom_site_fract_x
_atom_site_fract_y
_atom_site_fract_z
_atom_type_partial_charge
O1    O     O_R   0.564840 0.505290 0.579830 -0.525705
O2    O     O_R   0.435160 0.005290 0.420170 -0.526060
O3    O     O_R   0.556720 0.179930 0.409350 -0.558267
O4    O     O_R   0.443280 0.679930 0.590650 -0.561590
C1    C     C_R   0.570411 0.343119 0.381242 0.874045
C2    C     C_R   0.429715 0.843802 0.618575 0.872499
O5    O     O_R   0.572280 0.175810 0.578530 -0.548752
O6    O     O_R   0.427720 0.675810 0.421470 -0.546568
O7    O     O_R   0.450830 0.001920 0.590540 -0.563900
O8    O     O_R   0.549170 0.501920 0.409460 -0.565261
C3    C     C_R   0.589223 0.343241 0.605610 0.857019
C4    C     C_R   0.410274 0.843822 0.394938 0.854688
O9    O     O_3   0.460130 0.338030 0.503750 -0.257379
O10   O     O_3   0.539870 0.838030 0.496250 -0.258767
V1    V     V_3+5 0.507400 0.064560 0.499310 1.266224
V2    V     V_3+5 0.492600 0.564560 0.500690 1.264716
C5    C     C_R   0.139487 0.915086 0.173287 -0.144906
C6    C     C_R   0.857940 0.413624 0.830994 -0.116963
C7    C     C_R   0.356985 0.846398 0.331533 -0.224468
C8    C     C_R   0.641652 0.344114 0.669942 -0.225540
C9    C     C_R   0.302184 0.687874 0.218715 0.364071
C10   C     C_R   0.694416 0.186551 0.784327 0.364530
C11   C     C_R   0.356151 0.707692 0.271650 -0.133070
C12   C     C_R   0.641474 0.206975 0.729921 -0.136772
C13   C     C_R   0.306047 0.981070 0.331687 0.353026
C14   C     C_R   0.693214 0.474219 0.669779 0.351105
C15   C     C_R   0.249721 0.960493 0.279820 -0.063226
C16   C     C_R   0.749044 0.451977 0.722269 -0.058676
C17   C     C_R   0.246851 0.806915 0.225084 -0.065450
C18   C     C_R   0.750120 0.304646 0.780126 -0.044808
C19   C     C_R   0.188643 0.775742 0.178107 -0.016465
C20   C     C_R   0.806271 0.283016 0.832595 -0.019235
C21   C     C_R   0.139214 0.051238 0.233442 -0.155662
C22   C     C_R   0.859388 0.541377 0.768097 -0.148982
C23   C     C_R   0.193964 0.079565 0.284648 0.377345
C24   C     C_R   0.805225 0.567046 0.716159 0.377103
C25   C     C_R   0.373923 0.658729 0.810578 0.357321
C26   C     C_R   0.625235 0.197773 0.179496 0.350642
H1    H     H_    0.461486 0.651512 0.746994 0.118858
H2    H     H_    0.540278 0.161101 0.247543 0.123409
H3    H     H_    0.292109 0.626365 0.928132 0.204078
H4    H     H_    0.697265 0.264950 0.053850 0.197067
C27   C     C_R   0.391064 0.837256 0.690375 -0.153138
C28   C     C_R   0.610105 0.337796 0.309812 -0.155227
C29   C     C_R   0.085306 0.005588 0.740452 0.264437
C30   C     C_R   0.917523 0.484874 0.262086 0.268416
C31   C     C_R   0.117449 0.984011 0.668972 -0.178023
C32   C     C_R   0.885309 0.448923 0.332509 -0.180906
C33   C     C_R   0.180187 0.904164 0.668828 0.271011
C34   C     C_R   0.820888 0.382453 0.329447 0.272576
C35   C     C_R   0.213971 0.867401 0.741949 -0.034842
C36   C     C_R   0.785560 0.376832 0.255597 -0.028123
C37   C     C_R   0.177138 0.849630 0.811465 -0.131271
C38   C     C_R   0.820023 0.390723 0.184296 -0.113821
C39   C     C_R   0.282896 0.833090 0.746551 0.037828
C40   C     C_R   0.716722 0.349219 0.250435 0.029946
C41   C     C_R   0.309068 0.724101 0.810411 -0.081146
C42   C     C_R   0.689065 0.270093 0.180163 -0.068486
C43   C     C_R   0.271392 0.693815 0.875590 -0.010656
C44   C     C_R   0.722695 0.289271 0.110207 -0.002949
C45   C     C_R   0.208864 0.766946 0.878920 0.364071
C46   C     C_R   0.783444 0.378058 0.111369 0.297063
C47   C     C_R   0.327150 0.909058 0.692093 -0.059254
C48   C     C_R   0.673805 0.410014 0.309487 -0.061590
C49   C     C_R   0.413221 0.712322 0.749570 -0.077038
C50   C     C_R   0.587872 0.225089 0.246076 -0.092242
C51   C     C_R   0.111198 0.917512 0.810412 -0.166991
C52   C     C_R   0.888389 0.425785 0.188546 -0.144565
O11   O     O_R   0.950790 0.256670 0.090520 -0.578966
O12   O     O_R   0.049210 0.756670 0.909480 -0.538309
O13   O     O_R   0.927720 0.590370 0.921470 -0.547041
O14   O     O_R   0.072280 0.090370 0.078530 -0.548899
C53   C     C_R   0.910615 0.421198 0.894855 0.853783
C54   C     C_R   0.087746 0.921334 0.107498 0.905506
O15   O     O_R   0.943270 0.586180 0.090640 -0.503565
O16   O     O_R   0.056730 0.086180 0.909360 -0.526392
O17   O     O_R   0.064850 0.759970 0.079840 -0.528461
O18   O     O_R   0.935150 0.259970 0.920160 -0.558449
C55   C     C_R   0.928541 0.419992 0.117147 0.917245
C56   C     C_R   0.070670 0.918432 0.881902 0.948104
O19   O     O_3   0.039850 0.428050 0.996240 -0.246401
O20   O     O_3   0.960150 0.928050 0.003760 -0.281370
V3    V     V_3+5 0.992610 0.701540 0.000700 1.308867
V4    V     V_3+5 0.007390 0.201540 0.999300 1.277349
C57   C     C_1   0.173113 0.587853 0.149907 0.567123
N1    N     N_1   0.160623 0.436446 0.128940 -0.170806
C58   C     C_1   0.812828 0.126986 0.887789 0.452943
N2    N     N_1   0.818482 0.002771 0.931899 -0.148582
C59   C     C_1   0.311675 0.081625 0.649955 0.377148
N3    N     N_1   0.299357 0.222116 0.618007 -0.140261
C60   C     C_1   0.689696 0.576788 0.355346 0.378876
N4    N     N_1   0.702567 0.713944 0.389518 -0.123698
N5    N     N_R   0.026656 0.118056 0.740923 0.083153
O21   O     O_R   0.975032 0.059693 0.775026 -0.371776
O22   O     O_R   0.024955 0.281937 0.706540 -0.358684
N6    N     N_R   0.978124 0.587699 0.266163 0.084905
O23   O     O_R   0.025476 0.547035 0.220404 -0.390313
O24   O     O_R   0.984673 0.731943 0.313519 -0.346410
N7    N     N_R   0.205919 0.835397 0.595899 0.082579
O25   O     O_R   0.199523 0.931939 0.530726 -0.279819
O26   O     O_R   0.233329 0.669955 0.593752 -0.308943
N8    N     N_R   0.793742 0.302266 0.399101 0.082329
O27   O     O_R   0.800185 0.385653 0.467627 -0.280816
O28   O     O_R   0.764777 0.139839 0.394645 -0.313601
C61   C     C_1   0.083210 0.032106 0.595116 0.554301
N9    N     N_1   0.055648 0.070508 0.536192 -0.153434
C62   C     C_1   0.920986 0.465228 0.407888 0.554877
N10   N     N_1   0.949623 0.478135 0.468078 -0.152862
N11   N     N_R   0.180100 0.758106 0.953371 0.045029
O29   O     O_R   0.193546 0.891468 0.004181 -0.384432
O30   O     O_R   0.162337 0.594302 0.978446 -0.343204
N12   N     N_R   0.798312 0.494269 0.044870 0.057043
O31   O     O_R   0.819935 0.663681 0.058424 -0.321210
O32   O     O_R   0.769420 0.462365 0.976355 -0.372743
C63   C     C_1   0.077462 0.128954 0.254808 0.464584
N13   N     N_1   0.027466 0.184017 0.273374 -0.218570
C64   C     C_1   0.920545 0.625790 0.748963 0.476464
N14   N     N_1   0.969901 0.688297 0.732592 -0.201207
N15   N     N_R   0.306257 0.555346 0.154606 0.078418
O33   O     O_R   0.315707 0.377046 0.169008 -0.312841
O34   O     O_R   0.305077 0.615127 0.081827 -0.298316
N16   N     N_R   0.689315 0.047499 0.845144 0.074756
O35   O     O_R   0.694718 0.869677 0.827514 -0.306931
O36   O     O_R   0.666700 0.096005 0.913065 -0.279638
N17   N     N_R   0.190609 0.226230 0.342860 0.121874
O37   O     O_R   0.195230 0.400937 0.320873 -0.327258
O38   O     O_R   0.167077 0.189255 0.411328 -0.248890
N18   N     N_R   0.809484 0.708145 0.656003 0.119224
O39   O     O_R   0.807952 0.885176 0.676070 -0.303919
O40   O     O_R   0.830848 0.661647 0.587205 -0.251729
C65   C     C_1   0.413403 0.593483 0.259442 0.472607
N19   N     N_1   0.459002 0.502405 0.249201 -0.252677
C66   C     C_1   0.584519 0.091755 0.740063 0.479584
N20   N     N_1   0.539226 0.999756 0.748815 -0.249021
N21   N     N_R   0.311937 0.137049 0.385176 0.125234
O41   O     O_R   0.331469 0.299020 0.359658 -0.313732
O42   O     O_R   0.308456 0.109505 0.460869 -0.287568
N22   N     N_R   0.688516 0.627389 0.615141 0.124517
O43   O     O_R   0.669234 0.792131 0.638878 -0.310472
O44   O     O_R   0.692755 0.594452 0.539902 -0.293639
N23   N     N_R   0.399584 0.528704 0.869227 0.097323
O45   O     O_R   0.367002 0.378498 0.886185 -0.316926
O46   O     O_R   0.459832 0.541840 0.894809 -0.263181
N24   N     N_R   0.598839 0.089445 0.113757 0.102492
O47   O     O_R   0.635130 0.967848 0.078148 -0.273171
O48   O     O_R   0.536618 0.091115 0.097088 -0.265455

loop_
_geom_bond_atom_site_label_1
_geom_bond_atom_site_label_2
_geom_bond_distance
_ccdc_geom_bond_type
C12   C66   1.450069 S    
C58   N2    1.157962 T    
N5    O21   1.300384 A    
C19   C57   1.447839 S    
C15   C17   1.427155 A    
C46   N12   1.438886 S    
C28   C50   1.402283 A    
O1    C3    1.320630 A    
C45   N11   1.413266 S    
N18   O39   1.301234 A    
O16   V4    2.030414 S    
C2    O7    1.302934 A    
N12   O32   1.298892 A    
C27   C47   1.411413 A    
N21   O41   1.300355 A    
C31   C33   1.409265 A    
C57   N1    1.157540 T    
C28   C48   1.411892 A    
O5    C3    1.315893 A    
C25   N23   1.438348 S    
C39   C47   1.429777 A    
N23   O46   1.301413 A    
C41   C43   1.390384 A    
C32   C62   1.447956 S    
C38   C52   1.430825 A    
O17   V3    2.003281 S    
C42   C44   1.401040 A    
C63   N13   1.155275 T    
C44   C46   1.403805 A    
C29   C31   1.407983 A    
C23   N17   1.433201 S    
C26   C42   1.414027 A    
C37   C45   1.416814 A    
C8    C12   1.406601 A    
C31   C61   1.447974 S    
C54   O17   1.317993 A    
N6    O24   1.301548 A    
C29   C51   1.421035 A    
C34   C36   1.418262 A    
C53   O18   1.314185 A    
C40   C48   1.424452 A    
C35   C39   1.439013 A    
C14   N22   1.428023 S    
C27   C49   1.398864 A    
C22   C64   1.447019 S    
C32   C34   1.410073 A    
O2    C4    1.320405 A    
N5    O22   1.301109 A    
H2    C50   1.084173 S    
H1    C49   1.084839 S    
C24   N18   1.433802 S    
C5    C21   1.400282 A    
C37   C51   1.439059 A    
N12   O31   1.300973 A    
O19   V3    2.170041 S    
C36   C38   1.426483 A    
C10   N16   1.433421 S    
O13   V3    2.014444 S    
N15   O34   1.300213 A    
C9    C11   1.405173 A    
C30   C32   1.409843 A    
C3    C8    1.500191 S    
C43   C45   1.390125 A    
C21   C63   1.443573 S    
O12   C56   1.324991 A    
C26   C50   1.400942 A    
H3    C43   1.080466 S    
N24   O48   1.301462 A    
H4    C44   1.081084 S    
C60   N4    1.156758 T    
O13   C53   1.325345 A    
O5    V1    2.014430 S    
C38   C46   1.419840 A    
C15   C23   1.428040 A    
C20   C58   1.451485 S    
C9    C17   1.423444 A    
C33   C35   1.416318 A    
C25   C49   1.391117 A    
C35   C37   1.429871 A    
O4    V2    2.030486 S    
C7    C11   1.409039 A    
C30   C52   1.419964 A    
O12   V3    2.010212 S    
C33   N7    1.443442 S    
N7    O25   1.299510 A    
O6    C4    1.318175 A    
N6    O23   1.300215 A    
C47   C59   1.445806 S    
C11   C65   1.449709 S    
O1    V2    2.002926 S    
N8    O28   1.301523 A    
O2    V1    2.004533 S    
C6    C22   1.399546 A    
O14   V4    2.012027 S    
N22   O44   1.297370 A    
O14   C54   1.329282 A    
N7    O26   1.301746 A    
C1    C28   1.485096 S    
C29   N5    1.445571 S    
C34   N8    1.442418 S    
C6    C53   1.499221 S    
O20   V4    2.178919 S    
C2    C27   1.478578 S    
C39   C41   1.415705 A    
N17   O37   1.300496 A    
C5    C19   1.412462 A    
C10   C12   1.404198 A    
O11   C55   1.328692 A    
O4    C2    1.287763 A    
C6    C20   1.416454 A    
C62   N10   1.157582 T    
N16   O36   1.300392 A    
C65   N19   1.156643 T    
C59   N3    1.157127 T    
O19   V4    1.746212 S    
O3    V1    2.037677 S    
N21   O42   1.298223 A    
C9    N15   1.436962 S    
C10   C18   1.429034 A    
C5    C54   1.508303 S    
C26   N24   1.438404 S    
C51   C56   1.495722 S    
O16   C56   1.311508 A    
N24   O47   1.301455 A    
O3    C1    1.289865 A    
N18   O40   1.300215 A    
N15   O33   1.301622 A    
C13   C15   1.432812 A    
C61   N9    1.157564 T    
C14   C16   1.431488 A    
N11   O30   1.297962 A    
O7    V1    2.021280 S    
C1    O8    1.303377 A    
C17   C19   1.428432 A    
O11   V4    2.006422 S    
O8    V2    2.016994 S    
N23   O45   1.301589 A    
C18   C20   1.435960 A    
O15   V3    2.037609 S    
C66   N20   1.156486 T    
C8    C14   1.411377 A    
C52   C55   1.490263 S    
C4    C7    1.501802 S    
C16   C18   1.432344 A    
C21   C23   1.407826 A    
C40   C42   1.411326 A    
C22   C24   1.402255 A    
N8    O27   1.300376 A    
C13   N21   1.429421 S    
N22   O43   1.300822 A    
C7    C13   1.416419 A    
O18   V4    2.001694 S    
C30   N6    1.448746 S    
C16   C24   1.427564 A    
O6    V2    2.012010 S    
O20   V3    1.739910 S    
O9    V2    1.746423 S    
N11   O29   1.299062 A    
N17   O38   1.299699 A    
O10   V1    1.740119 S    
C48   C60   1.444407 S    
N16   O35   1.301418 A    
C64   N14   1.155905 T    
O15   C55   1.304409 A    
C25   C41   1.412588 A    
C36   C40   1.432174 A    
