data_mof_unit_32984.cif
_audit_creation_date              2012-12-10T18:47:08-0500
_audit_creation_method            fapswitch 2.2
_symmetry_space_group_name_H-M    P1
_symmetry_Int_Tables_number       1
_space_group_crystal_system       triclinic
_cell_length_a                    10.746852
_cell_length_b                    9.917613
_cell_length_c                    14.914799
_cell_angle_alpha                 88.654657
_cell_angle_beta                  92.144842
_cell_angle_gamma                 86.909699
_cell_volume                      1585.72415386

loop_
_atom_site_label
_atom_site_type_symbol
_atom_type_description
_atom_site_fract_x
_atom_site_fract_y
_atom_site_fract_z
_atom_type_partial_charge
C1    C     C_R   0.260074 0.503928 0.502165 0.838904
C2    C     C_R   0.126839 0.512078 0.508716 -0.178805
C3    C     C_R   0.559786 0.064456 0.567938 0.108557
C4    C     C_R   0.440178 0.935524 0.432065 0.111304
C5    C     C_R   0.438026 0.079038 0.433359 0.198885
C6    C     C_R   0.561944 0.920955 0.566649 0.200297
C7    C     C_R   0.499101 0.501454 0.327386 0.901964
C8    C     C_R   0.500923 0.498647 0.672628 0.897664
C9    C     C_R   0.614942 0.464658 0.816119 0.045086
C10   C     C_R   0.384708 0.535900 0.184135 0.050372
C11   C     C_R   0.503551 0.496731 0.767963 -0.034388
C12   C     C_R   0.739944 0.496127 0.497947 0.835179
C13   C     C_R   0.496491 0.505072 0.232069 -0.044275
C14   C     C_R   0.394535 0.534353 0.808440 -0.301306
C15   C     C_R   0.607558 0.478669 0.191174 -0.300346
C16   C     C_R   0.391037 0.535650 0.901030 0.081447
C17   C     C_R   0.611732 0.483266 0.098525 0.055587
C18   C     C_R   0.503317 0.508264 0.952832 -0.013547
C19   C     C_R   0.499442 0.509919 0.046725 -0.028414
C20   C     C_R   0.618978 0.478862 0.910443 0.008048
C21   C     C_R   0.383616 0.537056 0.089163 0.057326
C22   C     C_R   0.276999 0.563830 0.942123 0.061097
C23   C     C_R   0.272713 0.563835 0.035459 0.080352
C24   C     C_R   0.726873 0.464582 0.057315 0.111519
C25   C     C_2   0.150740 0.327924 0.628383 0.409608
C26   C     C_2   0.849421 0.673249 0.372521 0.412442
C27   C     C_2   0.891351 0.276708 0.590044 0.537205
C28   C     C_2   0.108439 0.725037 0.411754 0.537731
C29   C     C_R   0.731572 0.465979 0.964302 0.093197
C30   C     C_R   0.073045 0.410501 0.559392 -0.071183
C31   C     C_R   0.927055 0.590171 0.441308 -0.071149
C32   C     C_R   0.946004 0.393702 0.546583 -0.046078
C33   C     C_R   0.054018 0.607150 0.454333 -0.043512
C34   C     C_R   0.873241 0.488315 0.491792 -0.179155
H1    H     H_    0.312031 0.558978 0.766012 0.130122
H2    H     H_    0.852819 0.530509 0.149527 0.182248
H3    H     H_    0.117415 0.685209 0.051982 0.212151
H4    H     H_    0.093455 0.517213 0.052830 0.231125
H5    H     H_    0.860876 0.552623 0.887349 0.191307
H6    H     H_    0.877269 0.376844 0.897274 0.187500
H7    H     H_    0.228790 0.372339 0.662697 0.049779
H8    H     H_    0.771458 0.629097 0.337988 0.049675
H9    H     H_    0.882865 0.272337 0.662197 0.030126
H10   H     H_    0.115193 0.731613 0.339523 0.032211
H11   H     H_    0.660700 0.209735 0.622744 0.258701
H12   H     H_    0.690650 0.456078 0.233353 0.127364
H13   H     H_    0.545573 0.154465 0.686695 0.207107
H14   H     H_    0.339099 0.790280 0.377162 0.254431
H15   H     H_    0.454399 0.845444 0.313307 0.205827
H16   H     H_    0.276491 0.132868 0.365058 0.209732
H17   H     H_    0.405192 0.133207 0.302778 0.181361
H18   H     H_    0.723440 0.867147 0.635012 0.208880
H19   H     H_    0.594685 0.866761 0.697237 0.180457
H20   H     H_    0.787866 0.475693 0.762232 0.170869
H21   H     H_    0.746835 0.313961 0.794199 0.187880
H22   H     H_    0.239776 0.662860 0.218462 0.202762
H23   H     H_    0.210551 0.492656 0.223054 0.210501
H24   H     H_    0.145007 0.507975 0.850782 0.184169
H25   H     H_    0.170675 0.676742 0.849293 0.198799
H26   H     H_    0.841556 0.359193 0.148922 0.191323
N1    N     N_R   0.500000 0.857200 0.500000 -0.115011
N2    N     N_3   0.383601 0.875016 0.355956 -0.461880
N3    N     N_3   0.369626 0.158351 0.364875 -0.379223
N4    N     N_3   0.630308 0.841645 0.635151 -0.381220
N5    N     N_R   0.500000 0.142800 0.500000 -0.115555
N6    N     N_3   0.716843 0.408664 0.766966 -0.503254
N7    N     N_3   0.275910 0.565122 0.234831 -0.493848
N8    N     N_3   0.162394 0.591061 0.890356 -0.474245
N9    N     N_3   0.842663 0.447015 0.108871 -0.446333
N10   N     N_3   0.153991 0.589984 0.074422 -0.481689
N11   N     N_3   0.853674 0.467014 0.928565 -0.445010
N12   N     N_3   0.616367 0.124947 0.644028 -0.460338
O1    O     O_R   0.316770 0.614620 0.499990 -0.605158
O2    O     O_2   0.868153 0.791435 0.356039 -0.545069
O3    O     O_2   0.863686 0.180415 0.545329 -0.513330
O4    O     O_2   0.137740 0.819740 0.457415 -0.515300
O5    O     O_R   0.683230 0.385380 0.500010 -0.604518
O6    O     O_R   0.683230 0.614620 0.500010 -0.594540
O7    O     O_R   0.316770 0.385380 0.499990 -0.593437
O8    O     O_R   0.499980 0.614680 0.367850 -0.655351
O9    O     O_R   0.500020 0.385320 0.632150 -0.651872
O10   O     O_R   0.500020 0.614680 0.632150 -0.595299
O11   O     O_R   0.499980 0.385320 0.367850 -0.592508
O12   O     O_2   0.131835 0.209934 0.645386 -0.544596
Zn1   Zn    Zn3+2 0.500000 0.653120 0.500000 0.984273
Zn2   Zn    Zn3+2 0.500000 0.346880 0.500000 0.986291

loop_
_geom_bond_atom_site_label_1
_geom_bond_atom_site_label_2
_ccdc_geom_bond_type
C7    O11   A    
H4    N10   S    
H6    N11   S    
C3    C6    A    
N5    Zn2   S    
C10   N7    S    
C26   H8    S    
C8    O10   A    
C6    N1    A    
C19   C21   A    
C18   C19   A    
C11   C14   A    
C4    N2    S    
C5    N3    S    
C1    C2    S    
C6    N4    S    
C9    N6    S    
C17   C19   A    
C24   C29   A    
C12   O6    A    
C25   O12   D    
C31   C33   A    
O9    Zn2   S    
C26   C31   S    
H3    N10   S    
H11   N12   S    
H16   N3    S    
C23   N10   S    
C3    N5    A    
H23   N7    S    
C27   O3    D    
C24   N9    S    
C20   C29   A    
C10   C21   A    
C17   C24   A    
C8    O9    A    
H17   N3    S    
C5    N5    A    
H18   N4    S    
C25   H7    S    
C14   H1    S    
H19   N4    S    
C4    N1    A    
C28   H10   S    
C32   C34   A    
O8    Zn1   S    
H25   N8    S    
C9    C20   A    
H14   N2    S    
O1    Zn1   S    
C12   O5    A    
C31   C34   A    
C9    C11   A    
C22   N8    S    
N1    Zn1   S    
C2    C33   A    
H24   N8    S    
C28   C33   S    
C13   C15   A    
C1    O7    A    
C14   C16   A    
C12   C34   S    
H22   N7    S    
H21   N6    S    
H2    N9    S    
O6    Zn1   S    
C25   C30   S    
C15   C17   A    
C16   C22   A    
H15   N2    S    
C27   C32   S    
C4    C5    A    
C10   C13   A    
O5    Zn2   S    
H20   N6    S    
O10   Zn1   S    
C2    C30   A    
C1    O1    A    
C21   C23   A    
C3    N12   S    
C30   C32   A    
H26   N9    S    
C8    C11   S    
C26   O2    D    
C18   C20   A    
H13   N12   S    
C27   H9    S    
C7    C13   S    
O11   Zn2   S    
C16   C18   A    
H5    N11   S    
C22   C23   A    
C15   H12   S    
O7    Zn2   S    
C7    O8    A    
C29   N11   S    
C28   O4    D    
