data_mof_unit_15949.cif
_audit_creation_date              2013-03-05T16:15:22-0500
_audit_creation_method            fapswitch 2.2
_symmetry_space_group_name_H-M    P1
_symmetry_Int_Tables_number       1
_space_group_crystal_system       triclinic
_cell_length_a                    8.189894
_cell_length_b                    17.370154
_cell_length_c                    18.781906
_cell_angle_alpha                 102.660102
_cell_angle_beta                  91.54677
_cell_angle_gamma                 98.521686
_cell_volume                      2573.26525324

loop_
_atom_site_label
_atom_site_type_symbol
_atom_site_description
_atom_site_fract_x
_atom_site_fract_y
_atom_site_fract_z
_atom_type_partial_charge
P1    P     P_3+3 0.038810 0.422920 0.331160 0.476691
O1    O     O_2   0.871520 0.445720 0.321500 -0.375993
O2    O     O_3   0.121030 0.451930 0.411150 -0.379701
O3    O     O_3   0.662190 0.593100 0.375060 -0.352083
O4    O     O_2   0.765776 0.528101 0.246971 -0.384634
O5    O     O_3   0.015517 0.319474 0.299667 -0.597340
O6    O     O_3   0.735231 0.675716 0.260944 -0.511998
C1    C     C_3   0.654006 0.791417 0.226254 -0.624645
H1    H     H_    0.685740 0.760117 0.171294 0.197053
P2    P     P_3+3 0.678260 0.686080 0.568600 0.482132
P3    P     P_3+3 0.127708 0.737345 0.417909 0.487138
O7    O     O_2   0.853880 0.696450 0.547730 -0.359757
O8    O     O_3   0.085100 0.636210 0.413950 -0.352094
O9    O     O_2   0.016896 0.779761 0.474129 -0.379404
O10   O     O_3   0.691666 0.714275 0.664222 -0.552818
O11   O     O_3   0.054760 0.748320 0.332763 -0.485396
C2    C     C_3   0.172231 0.727828 0.281445 0.334412
H2    H     H_    0.228744 0.675925 0.290365 0.042757
H3    H     H_    0.270302 0.780616 0.286163 0.056819
C3    C     C_3   0.089647 0.703474 0.203610 -0.546708
H4    H     H_    0.032828 0.639452 0.191830 0.233219
H5    H     H_    0.989252 0.738143 0.198055 0.233601
C4    C     C_3   0.240173 0.711610 0.632446 0.436491
H6    H     H_    0.357608 0.691891 0.615033 0.075308
H7    H     H_    0.145016 0.691681 0.586382 0.132217
C5    C     C_3   0.264905 0.802293 0.654822 -0.906347
H8    H     H_    0.369915 0.824488 0.696480 0.267100
H9    H     H_    0.291255 0.828019 0.606770 0.213484
H10   H     H_    0.150822 0.822361 0.677885 0.281451
Ba1   Ba    Ba6+2 0.853800 0.535410 0.467450 1.574302
C6    C     C_3   0.935295 0.277488 0.347216 0.070916
H11   H     H_    0.821810 0.301604 0.364887 0.077526
H12   H     H_    0.018864 0.280587 0.395697 0.145697
C7    C     C_3   0.889505 0.191005 0.303014 0.341872
H13   H     H_    0.806711 0.192087 0.255354 0.055882
C8    C     C_3   0.726986 0.650899 0.693735 0.263391
H14   H     H_    0.853894 0.640183 0.681637 0.094539
H15   H     H_    0.637819 0.595450 0.671639 0.096258
C9    C     C_3   0.712367 0.673013 0.776295 -0.130877
H16   H     H_    0.730638 0.622030 0.800635 0.055773
H17   H     H_    0.585570 0.686340 0.787206 0.130070
P4    P     P_3+3 0.150900 0.577150 0.668860 0.479533
O12   O     O_2   0.318180 0.554310 0.678550 -0.385518
O13   O     O_3   0.068680 0.548140 0.588860 -0.410838
O14   O     O_3   0.527520 0.406960 0.624950 -0.351816
O15   O     O_3   0.191119 0.681562 0.692959 -0.529410
P5    P     P_3+3 0.071731 0.261752 0.584027 0.509532
O16   O     O_3   0.608500 0.402060 0.457050 -0.407991
O17   O     O_3   0.104610 0.363860 0.586060 -0.359081
O18   O     O_2   0.187022 0.222071 0.528584 -0.339095
O19   O     O_3   0.144021 0.246953 0.667650 -0.482777
Ba2   Ba    Ba6+2 0.336030 0.464660 0.532560 1.594290
P6    P     P_3+3 0.646966 0.584854 0.280636 0.469152
C10   C     C_3   0.626359 0.731715 0.276704 0.496063
H18   H     H_    0.496294 0.702185 0.264808 -0.043531
H19   H     H_    0.536336 0.814229 0.218820 0.196450
O20   O     O_3   0.581210 0.598010 0.542960 -0.408314
C11   C     C_3   0.465934 0.330766 0.305171 0.352228
H20   H     H_    0.361440 0.357534 0.331627 0.097201
H21   H     H_    0.575673 0.378040 0.311419 0.096047
C12   C     C_3   0.415230 0.299557 0.223626 -0.585716
H22   H     H_    0.291282 0.261983 0.216917 0.271290
H23   H     H_    0.405517 0.351015 0.198397 0.159998
P7    P     P_3+3 0.519059 0.300943 0.431188 0.493565
O21   O     O_2   0.335820 0.303580 0.452320 -0.327843
O22   O     O_3   0.503356 0.268057 0.335929 -0.534228
C13   C     C_3   0.025830 0.263229 0.719179 0.274687
H24   H     H_    0.008486 0.326937 0.727654 0.059544
H25   H     H_    0.906702 0.223489 0.700241 -0.010167
C14   C     C_3   0.086150 0.247222 0.792316 -0.274237
H26   H     H_    0.212137 0.281856 0.808201 0.215097
P8    P     P_3+3 0.541810 0.413391 0.717790 0.474285
C15   C     C_3   0.596909 0.271091 0.711078 0.439452
H27   H     H_    0.699370 0.293078 0.753825 -0.001893
O23   O     O_2   0.406509 0.461365 0.750206 -0.379175
O24   O     O_3   0.469598 0.316541 0.727218 -0.472482
H28   H     H_    0.642710 0.274010 0.656537 0.059869
H29   H     H_    0.631736 0.147554 0.697782 0.207803
C16   C     C_3   0.531788 0.184277 0.710329 -0.977219
H30   H     H_    0.428789 0.160914 0.667826 0.281070
H31   H     H_    0.487016 0.179306 0.764669 0.254987
C17   C     C_R   0.993093 0.464255 0.048160 0.016915
C18   C     C_R   0.893105 0.425819 0.093918 0.112699
C19   C     C_R   0.728995 0.393602 0.071282 -0.155722
C20   C     C_R   0.664209 0.398602 0.003734 -0.194098
C21   C     C_R   0.763462 0.434088 0.955470 0.079872
C22   C     C_R   0.929201 0.467184 0.977924 0.005169
C23   C     C_R   0.699113 0.436059 0.885462 -0.050330
C24   C     C_R   0.803964 0.466291 0.834601 -0.048739
C25   C     C_R   0.969835 0.502841 0.858896 -0.023294
C26   C     C_R   0.030471 0.503519 0.930936 -0.019928
C27   C     C_R   0.752286 0.460168 0.760022 0.135336
C28   C     C_R   0.864210 0.489448 0.712782 -0.545128
C29   C     C_R   0.022781 0.531269 0.736943 0.281974
C30   C     C_R   0.076170 0.538734 0.811634 -0.000101
C31   C     C_R   0.156612 0.499094 0.072603 -0.012353
C32   C     C_R   0.216866 0.499368 0.144415 -0.002397
C33   C     C_R   0.112371 0.463238 0.191432 -0.054575
C34   C     C_R   0.955859 0.421735 0.162693 -0.132987
H32   H     H_    0.648965 0.365731 0.106484 0.134704
H33   H     H_    0.535571 0.373289 0.990092 0.128024
H34   H     H_    0.824021 0.482775 0.656121 0.177948
H35   H     H_    0.877568 0.388240 0.194187 0.159530
C35   C     C_R   0.234134 0.579690 0.840467 -0.092013
C36   C     C_R   0.295433 0.577583 0.910489 0.088879
C37   C     C_R   0.194475 0.538727 0.955684 0.008859
C38   C     C_R   0.257812 0.535828 0.026082 0.025752
C39   C     C_R   0.458606 0.612395 0.935502 -0.158508
C40   C     C_R   0.522189 0.607691 0.004015 -0.192467
C41   C     C_R   0.422594 0.569882 0.049917 0.118845
C42   C     C_R   0.380977 0.535750 0.168897 -0.021768
C43   C     C_R   0.484209 0.567751 0.119914 -0.268428
C44   C     C_R   0.434860 0.540671 0.242206 0.157798
C45   C     C_R   0.325907 0.510520 0.289704 -0.528414
C46   C     C_R   0.166221 0.470794 0.265755 0.297535
H36   H     H_    0.313621 0.611777 0.808208 0.153988
H37   H     H_    0.538235 0.642472 0.901707 0.135523
H38   H     H_    0.649045 0.634471 0.021427 0.144648
H39   H     H_    0.611433 0.593801 0.136305 0.177594
H40   H     H_    0.368546 0.515045 0.345699 0.178065
C47   C     C_2   0.438895 0.720671 0.480860 -0.427445
C48   C     C_3   0.352499 0.772588 0.441735 0.098971
C49   C     C_2   0.388490 0.859020 0.479042 -0.206397
C50   C     C_2   0.533570 0.888045 0.517988 0.130981
C51   C     C_2   0.633862 0.830265 0.539504 -0.236536
C52   C     C_1   0.574320 0.752402 0.524453 0.305712
C53   C     C_R   0.788092 0.142266 0.548158 -0.219736
C54   C     C_R   0.856724 0.221731 0.551229 0.232368
C55   C     C_R   0.614522 0.239878 0.483665 0.264793
C56   C     C_R   0.543769 0.161318 0.481608 -0.081102
C57   C     C_R   0.631336 0.111074 0.512113 -0.020094
C58   C     C_2   0.591268 0.975807 0.538622 -0.371769
C59   C     C_2   0.573943 0.023751 0.491684 0.384675
C60   C     C_R   0.768639 0.270319 0.519880 -0.473534
H41   H     H_    0.753859 0.852642 0.568568 0.163484
H42   H     H_    0.861769 0.103816 0.568362 0.136955
H43   H     H_    0.649377 0.001163 0.593044 0.140728
H44   H     H_    0.305161 0.898368 0.467540 0.185959
H45   H     H_    0.425112 0.138422 0.452184 0.204509
H46   H     H_    0.408038 0.656368 0.461527 0.168711
H47   H     H_    0.824209 0.330765 0.519627 0.165523
N1    N     N_3   0.649132 0.771848 0.353976 -0.192753
H48   H     H_    0.584961 0.820186 0.362094 0.127071
H49   H     H_    0.774008 0.794516 0.367873 0.208020
N2    N     N_R   0.800821 0.139831 0.345731 0.205106
O25   O     O_R   0.647038 0.109143 0.326727 -0.336267
O26   O     O_R   0.880699 0.114314 0.394383 -0.352539
N3    N     N_R   0.036980 0.158619 0.275673 0.257779
O27   O     O_R   0.159038 0.156193 0.320573 -0.302831
O28   O     O_R   0.046778 0.131846 0.205838 -0.383102
N4    N     N_3   0.781678 0.860089 0.256400 -0.122471
H50   H     H_    0.894369 0.840689 0.263126 0.186327
H51   H     H_    0.796730 0.895621 0.218007 0.198859
N5    N     N_R   0.834352 0.742300 0.810324 0.284850
O29   O     O_R   0.990537 0.736130 0.813920 -0.364422
O30   O     O_R   0.786543 0.808952 0.841945 -0.344186
N6    N     N_3   0.533932 0.252932 0.185171 -0.172417
H52   H     H_    0.653683 0.283923 0.200037 0.125251
H53   H     H_    0.525355 0.198827 0.201674 0.227274
N7    N     N_3   0.207937 0.715764 0.148810 -0.202271
H54   H     H_    0.312390 0.690992 0.158646 0.132012
H55   H     H_    0.245904 0.777200 0.155125 0.156262
N8    N     N_3   0.978328 0.273315 0.850655 -0.198319
H56   H     H_    0.857559 0.243551 0.835875 0.129174
H57   H     H_    0.976809 0.334355 0.856425 0.109488
N9    N     N_3   0.094952 0.162353 0.785710 -0.174947
H58   H     H_    0.177796 0.144646 0.746305 0.167921
H59   H     H_    0.978887 0.128639 0.767257 0.131270
N10   N     N_3   0.526681 0.407570 0.867045 -0.158125
H60   H     H_    0.456872 0.440125 0.904741 0.124550
H61   H     H_    0.501278 0.347116 0.868326 0.119817
N11   N     N_R   0.522970 0.989398 0.416178 0.245791
O31   O     O_R   0.378656 0.996196 0.389702 -0.376431
O32   O     O_R   0.632119 0.964113 0.371654 -0.338016

loop_
_geom_bond_atom_site_label_1
_geom_bond_atom_site_label_2
_geom_bond_distance
_ccdc_geom_bond_type
C34   H35   1.077181 S    
C28   C29   1.401539 A    
C22   C26   1.411953 A    
O3    P6    1.747193 S    
P3    O8    1.724263 S    
C15   H27   1.108546 S    
C42   C43   1.413178 A    
P8    O24   1.747170 S    
C14   N8    1.462521 S    
C1    H19   1.111484 S    
C45   C46   1.397708 A    
C25   C26   1.425662 A    
C49   C50   1.347194 D    
P5    O17   1.745843 S    
C20   C21   1.413730 A    
N11   O31   1.301344 A    
C49   H44   1.083779 S    
C5    H8    1.110690 S    
N6    H52   1.045218 S    
C18   C19   1.393667 A    
C47   H46   1.084859 S    
Ba1   O16   2.800148 S    
C8    H14   1.103675 S    
N8    H57   1.043883 S    
C59   N11   1.436937 S    
N3    O28   1.300939 A    
C7    H13   1.113467 S    
C54   C60   1.398123 A    
P2    O10   1.750785 S    
C14   N9    1.464791 S    
N2    O25   1.300448 A    
C32   C42   1.415919 A    
C7    N2    1.453993 S    
C21   C23   1.412629 A    
O12   Ba2   2.860458 S    
O16   P7    1.755856 S    
C37   C38   1.421183 A    
C11   H21   1.108672 S    
C17   C22   1.420086 A    
Ba1   O20   2.896914 S    
C2    C3    1.537621 S    
C39   C40   1.398647 A    
C50   C58   1.488299 S    
P1    O1    1.498597 D    
P4    O15   1.748646 S    
C4    C5    1.519711 S    
C12   H23   1.111071 S    
P1    Ba1   3.400115 S    
C2    H3    1.111755 S    
C35   H36   1.078584 S    
C7    N3    1.465332 S    
C11   O22   1.406897 S    
N8    H56   1.045644 S    
P6    C44   1.849866 S    
C1    H1    1.113122 S    
C4    H6    1.102182 S    
C6    H12   1.111041 S    
C14   H26   1.111905 S    
N5    O30   1.300748 A    
O13   Ba2   2.899806 S    
C11   C12   1.532013 S    
N4    H51   1.045676 S    
O5    C6    1.391487 S    
N6    H53   1.045719 S    
C4    O15   1.395745 S    
C18   C34   1.397450 A    
O14   P8    1.722330 S    
N9    H59   1.046384 S    
N10   H61   1.045540 S    
C26   C37   1.411529 A    
Ba1   O13   2.791554 S    
C12   H22   1.110418 S    
P4    O13   1.574151 S    
P8    O23   1.542946 D    
C56   H45   1.080773 S    
C35   C36   1.404962 A    
N2    O26   1.300244 A    
N11   O32   1.298858 A    
C40   H38   1.083729 S    
C32   C33   1.424999 A    
P5    O18   1.543480 D    
C53   C57   1.409328 A    
C36   C39   1.405110 A    
C17   C31   1.405453 A    
C9    N5    1.458440 S    
C13   H24   1.113870 S    
C19   H32   1.082026 S    
N10   H60   1.044081 S    
O8    Ba1   2.748600 S    
P5    C54   1.831497 S    
P2    O20   1.581129 S    
C53   H42   1.082753 S    
C9    H17   1.111715 S    
C1    C10   1.548311 S    
C9    H16   1.108451 S    
C16   H31   1.110394 S    
C21   C22   1.407976 A    
O11   C2    1.408006 S    
P5    O19   1.747929 S    
O14   Ba2   2.748894 S    
C11   H20   1.111351 S    
O3    Ba1   2.749388 S    
C55   C60   1.390534 A    
P1    O2    1.573989 S    
N7    H55   1.045828 S    
O2    Ba1   2.898982 S    
C12   N6    1.462024 S    
P3    O11   1.751151 S    
P2    Ba1   3.407155 S    
C6    H11   1.104794 S    
N4    H50   1.042040 S    
O17   Ba2   2.749194 S    
C31   C32   1.422416 A    
C1    N4    1.462576 S    
C2    H2    1.113915 S    
C15   C16   1.520055 S    
C6    C7    1.534948 S    
C42   C44   1.415009 A    
O19   C13   1.401891 S    
C19   C20   1.387168 A    
C24   C27   1.428932 A    
N5    O29   1.300534 A    
C47   C48   1.518361 S    
P2    O7    1.496472 D    
C10   N1    1.459614 S    
C31   C38   1.408635 A    
C3    H5    1.104189 S    
C17   C18   1.407974 A    
N9    H58   1.044938 S    
C15   O24   1.399447 S    
N1    H49   1.044186 S    
P3    C48   1.861662 S    
P4    O12   1.498903 D    
O6    P6    1.755699 S    
C53   C54   1.399260 A    
O10   C8    1.398579 S    
C20   H33   1.080587 S    
C30   C35   1.411945 A    
C44   C45   1.405576 A    
O4    P6    1.537110 D    
Ba1   Ba2   4.521071 S    
C10   H18   1.105758 S    
C23   N10   1.431891 S    
O7    Ba1   2.872095 S    
C3    H4    1.111496 S    
P4    C29   1.908554 S    
C39   H37   1.080674 S    
C8    C9    1.526084 S    
C57   C59   1.480791 S    
C25   C30   1.434745 A    
C28   H34   1.081667 S    
C43   H39   1.080322 S    
O2    Ba2   2.792140 S    
P7    C55   1.835841 S    
C36   C37   1.408310 A    
C5    H9    1.104307 S    
O1    Ba1   2.859896 S    
C38   C41   1.409363 A    
C13   C14   1.542637 S    
N7    H54   1.042351 S    
C8    H15   1.110477 S    
C56   C57   1.409529 A    
C55   C56   1.393100 A    
C47   C52   1.332775 D    
C40   C41   1.402600 A    
P7    O21   1.567261 D    
C60   H47   1.081773 S    
H29   C16   1.109842 S    
C51   H41   1.086143 S    
C33   C46   1.424658 A    
C51   C52   1.332840 D    
P8    C27   1.867979 S    
C27   C28   1.410555 A    
P3    O9    1.546060 D    
C58   C59   1.356817 D    
N3    O27   1.301832 A    
C4    H7    1.108187 S    
C58   H43   1.086062 S    
C29   C30   1.430489 A    
C41   C43   1.405495 A    
Ba2   O20   2.799564 S    
C16   H30   1.110737 S    
O16   Ba2   2.896090 S    
C23   C24   1.433956 A    
C5    H10   1.110987 S    
C33   C34   1.404400 A    
C3    N7    1.460239 S    
P4    Ba2   3.400774 S    
P1    O5    1.743979 S    
C48   C49   1.492796 S    
C15   H28   1.109283 S    
N1    H48   1.040886 S    
P1    C46   1.883938 S    
O6    C10   1.404958 S    
C13   H25   1.108580 S    
C24   C25   1.428515 A    
P2    C52   1.846761 S    
C45   H40   1.081655 S    
Ba2   O21   2.872290 S    
P7    O22   1.749774 S    
C50   C51   1.499826 S    
