data_mof_unit_25551.cif
_audit_creation_date              2012-12-11T15:57:37-0500
_audit_creation_method            fapswitch 2.2
_symmetry_space_group_name_H-M    P1
_symmetry_Int_Tables_number       1
_space_group_crystal_system       triclinic
_cell_length_a                    10.705868
_cell_length_b                    10.750168
_cell_length_c                    16.88309
_cell_angle_alpha                 99.791591
_cell_angle_beta                  99.700858
_cell_angle_gamma                 61.170686
_cell_volume                      1669.0103392

loop_
_atom_site_label
_atom_site_type_symbol
_atom_type_description
_atom_site_fract_x
_atom_site_fract_y
_atom_site_fract_z
_atom_type_partial_charge
C1    C     C_R   0.354653 0.775252 0.401409 0.566129
C2    C     C_2   0.826993 0.331729 0.159029 -0.107385
C3    C     C_2   0.851086 0.218165 0.194187 -0.158100
C4    C     C_2   0.825656 0.232789 0.277587 -0.169503
C5    C     C_2   0.331279 0.847930 0.331375 -0.103982
C6    C     C_2   0.344788 0.825212 0.158721 -0.116742
C7    C     C_2   0.429087 0.861510 0.215248 -0.163552
C8    C     C_2   0.443832 0.834031 0.298708 -0.148818
C9    C     C_2   0.297886 0.307527 0.633483 -0.157811
C10   C     C_2   0.282426 0.275259 0.797988 -0.111890
C11   C     C_2   0.325842 0.165347 0.740177 -0.151572
C12   C     C_R   0.407656 0.375039 0.356279 0.557852
C13   C     C_2   0.356700 0.177927 0.660861 -0.028472
C14   C     C_1   0.765509 0.369682 0.715020 -0.027171
C15   C     C_1   0.811116 0.329843 0.780944 -0.021767
C16   C     C_1   0.360310 0.760624 0.713832 -0.039203
C17   C     C_1   0.327301 0.808322 0.780960 -0.039024
C18   C     C_R   0.892960 0.308609 0.086415 0.556253
C19   C     C_R   0.322354 0.303342 0.118496 0.559701
C20   C     C_R   0.294547 0.891041 0.083928 0.556227
C21   C     C_R   0.878723 0.300246 0.860201 0.543919
C22   C     C_R   0.275569 0.250750 0.878193 0.564999
C23   C     C_R   0.777108 0.376198 0.404957 0.547553
C24   C     C_R   0.281156 0.879723 0.857578 0.540673
C25   C     C_R   0.382386 0.712185 0.631224 0.535326
C26   C     C_R   0.363760 0.343424 0.578014 0.533153
C27   C     C_R   0.715899 0.413018 0.635732 0.528358
C28   C     C_1   0.377079 0.363673 0.271510 -0.044018
C29   C     C_1   0.351022 0.345325 0.200351 -0.042773
C30   C     C_2   0.848506 0.327787 0.332156 -0.112295
Cr1   Cr    Cr6+3 0.608020 0.610770 0.522990 1.093961
Cr2   Cr    Cr6+3 0.289390 0.599570 0.488050 1.033735
Cr3   Cr    Cr6+3 0.602610 0.289690 0.489020 1.049887
Cr4   Cr    Cr6+3 0.053780 0.052210 0.965970 1.042493
Cr5   Cr    Cr6+3 0.060060 0.372530 0.992430 1.039332
Cr6   Cr    Cr6+3 0.372600 0.061970 0.991430 1.033691
H1    H     H_    0.895212 0.111125 0.162821 0.163724
H2    H     H_    0.257367 0.382366 0.788288 0.112764
H3    H     H_    0.206203 0.396915 0.659870 0.112878
H4    H     H_    0.780043 0.169709 0.292502 0.162412
H5    H     H_    0.778422 0.438994 0.190000 0.108392
H6    H     H_    0.898767 0.386653 0.317231 0.117638
H7    H     H_    0.483255 0.917379 0.201449 0.168038
H8    H     H_    0.550047 0.794237 0.331379 0.169980
H9    H     H_    0.293781 0.766522 0.172958 0.107611
H10   H     H_    0.224699 0.892558 0.298969 0.111459
H11   H     H_    0.353184 0.059701 0.754422 0.152671
O1    O     O_R   0.749250 0.499990 0.439200 -0.504907
O2    O     O_R   0.299400 0.468710 0.556310 -0.508390
O3    O     O_R   0.489240 0.256450 0.560730 -0.475986
O4    O     O_R   0.723350 0.306730 0.584410 -0.481621
O5    O     O_3   0.500010 0.500010 0.500020 -0.326428
O6    O     O_R   0.170650 0.915100 0.051290 -0.512013
O7    O     O_R   0.941960 0.184500 0.049060 -0.495349
O8    O     O_R   0.922640 0.402670 0.071640 -0.507821
O9    O     O_R   0.196880 0.368740 0.083740 -0.487726
O10   O     O_R   0.411120 0.181190 0.091480 -0.508853
O11   O     O_R   0.364220 0.944920 0.062310 -0.495695
O12   O     O_R   0.477870 0.725740 0.440280 -0.460840
O13   O     O_R   0.158740 0.906940 0.874970 -0.492362
O14   O     O_R   0.930920 0.176940 0.885610 -0.485107
O15   O     O_R   0.910730 0.394510 0.895320 -0.514489
O16   O     O_R   0.185840 0.361180 0.920280 -0.491961
O17   O     O_R   0.399210 0.173040 0.915160 -0.490607
O18   O     O_R   0.353170 0.937370 0.898860 -0.514900
O19   O     O_3   0.162150 0.162240 0.983280 -0.277342
O20   O     O_R   0.260770 0.742210 0.412610 -0.516905
O21   O     O_R   0.297990 0.466320 0.394220 -0.490707
O22   O     O_R   0.487720 0.253870 0.385870 -0.497571
O23   O     O_R   0.721940 0.304340 0.422320 -0.510412
O24   O     O_R   0.750770 0.502570 0.614050 -0.485665
O25   O     O_R   0.479280 0.728140 0.602370 -0.446100
O26   O     O_R   0.262290 0.744790 0.587460 -0.490476
C31   C     C_2   0.460855 0.045180 0.616668 0.641039
O27   O     O_2   0.564805 0.957084 0.654384 -0.454471
O28   O     O_R   0.440885 0.017096 0.532776 -0.637820
H12   H     H_    0.346415 0.090543 0.507596 0.294754

loop_
_geom_bond_atom_site_label_1
_geom_bond_atom_site_label_2
_ccdc_geom_bond_type
C19   O9    A    
C12   O22   A    
C6    H9    S    
C2    C18   S    
C11   H11   S    
Cr1   O5    S    
Cr4   O19   S    
C7    C8    S    
C10   C22   S    
Cr3   O5    S    
C12   O21   A    
C31   O28   S    
C12   C28   S    
C1    C5    S    
C28   C29   T    
Cr6   O11   S    
C26   O3    A    
Cr6   O19   S    
C2    H5    S    
C9    H3    S    
Cr1   O12   S    
C9    C13   D    
Cr2   O5    S    
C22   O16   A    
C4    H4    S    
C16   C17   T    
C7    H7    S    
C14   C27   S    
C21   O14   A    
Cr3   O22   S    
Cr2   O21   S    
Cr1   O24   S    
Cr4   O13   S    
C23   O23   A    
C27   O4    A    
C9    C26   S    
C17   C24   S    
C31   O27   D    
Cr5   O8    S    
C23   C30   S    
O28   H12   S    
Cr6   O10   S    
C26   O2    A    
Cr2   O26   S    
Cr6   O18   S    
Cr5   O19   S    
Cr3   O3    S    
Cr4   O14   S    
C19   O10   A    
C24   O13   A    
C25   O25   A    
C21   O15   A    
C24   O18   A    
Cr2   O20   S    
C18   O8    A    
Cr1   O25   S    
Cr4   O7    S    
Cr1   O1    S    
Cr3   O23   S    
C20   O11   A    
C3    C4    S    
C19   C29   S    
C27   O24   A    
C16   C25   S    
C23   O1    A    
Cr5   O9    S    
C8    H8    S    
C20   O6    A    
C5    C8    D    
C6    C7    D    
Cr3   O4    S    
C6    C20   S    
C5    H10   S    
C10   H2    S    
C1    O12   A    
C2    C3    D    
C11   C13   S    
C1    O20   A    
Cr5   O15   S    
C25   O26   A    
Cr2   O2    S    
C10   C11   D    
C18   O7    A    
C22   O17   A    
C15   C21   S    
C13   C31   S    
C3    H1    S    
Cr4   O6    S    
C14   C15   T    
C30   H6    S    
Cr5   O16   S    
Cr6   O17   S    
C4    C30   D    
