data_mof_unit_40904.cif
_audit_creation_date              2012-12-10T18:32:43-0500
_audit_creation_method            fapswitch 2.2
_symmetry_space_group_name_H-M    P1
_symmetry_Int_Tables_number       1
_space_group_crystal_system       triclinic
_cell_length_a                    15.041319
_cell_length_b                    15.443252
_cell_length_c                    15.752073
_cell_angle_alpha                 90.109566
_cell_angle_beta                  104.643551
_cell_angle_gamma                 82.357318
_cell_volume                      3506.77876473

loop_
_atom_site_label
_atom_site_type_symbol
_atom_type_description
_atom_site_fract_x
_atom_site_fract_y
_atom_site_fract_z
_atom_type_partial_charge
C1    C     C_R   0.441609 0.661975 0.485800 0.866405
C2    C     C_R   0.590519 0.245415 0.502852 -0.147863
C3    C     C_R   0.279335 0.874464 0.461660 0.108141
C4    C     C_R   0.501118 0.500313 0.661662 0.890786
C5    C     C_R   0.313673 0.784929 0.473920 -0.193304
C6    C     C_R   0.458783 0.810622 0.446665 -0.287029
C7    C     C_R   0.431316 0.900714 0.440383 0.077920
C8    C     C_R   0.340471 0.933186 0.448290 0.118671
C9    C     C_R   0.495231 0.959219 0.434669 0.089727
C10   C     C_R   0.471520 0.048616 0.448856 0.109283
C11   C     C_R   0.378370 0.080353 0.446157 -0.219366
C12   C     C_3   0.398446 0.515933 0.022965 -0.570588
C13   C     C_R   0.313982 0.023806 0.444821 -0.245986
C14   C     C_R   0.583378 0.931424 0.419166 -0.256225
C15   C     C_R   0.649051 0.988344 0.426505 -0.173200
C16   C     C_R   0.557909 0.337762 0.510843 0.910287
C17   C     C_R   0.630159 0.073983 0.451712 0.023795
C18   C     C_R   0.541596 0.103759 0.464861 0.019495
C19   C     C_R   0.697960 0.130791 0.463859 0.627399
C20   C     C_R   0.677306 0.216944 0.487540 -0.263442
C21   C     C_R   0.526364 0.187183 0.496815 -0.262589
C22   C     C_R   0.852045 0.623150 0.640373 -0.298759
C23   C     C_3   0.498638 0.499040 0.082297 0.055565
C24   C     C_R   0.759061 0.613485 0.611165 0.291738
C25   C     C_R   0.793915 0.506302 0.510867 -0.088575
C26   C     C_R   0.888807 0.518996 0.534486 -0.000686
C27   C     C_R   0.916429 0.577547 0.602220 0.130627
C28   C     C_R   0.498860 0.499772 0.338326 0.895531
C29   C     C_R   0.956983 0.476903 0.493863 0.082393
C30   C     C_R   0.050063 0.496986 0.520963 0.077916
C31   C     C_R   0.074129 0.551943 0.592288 -0.226702
C32   C     C_R   0.008262 0.591671 0.631661 -0.189419
C33   C     C_R   0.935581 0.416452 0.426865 -0.211228
C34   C     C_3   0.546312 0.409481 0.060266 0.478260
C35   C     C_R   0.002618 0.377925 0.386755 -0.180485
C36   C     C_R   0.092308 0.400117 0.410073 0.164362
C37   C     C_R   0.116681 0.461045 0.476396 -0.001434
C38   C     C_R   0.158038 0.362526 0.367099 -0.308403
C39   C     C_R   0.246486 0.386834 0.389162 0.018113
C40   C     C_3   0.400363 0.516226 0.925300 0.425046
C41   C     C_R   0.206975 0.484765 0.493964 -0.057419
C42   C     C_3   0.555309 0.572841 0.966156 -0.345253
C43   C     C_3   0.552829 0.572346 0.063538 -0.370894
C44   C     C_1   0.496627 0.499096 0.248772 -0.164769
C45   C     C_3   0.548516 0.410195 0.962448 0.396162
C46   C     C_3   0.502226 0.500231 0.917918 0.012065
C47   C     C_3   0.180665 0.908718 0.466724 -0.428140
C48   C     C_3   0.120238 0.839424 0.479910 -0.378210
C49   C     C_3   0.022675 0.881482 0.480725 -0.796409
C50   C     C_3   0.693156 0.673598 0.650425 -0.387418
C51   C     C_3   0.670331 0.765323 0.605766 -0.348157
C52   C     C_3   0.741805 0.826083 0.643747 -0.840904
C53   C     C_1   0.496644 0.498893 0.173393 0.024496
C54   C     C_1   0.503740 0.500872 0.826675 0.054142
C55   C     C_1   0.503471 0.500902 0.751232 -0.152426
C56   C     C_R   0.403802 0.754108 0.469105 -0.091121
F1    F     F_    0.635564 0.391193 0.114181 -0.596010
F2    F     F_    0.355677 0.595393 0.884508 -0.644358
F3    F     F_    0.782773 0.103957 0.450130 -0.677376
F4    F     F_    0.639143 0.392385 0.955124 -0.588088
H1    H     H_    0.362784 0.579655 0.038391 0.255105
H2    H     H_    0.353006 0.149282 0.444165 0.149597
H3    H     H_    0.603328 0.866451 0.399381 0.147319
H4    H     H_    0.029388 0.634943 0.685181 0.156243
H5    H     H_    0.230669 0.533480 0.539920 0.128379
H6    H     H_    0.298072 0.357914 0.356709 0.138343
H7    H     H_    0.983612 0.331421 0.335918 0.165867
H8    H     H_    0.874082 0.667847 0.692330 0.156790
H9    H     H_    0.767658 0.460032 0.462972 0.144367
H10   H     H_    0.628630 0.562468 0.961707 0.218938
H11   H     H_    0.143765 0.565331 0.620305 0.151195
H12   H     H_    0.361969 0.463652 0.891832 0.072880
H13   H     H_    0.867543 0.397135 0.404121 0.157651
H14   H     H_    0.141128 0.315083 0.316811 0.152419
H15   H     H_    0.523575 0.637980 0.934779 0.213516
H16   H     H_    0.519179 0.637063 0.078865 0.184377
H17   H     H_    0.624972 0.562337 0.106119 0.226712
H18   H     H_    0.510017 0.357776 0.928761 0.011687
H19   H     H_    0.506699 0.356810 0.072358 0.022533
H20   H     H_    0.025691 0.927998 0.534938 0.270427
H21   H     H_    0.987838 0.916834 0.417228 0.272074
H22   H     H_    0.980995 0.830011 0.490830 0.244436
H23   H     H_    0.357948 0.464269 0.035712 0.146388
H24   H     H_    0.114514 0.792608 0.425699 0.230641
H25   H     H_    0.151911 0.803286 0.543655 0.227028
H26   H     H_    0.184994 0.954145 0.522031 0.209365
H27   H     H_    0.144647 0.946193 0.404602 0.210740
H28   H     H_    0.755005 0.827395 0.716328 0.259988
H29   H     H_    0.807723 0.805363 0.625356 0.258915
H30   H     H_    0.714930 0.893454 0.616363 0.261351
H31   H     H_    0.664987 0.759966 0.534475 0.226452
H32   H     H_    0.602027 0.796084 0.614069 0.224672
H33   H     H_    0.628307 0.647734 0.646235 0.232038
H34   H     H_    0.244521 0.052504 0.445308 0.151600
H35   H     H_    0.723088 0.678169 0.722239 0.178449
H36   H     H_    0.463660 0.208865 0.516640 0.173493
H37   H     H_    0.727840 0.261633 0.491507 0.183332
H38   H     H_    0.715627 0.964302 0.414405 0.200191
H39   H     H_    0.271807 0.738324 0.488877 0.151845
H40   H     H_    0.525047 0.782348 0.438522 0.152921
N1    N     N_R   0.731690 0.552720 0.548990 -0.119172
N2    N     N_R   0.268300 0.447240 0.450950 -0.101326
O1    O     O_R   0.383120 0.605620 0.475300 -0.615679
O2    O     O_R   0.531890 0.639510 0.506740 -0.636164
O3    O     O_R   0.425580 0.483050 0.607130 -0.609517
O4    O     O_R   0.574360 0.516930 0.638570 -0.627357
O5    O     O_R   0.468110 0.360490 0.493260 -0.621730
O6    O     O_R   0.616880 0.394380 0.524700 -0.611220
O7    O     O_R   0.425640 0.483070 0.361430 -0.616238
O8    O     O_R   0.574420 0.516950 0.392870 -0.608024
Zn1   Zn    Zn3+2 0.400660 0.477370 0.479010 0.947317
Zn2   Zn    Zn3+2 0.599340 0.522630 0.520990 0.942754

loop_
_geom_bond_atom_site_label_1
_geom_bond_atom_site_label_2
_ccdc_geom_bond_type
C45   F4    S    
C8    C13   A    
C18   C21   A    
C5    C56   A    
C52   H30   S    
C19   C20   A    
C11   H2    S    
N2    Zn1   S    
C7    C8    A    
O4    Zn2   S    
C45   C46   S    
N1    Zn2   S    
C40   C46   S    
C12   C23   S    
C26   C27   A    
C36   C37   A    
C1    C56   S    
O7    Zn1   S    
C30   C31   A    
C51   H32   S    
C50   H35   S    
C29   C33   A    
C42   H10   S    
C23   C43   S    
C41   N2    A    
O1    Zn1   S    
C24   N1    A    
C42   C46   S    
C49   H21   S    
C16   O5    A    
C51   H31   S    
C44   C53   T    
C20   H37   S    
C5    H39   S    
C34   F1    S    
C23   C53   S    
C45   H18   S    
C2    C16   S    
C9    C10   A    
C1    O1    A    
C31   H11   S    
O3    Zn1   S    
C52   H29   S    
C50   C51   S    
C24   C50   S    
C40   F2    S    
C2    C20   A    
C51   C52   S    
C47   H26   S    
C52   H28   S    
C32   H4    S    
C3    C8    A    
O2    Zn2   S    
C17   C19   A    
C41   H5    S    
C28   O8    A    
C25   C26   A    
C4    O4    A    
C28   C44   S    
O6    Zn2   S    
C30   C37   A    
C35   C36   A    
C47   H27   S    
C49   H22   S    
C12   C40   S    
C9    C14   A    
C29   C30   A    
C34   H19   S    
C47   C48   S    
C35   H7    S    
C23   C34   S    
C46   C54   S    
C2    C21   A    
C17   C18   A    
C42   H15   S    
C34   C45   S    
C1    O2    A    
C22   H8    S    
C33   H13   S    
C48   C49   S    
C22   C27   A    
C4    C55   S    
C39   H6    S    
C22   C24   A    
C25   H9    S    
C42   C43   S    
C15   H38   S    
C39   N2    A    
C38   H14   S    
C43   H16   S    
C7    C9    A    
C54   C55   T    
C40   H12   S    
C27   C32   A    
C48   H25   S    
O5    Zn1   S    
C31   C32   A    
C6    C56   A    
C3    C5    A    
C50   H33   S    
C15   C17   A    
C6    C7    A    
C21   H36   S    
C28   O7    A    
C43   H17   S    
C4    O3    A    
C49   H20   S    
C13   H34   S    
C19   F3    S    
C36   C38   A    
C12   H1    S    
C11   C13   A    
C25   N1    A    
C38   C39   A    
C10   C18   A    
C14   H3    S    
C3    C47   S    
C33   C35   A    
C37   C41   A    
O8    Zn2   S    
C10   C11   A    
C16   O6    A    
C48   H24   S    
C12   H23   S    
C26   C29   A    
C14   C15   A    
C6    H40   S    
