data_mof_unit_40420.cif
_audit_creation_date              2012-12-11T14:56:48-0500
_audit_creation_method            fapswitch 2.2
_symmetry_space_group_name_H-M    P1
_symmetry_Int_Tables_number       1
_space_group_crystal_system       triclinic
_cell_length_a                    10.572092
_cell_length_b                    10.721338
_cell_length_c                    17.11207
_cell_angle_alpha                 80.418984
_cell_angle_beta                  90.102263
_cell_angle_gamma                 119.783448
_cell_volume                      1652.48453469

loop_
_atom_site_label
_atom_site_type_symbol
_atom_type_description
_atom_site_fract_x
_atom_site_fract_y
_atom_site_fract_z
_atom_type_partial_charge
C1    C     C_R   0.223089 0.854482 0.128727 0.547998
C2    C     C_1   0.651438 0.345423 0.707531 -0.041786
C3    C     C_R   0.626756 0.715053 0.804268 -0.154440
C4    C     C_R   0.634625 0.272440 0.089612 0.587785
C5    C     C_R   0.615442 0.699876 0.726051 -0.185874
C6    C     C_R   0.671207 0.824025 0.665115 0.069070
C7    C     C_R   0.746536 0.965335 0.682402 0.209828
C8    C     C_R   0.755504 0.979778 0.762108 -0.141801
C9    C     C_R   0.689662 0.854411 0.822592 -0.008511
C10   C     C_R   0.083097 0.882157 0.790135 -0.134794
C11   C     C_R   0.066447 0.879069 0.710733 -0.126540
C12   C     C_R   0.688970 0.237906 0.304202 0.219843
C13   C     C_R   0.115310 0.803141 0.671687 0.033013
C14   C     C_R   0.168728 0.719236 0.714187 -0.135167
C15   C     C_R   0.187063 0.723575 0.794021 -0.124176
C16   C     C_R   0.643597 0.856179 0.124370 0.554774
C17   C     C_R   0.151461 0.811800 0.830768 0.029160
C18   C     C_R   0.710767 0.772599 0.353436 0.559463
C19   C     C_R   0.681456 0.385570 0.398996 0.533542
C20   C     C_R   0.103417 0.810353 0.359154 0.543653
C21   C     C_R   0.677919 0.800620 0.585350 0.595607
C22   C     C_R   0.678732 0.382577 0.624453 0.558097
C23   C     C_R   0.694382 0.230484 0.224670 -0.107954
C24   C     C_R   0.089661 0.798870 0.589394 0.543654
C25   C     C_R   0.216950 0.858258 0.902188 0.546706
C26   C     C_R   0.637507 0.284716 0.860963 0.549662
C27   C     C_R   0.647401 0.867059 0.899487 0.554362
C28   C     C_R   0.571091 0.371306 0.194082 0.210591
C29   C     C_R   0.570017 0.383571 0.273900 -0.163176
C30   C     C_R   0.635955 0.324344 0.327857 -0.017653
C31   C     C_R   0.640056 0.300208 0.169383 0.026080
C32   C     C_1   0.684982 0.832641 0.201883 -0.036259
C33   C     C_1   0.702705 0.807787 0.270546 -0.029066
C34   C     C_1   0.180783 0.825856 0.211264 -0.025177
C35   C     C_1   0.151214 0.820010 0.279779 -0.023850
C36   C     C_1   0.644029 0.323567 0.778127 -0.042249
Cr1   Cr    Cr6+3 0.402240 0.783890 0.019450 1.047872
Cr2   Cr    Cr6+3 0.382360 0.097900 0.991800 1.060291
Cr3   Cr    Cr6+3 0.715380 0.118170 0.988700 1.029864
Cr4   Cr    Cr6+3 0.936650 0.882420 0.465510 1.084426
Cr5   Cr    Cr6+3 0.605770 0.565620 0.493360 1.028336
Cr6   Cr    Cr6+3 0.921340 0.550490 0.496380 1.053002
H1    H     H_    0.016398 0.937631 0.679737 0.156138
H2    H     H_    0.465088 0.475387 0.167110 0.336424
H3    H     H_    0.698886 0.149274 0.410891 0.348271
H4    H     H_    0.857848 0.175907 0.644007 0.331612
H5    H     H_    0.200653 0.655277 0.685195 0.130287
H6    H     H_    0.239136 0.667087 0.824963 0.145095
H7    H     H_    0.527412 0.448688 0.292215 0.136142
H8    H     H_    0.737610 0.165710 0.206452 0.169593
H9    H     H_    0.576885 0.617599 0.850539 0.149861
H10   H     H_    0.564792 0.590322 0.713247 0.145062
H11   H     H_    0.803696 0.088005 0.776527 0.131055
H12   H     H_    0.052079 0.947872 0.818090 0.135909
O1    O     O_R   0.521780 0.757110 0.108900 -0.502476
O2    O     O_R   0.805020 0.410040 0.421340 -0.477582
O3    O     O_R   0.049240 0.685450 0.403290 -0.491909
O4    O     O_R   0.275160 0.783810 0.101120 -0.493777
O5    O     O_R   0.077520 0.903010 0.551800 -0.516831
O6    O     O_R   0.802980 0.872780 0.546830 -0.454221
O7    O     O_R   0.578090 0.681300 0.569920 -0.532385
O8    O     O_R   0.608530 0.436370 0.586530 -0.503994
O9    O     O_R   0.798770 0.401880 0.597100 -0.505557
O10   O     O_R   0.043450 0.677890 0.566230 -0.502998
O11   O     O_3   0.821250 0.666180 0.485090 -0.299477
O12   O     O_R   0.513330 0.228330 0.898660 -0.496886
O13   O     O_R   0.237900 0.972600 0.090980 -0.503403
O14   O     O_R   0.511190 0.220540 0.061620 -0.452422
O15   O     O_R   0.736920 0.257720 0.063840 -0.536067
O16   O     O_R   0.710450 0.984050 0.081720 -0.502518
O17   O     O_R   0.524090 0.765520 0.933110 -0.507536
O18   O     O_R   0.277300 0.791600 0.938160 -0.506437
O19   O     O_R   0.240210 0.981010 0.915190 -0.517763
O20   O     O_3   0.511232 0.431971 0.139200 -0.676201
O21   O     O_3   0.740001 0.163397 0.356031 -0.655599
O22   O     O_3   0.806713 0.085903 0.621137 -0.682725
O23   O     O_R   0.739230 0.266130 0.888050 -0.512531
O24   O     O_R   0.712580 0.991850 0.918770 -0.508365
O25   O     O_3   0.499990 0.999980 0.999980 -0.268439
O26   O     O_R   0.083770 0.911170 0.376030 -0.507204
O27   O     O_R   0.808770 0.880340 0.383890 -0.452512
O28   O     O_R   0.584340 0.689460 0.394160 -0.500941
O29   O     O_R   0.614320 0.443940 0.423590 -0.524896

loop_
_geom_bond_atom_site_label_1
_geom_bond_atom_site_label_2
_ccdc_geom_bond_type
C19   O2    A    
Cr4   O6    S    
Cr5   O7    S    
C27   O24   A    
C28   O20   S    
H4    O22   S    
C7    C8    A    
C29   H7    S    
Cr1   O25   S    
C12   C23   A    
Cr3   O23   S    
C28   C29   A    
C5    C6    A    
Cr2   O25   S    
C10   C17   A    
Cr5   O29   S    
C18   O27   A    
C34   C35   T    
Cr6   O2    S    
C22   O9    A    
C14   H5    S    
Cr2   O12   S    
C8    C9    A    
C2    C22   S    
Cr6   O11   S    
Cr4   O26   S    
C5    H10   S    
C11   H1    S    
C21   O7    A    
Cr1   O4    S    
C24   O10   A    
Cr4   O5    S    
C13   C14   A    
C20   C35   S    
C15   H6    S    
C19   O29   A    
Cr6   O3    S    
C4    O15   A    
C1    C34   S    
C26   O23   A    
C20   O26   A    
C26   O12   A    
Cr3   O24   S    
C16   O16   A    
C21   O6    A    
C4    O14   A    
C3    H9    S    
C23   H8    S    
Cr5   O11   S    
C6    C21   S    
C13   C24   S    
C23   C31   A    
C29   C30   A    
C3    C9    A    
C22   O8    A    
Cr3   O15   S    
C25   O18   A    
H2    O20   S    
C6    C7    A    
C26   C36   S    
Cr2   O14   S    
Cr4   O11   S    
Cr1   O17   S    
C12   O21   S    
Cr6   O10   S    
C27   O17   A    
C9    C27   S    
C2    C36   T    
C15   C17   A    
C12   C30   A    
Cr4   O27   S    
C28   C31   A    
C3    C5    A    
C8    H11   S    
Cr5   O8    S    
C7    O22   S    
C1    O13   A    
C16   C32   S    
H3    O21   S    
C17   C25   S    
C32   C33   T    
C16   O1    A    
C1    O4    A    
C11   C13   A    
C24   O5    A    
Cr5   O28   S    
C18   O28   A    
Cr3   O16   S    
C25   O19   A    
C10   H12   S    
C18   C33   S    
C4    C31   S    
C10   C11   A    
Cr1   O1    S    
Cr2   O13   S    
Cr1   O18   S    
C14   C15   A    
C20   O3    A    
C19   C30   S    
Cr6   O9    S    
Cr3   O25   S    
Cr2   O19   S    
