data_mof_unit_67925.cif
_audit_creation_date              2013-03-05T16:14:16-0500
_audit_creation_method            fapswitch 2.2
_symmetry_space_group_name_H-M    P1
_symmetry_Int_Tables_number       1
_space_group_crystal_system       triclinic
_cell_length_a                    10.997182
_cell_length_b                    10.996673
_cell_length_c                    10.103119
_cell_angle_alpha                 93.283413
_cell_angle_beta                  95.216613
_cell_angle_gamma                 99.949678
_cell_volume                      1195.11203612

loop_
_atom_site_label
_atom_site_type_symbol
_atom_site_description
_atom_site_fract_x
_atom_site_fract_y
_atom_site_fract_z
_atom_type_partial_charge
O1    O     O_R   0.499990 0.316750 0.614620 -0.576480
O2    O     O_R   0.500010 0.683250 0.385380 -0.576384
O3    O     O_R   0.499990 0.316780 0.385290 -0.544075
O4    O     O_R   0.500010 0.683220 0.614710 -0.543948
C1    C     C_R   0.500994 0.260411 0.496794 1.000097
C2    C     C_R   0.499035 0.739635 0.503149 0.996230
O5    O     O_R   0.316760 0.500000 0.614660 -0.558061
O6    O     O_R   0.683240 0.500000 0.385340 -0.555106
O7    O     O_R   0.316760 0.500020 0.385330 -0.592681
O8    O     O_R   0.683240 0.499980 0.614670 -0.585941
C3    C     C_R   0.259401 0.496942 0.493981 0.972470
C4    C     C_R   0.740555 0.502616 0.505644 0.965188
Zn1   Zn    Zn3+2 0.500000 0.499980 0.653120 1.145099
Zn2   Zn    Zn3+2 0.500000 0.500020 0.346880 1.145155
C5    C     C_R   0.097492 0.396921 0.044730 0.025043
C6    C     C_R   0.917471 0.635220 0.949948 0.013520
C7    C     C_R   0.112392 0.436362 0.179545 -0.180880
C8    C     C_R   0.895818 0.583069 0.818896 -0.148346
H1    H     H_    0.154196 0.531628 0.209560 0.223903
H2    H     H_    0.856508 0.485639 0.799856 0.233213
C9    C     C_R   0.066053 0.359391 0.274675 -0.002463
C10   C     C_R   0.933379 0.651517 0.713227 -0.018224
C11   C     C_R   0.012573 0.235213 0.234925 0.263085
C12   C     C_R   0.982981 0.778671 0.737010 0.243851
C13   C     C_R   0.972152 0.203697 0.097781 0.168711
C14   C     C_R   0.028060 0.824223 0.869362 0.185797
C15   C     C_R   0.016945 0.283658 0.999573 0.253142
C16   C     C_R   0.989227 0.755376 0.977642 0.276067
C17   C     C_R   0.909867 0.415257 0.417540 0.288781
C18   C     C_R   0.090326 0.586472 0.578014 0.284522
C19   C     C_R   0.873337 0.495997 0.512954 -0.150969
C20   C     C_R   0.126726 0.503761 0.485028 -0.164867
C21   C     C_R   0.963833 0.580589 0.595615 -0.061607
C22   C     C_R   0.036249 0.421524 0.399157 -0.071514
C23   C     C_R   0.440481 0.045064 0.390081 0.206372
C24   C     C_R   0.560777 0.955426 0.609521 0.203504
C25   C     C_R   0.430118 0.917346 0.397736 0.281685
C26   C     C_R   0.572451 0.083206 0.600559 0.272491
C27   C     C_R   0.493405 0.872084 0.506641 -0.301950
C28   C     C_R   0.507647 0.128192 0.492843 -0.302858
C29   C     C_R   0.559767 0.599854 0.085203 0.164566
C30   C     C_R   0.440960 0.399835 0.915063 0.168913
C31   C     C_R   0.565537 0.597895 0.942576 0.206198
C32   C     C_R   0.434480 0.402297 0.057437 0.210099
N1    N     N_R   0.499970 0.499970 0.857200 -0.191816
N2    N     N_R   0.500030 0.500030 0.142800 -0.190805
N3    N     N_R   0.979517 0.251188 0.858172 0.271272
O9    O     O_R   0.008630 0.328392 0.768522 -0.361928
O10   O     O_R   0.914833 0.143420 0.816155 -0.190894
N4    N     N_R   0.020926 0.807545 0.113469 0.252227
O11   O     O_R   0.943486 0.784464 0.202442 -0.234697
O12   O     O_R   0.118610 0.892111 0.145229 -0.217207
N5    N     N_R   0.651447 0.692809 0.890391 0.241719
O13   O     O_R   0.680509 0.677795 0.770709 -0.353159
O14   O     O_R   0.719979 0.782539 0.966632 -0.247116
N6    N     N_R   0.347394 0.308434 0.109294 0.244638
O15   O     O_R   0.318966 0.323994 0.229083 -0.345254
O16   O     O_R   0.275868 0.221292 0.032349 -0.256731
C33   C     C_3   0.164567 0.482101 0.954214 -0.643801
H3    H     H_    0.212131 0.430243 0.885965 0.282254
H4    H     H_    0.098918 0.525593 0.894541 0.259363
H5    H     H_    0.235078 0.556665 0.009700 0.231789
C34   C     C_3   0.874305 0.554989 0.057611 -0.661061
H6    H     H_    0.790840 0.581637 0.092733 0.274812
H7    H     H_    0.850747 0.456006 0.020653 0.235997
H8    H     H_    0.945257 0.565397 0.143716 0.248094
N7    N     N_R   0.989718 0.147179 0.335050 0.271078
O17   O     O_R   0.045558 0.172434 0.455207 -0.249509
O18   O     O_R   0.924719 0.036970 0.305058 -0.176352
N8    N     N_R   0.997729 0.855111 0.625544 0.268527
O19   O     O_R   0.932073 0.819614 0.511802 -0.266452
O20   O     O_R   0.067074 0.964454 0.638504 -0.183354
N9    N     N_R   0.871456 0.102648 0.061808 0.286438
O21   O     O_R   0.760356 0.112205 0.090259 -0.182876
O22   O     O_R   0.893165 0.995412 0.020865 -0.232716
N10   N     N_R   0.127975 0.927699 0.891987 0.284556
O23   O     O_R   0.242145 0.909838 0.898266 -0.182088
O24   O     O_R   0.106172 0.039718 0.902381 -0.220798
N11   N     N_R   0.816419 0.326602 0.337785 0.198681
O25   O     O_R   0.777163 0.349339 0.218126 -0.397846
O26   O     O_R   0.761410 0.229218 0.389842 -0.309347
N12   N     N_R   0.183382 0.681577 0.649949 0.190125
O27   O     O_R   0.229229 0.778640 0.591262 -0.316270
O28   O     O_R   0.229347 0.667762 0.769943 -0.387659
N13   N     N_R   0.378499 0.089212 0.278531 0.266081
O29   O     O_R   0.430726 0.094107 0.168014 -0.184795
O30   O     O_R   0.260287 0.089793 0.276826 -0.248221
N14   N     N_R   0.617668 0.911677 0.724709 0.266828
O31   O     O_R   0.555792 0.900733 0.828493 -0.189259
O32   O     O_R   0.737960 0.923521 0.739938 -0.248448
N15   N     N_R   0.348907 0.834088 0.298761 0.261350
O33   O     O_R   0.263824 0.748669 0.334810 -0.369415
O34   O     O_R   0.354969 0.846646 0.172258 -0.230162
N16   N     N_R   0.655571 0.167068 0.697238 0.262208
O35   O     O_R   0.736222 0.254904 0.657970 -0.344328
O36   O     O_R   0.655459 0.153292 0.824170 -0.229599
N17   N     N_R   0.616800 0.707914 0.169413 0.266044
O37   O     O_R   0.582603 0.813740 0.151876 -0.218166
O38   O     O_R   0.705355 0.702589 0.261942 -0.301709
N18   N     N_R   0.386675 0.290201 0.831908 0.264780
O39   O     O_R   0.423579 0.186079 0.852381 -0.218725
O40   O     O_R   0.294595 0.291034 0.741837 -0.307646

loop_
_geom_bond_atom_site_label_1
_geom_bond_atom_site_label_2
_geom_bond_distance
_ccdc_geom_bond_type
C6    C16   1.415647 A    
C26   C28   1.406908 A    
C34   H7    1.108935 S    
N9    O22   1.295409 A    
N9    O21   1.300461 A    
N17   O37   1.299936 A    
C12   N8    1.447638 S    
Zn2   N2    2.061881 S    
N5    O13   1.287291 A    
C24   N14   1.418781 S    
O5    C3    1.316692 A    
O1    C1    1.311985 A    
C23   C25   1.396516 A    
N10   O24   1.295291 A    
N6    O15   1.286571 A    
C11   N7    1.448430 S    
O4    Zn1   2.073751 S    
C29   N17   1.434885 S    
C5    C15   1.422765 A    
C31   N5    1.439720 S    
N4    O12   1.296026 A    
C29   N2    1.366999 A    
C19   C21   1.411795 A    
N8    O19   1.301760 A    
C6    C34   1.498667 S    
C13   N9    1.431242 S    
N13   O30   1.299679 A    
C34   H8    1.101369 S    
C33   H3    1.094484 S    
C29   C31   1.447218 A    
O2    C2    1.311633 A    
C30   C32   1.445576 A    
N17   O38   1.298520 A    
C32   N2    1.389800 A    
N5    O14   1.298214 A    
C25   C27   1.409239 A    
C33   H4    1.089323 S    
C25   N15   1.444276 S    
N7    O17   1.301848 A    
N10   O23   1.300445 A    
O4    C2    1.317412 A    
N15   O33   1.299196 A    
N11   O26   1.299188 A    
C16   N4    1.444821 S    
C9    C22   1.486567 S    
N13   O29   1.300887 A    
C17   C22   1.409332 A    
C7    C9    1.390340 A    
N11   O25   1.299007 A    
N7    O18   1.300277 A    
C30   N1    1.367923 A    
C20   C22   1.415174 A    
C18   N12   1.441210 S    
O7    Zn2   2.086619 S    
C30   N18   1.435186 S    
N15   O34   1.299813 A    
O7    C3    1.314081 A    
C32   N6    1.438294 S    
C14   N10   1.430689 S    
N3    O9    1.300206 A    
C17   N11   1.438416 S    
O6    C4    1.313708 A    
C26   N16   1.443333 S    
N18   O40   1.300062 A    
N4    O11   1.299370 A    
N16   O36   1.299998 A    
C31   N1    1.391304 A    
O3    Zn2   2.073749 S    
O8    C4    1.317208 A    
N14   O32   1.300686 A    
C3    C20   1.468743 S    
N12   O28   1.297892 A    
C9    C11   1.410174 A    
C4    C19   1.469955 S    
C13   C15   1.428086 A    
C10   C12   1.408742 A    
O1    Zn1   2.030108 S    
Zn1   N1    2.061881 S    
C15   N3    1.456591 S    
C5    C7    1.391879 A    
C10   C21   1.479504 S    
C33   H5    1.111959 S    
O6    Zn2   2.017295 S    
C18   C21   1.409273 A    
C8    C10   1.393453 A    
C5    C33   1.496601 S    
C24   C27   1.409055 A    
C12   C14   1.414780 A    
O3    C1    1.316640 A    
O8    Zn1   2.086617 S    
N3    O10   1.298759 A    
C14   C16   1.421412 A    
C24   C26   1.397682 A    
C23   C28   1.406284 A    
C17   C19   1.405197 A    
C18   C20   1.402282 A    
C23   N13   1.416959 S    
N18   O39   1.300361 A    
C7    H1    1.082876 S    
N6    O16   1.297816 A    
C8    H2    1.083056 S    
C11   C13   1.420324 A    
N16   O35   1.299566 A    
O2    Zn2   2.030108 S    
C34   H6    1.092953 S    
O5    Zn1   2.017298 S    
N14   O31   1.301089 A    
C6    C8    1.395405 A    
N12   O27   1.298429 A    
C1    C28   1.466837 S    
C2    C27   1.467016 S    
N8    O20   1.300552 A    
