data_mof_unit_65990.cif
_audit_creation_date              2012-12-10T17:58:19-0500
_audit_creation_method            fapswitch 2.2
_symmetry_space_group_name_H-M    P1
_symmetry_Int_Tables_number       1
_space_group_crystal_system       triclinic
_cell_length_a                    38.609506
_cell_length_b                    21.671389
_cell_length_c                    21.722253
_cell_angle_alpha                 89.999826
_cell_angle_beta                  124.272053
_cell_angle_gamma                 89.999733
_cell_volume                      15019.7261354

loop_
_atom_site_label
_atom_site_type_symbol
_atom_type_description
_atom_site_fract_x
_atom_site_fract_y
_atom_site_fract_z
_atom_type_partial_charge
C1    C     C_R   0.000196 0.999971 0.119697 0.905399
C2    C     C_R   0.999803 0.999971 0.880302 0.905413
C3    C     C_R   0.499887 0.499956 0.119708 0.897061
C4    C     C_R   0.500113 0.499956 0.880292 0.897064
C5    C     C_3   0.274410 0.026637 0.209830 -0.176386
C6    C     C_3   0.725590 0.026520 0.790222 -0.176396
C7    C     C_3   0.774475 0.550963 0.226184 -0.174336
C8    C     C_3   0.225524 0.550933 0.773847 -0.174342
C9    C     C_3   0.225119 0.026424 0.163198 0.287411
C10   C     C_3   0.774881 0.026315 0.836852 0.287416
C11   C     C_3   0.725186 0.549903 0.179236 0.287348
C12   C     C_3   0.274813 0.549875 0.820794 0.287352
C13   C     C_1   0.337368 0.998630 0.336418 -0.004787
C14   C     C_1   0.662633 0.998624 0.663584 -0.004778
C15   C     C_1   0.837353 0.499504 0.336159 -0.000362
C16   C     C_1   0.162647 0.499502 0.663841 -0.000362
C17   C     C_1   0.162639 0.999081 0.163664 0.005211
C18   C     C_1   0.837362 0.999084 0.836338 0.005210
C19   C     C_1   0.662617 0.499103 0.162719 0.001939
C20   C     C_1   0.337383 0.499105 0.837280 0.001942
C21   C     C_1   0.125241 0.999815 0.125979 -0.134748
C22   C     C_1   0.874759 0.999817 0.874023 -0.134746
C23   C     C_1   0.625225 0.499798 0.125453 -0.145271
C24   C     C_1   0.374775 0.499800 0.874546 -0.145272
C25   C     C_R   0.962623 0.015004 0.177916 -0.063444
C26   C     C_R   0.037376 0.015002 0.822084 -0.063425
C27   C     C_R   0.468056 0.532555 0.184805 -0.055368
C28   C     C_R   0.531942 0.532557 0.815193 -0.055357
C29   C     C_R   0.961989 0.014734 0.241294 -0.105177
C30   C     C_R   0.038011 0.014731 0.758706 -0.105163
C31   C     C_R   0.468331 0.533851 0.249118 -0.114452
C32   C     C_R   0.531667 0.533853 0.750880 -0.114450
C33   C     C_R   0.999653 0.002058 0.311767 -0.229783
C34   C     C_R   0.000346 0.002063 0.688232 -0.229791
C35   C     C_R   0.500276 0.502187 0.313221 -0.217924
C36   C     C_R   0.499724 0.502187 0.686778 -0.217923
C37   C     C_R   0.037475 0.990018 0.317514 0.490133
C38   C     C_R   0.962522 0.990035 0.682484 0.490132
C39   C     C_R   0.532747 0.471366 0.314050 0.487112
C40   C     C_R   0.467253 0.471366 0.685951 0.487108
C41   C     C_R   0.036806 0.985934 0.253096 -0.139089
C42   C     C_R   0.963190 0.985951 0.746900 -0.139083
C43   C     C_R   0.531477 0.468425 0.248861 -0.137082
C44   C     C_R   0.468524 0.468426 0.751139 -0.137082
C45   C     C_R   0.080956 0.999987 0.081197 0.902936
C46   C     C_R   0.919044 0.999988 0.918804 0.902936
C47   C     C_R   0.580950 0.499984 0.081095 0.896602
C48   C     C_R   0.419050 0.499984 0.918905 0.896602
C49   C     C_R   0.999838 0.000027 0.184668 -0.171900
C50   C     C_R   0.000160 0.000029 0.815331 -0.171898
C51   C     C_R   0.499682 0.499999 0.185375 -0.184215
C52   C     C_R   0.500317 0.500000 0.814625 -0.184216
C53   C     C_R   0.500000 0.186942 0.500000 -0.060186
C54   C     C_R   0.000000 0.686821 0.500000 -0.058948
C55   C     C_R   0.499998 0.880705 0.499998 1.008008
C56   C     C_R   1.000000 0.380184 0.500000 0.950913
C57   C     C_R   0.419062 0.000013 0.419055 0.911601
C58   C     C_R   0.580937 0.000012 0.580945 0.911607
C59   C     C_R   0.919060 0.500043 0.419044 0.887346
C60   C     C_R   0.080940 0.500043 0.580956 0.887346
C61   C     C_R   0.500000 0.120545 0.500000 0.874656
C62   C     C_R   1.000000 0.620503 0.500000 0.878438
C63   C     C_R   0.000000 0.879797 0.500000 0.887255
C64   C     C_R   0.500000 0.379841 0.500000 0.899830
C65   C     C_R   0.999925 0.000740 0.379112 0.917010
C66   C     C_R   0.000075 0.000742 0.620888 0.917002
C67   C     C_R   0.500051 0.500711 0.379548 0.938476
C68   C     C_R   0.499949 0.500711 0.620452 0.938478
C69   C     C_R   1.000000 0.120301 0.500000 0.906506
C70   C     C_R   0.500000 0.620854 0.500000 0.902840
C71   C     C_R   0.537369 0.784957 0.549903 0.413845
C72   C     C_R   0.462628 0.784957 0.450091 0.413836
C73   C     C_R   0.027129 0.282714 0.567131 0.432780
C74   C     C_R   0.972870 0.282715 0.432868 0.432779
C75   C     C_R   0.025968 0.218677 0.567656 -0.135593
C76   C     C_R   0.974031 0.218678 0.432343 -0.135590
C77   C     C_R   0.537369 0.720985 0.551941 -0.134627
C78   C     C_R   0.462630 0.720985 0.448055 -0.134617
C79   C     C_3   0.225958 0.929827 0.241287 -0.048606
C80   C     C_3   0.774045 0.929854 0.758595 -0.048610
C81   C     C_3   0.725949 0.430069 0.211035 -0.048753
C82   C     C_3   0.274053 0.430061 0.788922 -0.048755
C83   C     C_R   0.999999 0.186727 0.500000 -0.260793
C84   C     C_R   0.499999 0.688180 0.499999 -0.274861
C85   C     C_R   0.499999 0.815635 0.499998 -0.262558
C86   C     C_R   0.999999 0.314177 0.500000 -0.290499
C87   C     C_R   0.490022 0.218706 0.435882 -0.203269
C88   C     C_R   0.509979 0.218706 0.564118 -0.203272
C89   C     C_R   0.986550 0.718521 0.434058 -0.200951
C90   C     C_R   0.013451 0.718521 0.565942 -0.200947
C91   C     C_R   0.986288 0.782307 0.433567 -0.016396
C92   C     C_R   0.013713 0.782306 0.566434 -0.016398
C93   C     C_R   0.489850 0.282482 0.435434 -0.022758
C94   C     C_R   0.510151 0.282481 0.564566 -0.022760
C95   C     C_R   0.000000 0.813965 0.500000 -0.094547
C96   C     C_R   0.500000 0.314088 0.500000 -0.094061
C97   C     C_3   0.226334 0.043268 0.277900 -0.308541
C98   C     C_3   0.773666 0.043358 0.722180 -0.308536
C99   C     C_3   0.726155 0.518703 0.290639 -0.305868
C100  C     C_3   0.273845 0.518746 0.709372 -0.305868
C101  C     C_3   0.275315 0.037947 0.329200 0.331066
C102  C     C_3   0.724685 0.038040 0.670872 0.331054
C103  C     C_3   0.775152 0.513154 0.339759 0.332185
C104  C     C_3   0.224847 0.513196 0.660249 0.332183
C105  C     C_1   0.374771 0.999290 0.374516 -0.168248
C106  C     C_1   0.625229 0.999286 0.625485 -0.168260
C107  C     C_1   0.874760 0.499702 0.374433 -0.175585
C108  C     C_1   0.125240 0.499701 0.625568 -0.175586
C109  C     C_3   0.208412 0.997542 0.209353 -0.021408
C110  C     C_3   0.791589 0.997544 0.790648 -0.021414
C111  C     C_3   0.708384 0.497761 0.207912 -0.021052
C112  C     C_3   0.291616 0.497762 0.792087 -0.021055
C113  C     C_3   0.275171 0.930222 0.282885 -0.227288
C114  C     C_3   0.724832 0.930233 0.717001 -0.227259
C115  C     C_3   0.775196 0.433464 0.254042 -0.220054
C116  C     C_3   0.224805 0.433451 0.745918 -0.220045
C117  C     C_3   0.291458 0.998121 0.289390 0.022625
C118  C     C_3   0.708543 0.998114 0.710612 0.022628
C119  C     C_3   0.791436 0.499509 0.288858 0.019278
C120  C     C_3   0.208564 0.499508 0.711142 0.019277
H1    H     H_    0.289940 0.912896 0.340861 0.188453
H2    H     H_    0.710062 0.912982 0.658996 0.188464
H3    H     H_    0.789769 0.400131 0.301352 0.189848
H4    H     H_    0.210232 0.400139 0.698588 0.189850
H5    H     H_    0.482151 0.193952 0.386173 0.168652
H6    H     H_    0.517850 0.193951 0.613827 0.168652
H7    H     H_    0.975982 0.693659 0.383012 0.166787
H8    H     H_    0.024019 0.693658 0.616988 0.166788
H9    H     H_    0.218896 0.091621 0.257130 0.088043
H10   H     H_    0.781103 0.091688 0.743034 0.088052
H11   H     H_    0.718598 0.568242 0.290712 0.086564
H12   H     H_    0.281400 0.568290 0.709329 0.086570
H13   H     H_    0.288126 0.085695 0.336273 0.073514
H14   H     H_    0.711873 0.085776 0.663881 0.073509
H15   H     H_    0.787855 0.559213 0.366493 0.074516
H16   H     H_    0.212144 0.559263 0.633542 0.074516
H17   H     H_    0.216103 0.075839 0.158936 0.142844
H18   H     H_    0.783895 0.075738 0.841199 0.142849
H19   H     H_    0.716294 0.593036 0.194949 0.141821
H20   H     H_    0.283705 0.593024 0.805108 0.141822
O1    O     O_R   0.999990 0.948250 0.091620 -0.615350
O2    O     O_R   0.000010 0.948250 0.908380 -0.615347
O3    O     O_R   0.499990 0.448250 0.091620 -0.613962
O4    O     O_R   0.500010 0.448250 0.908380 -0.613962
O5    O     O_R   0.965330 0.999890 0.373740 -0.625206
O6    O     O_R   0.034670 0.999890 0.626260 -0.625203
O7    O     O_R   0.465330 0.499890 0.373740 -0.621491
O8    O     O_R   0.534670 0.499890 0.626260 -0.621491
O9    O     O_R   0.034690 0.999930 0.443090 -0.577792
O10   O     O_R   0.965310 0.999930 0.556910 -0.577781
O11   O     O_R   0.534690 0.499930 0.443090 -0.599245
O12   O     O_R   0.465310 0.499930 0.556910 -0.599245
O13   O     O_R   0.965300 0.091560 0.465360 -0.629106
O14   O     O_R   0.034700 0.091560 0.534640 -0.629106
O15   O     O_R   0.465300 0.591560 0.465360 -0.629652
O16   O     O_R   0.534700 0.591560 0.534640 -0.629652
O17   O     O_R   0.999990 0.051750 0.091660 -0.620918
O18   O     O_R   0.000010 0.051750 0.908340 -0.620909
O19   O     O_R   0.499990 0.551750 0.091660 -0.619171
O20   O     O_R   0.500010 0.551750 0.908340 -0.619168
O21   O     O_R   0.061430 0.948250 0.061430 -0.613048
O22   O     O_R   0.938570 0.948250 0.938570 -0.613055
O23   O     O_R   0.561430 0.448250 0.061430 -0.610726
O24   O     O_R   0.438570 0.448250 0.938570 -0.610726
O25   O     O_R   0.061430 0.051750 0.061470 -0.615650
O26   O     O_R   0.938570 0.051750 0.938530 -0.615661
O27   O     O_R   0.561430 0.551750 0.061470 -0.610665
O28   O     O_R   0.438570 0.551750 0.938530 -0.610670
O29   O     O_R   0.500000 0.908530 0.551740 -0.616937
O30   O     O_R   0.500000 0.908530 0.448260 -0.616932
O31   O     O_R   0.000000 0.408530 0.551740 -0.586041
O32   O     O_R   0.000000 0.408530 0.448260 -0.586038
O33   O     O_R   0.438570 0.000200 0.490320 -0.631154
O34   O     O_R   0.561430 0.000200 0.509680 -0.631135
O35   O     O_R   0.938570 0.500200 0.490320 -0.624032
O36   O     O_R   0.061430 0.500200 0.509680 -0.624027
O37   O     O_R   0.438570 0.000170 0.386880 -0.596472
O38   O     O_R   0.561430 0.000170 0.613120 -0.596478
O39   O     O_R   0.938570 0.500170 0.386880 -0.602174
O40   O     O_R   0.061430 0.500170 0.613120 -0.602176
O41   O     O_R   0.500000 0.091870 0.551750 -0.629035
O42   O     O_R   0.500000 0.091870 0.448250 -0.629037
O43   O     O_R   0.000000 0.591870 0.551750 -0.627049
O44   O     O_R   1.000000 0.591870 0.448250 -0.627051
O45   O     O_R   0.965340 0.908230 0.465340 -0.610348
O46   O     O_R   0.034660 0.908230 0.534660 -0.610347
O47   O     O_R   0.465340 0.408230 0.465340 -0.611515
O48   O     O_R   0.534660 0.408230 0.534660 -0.611523
Zn1   Zn    Zn3+2 0.000000 0.930890 0.000000 1.007274
Zn2   Zn    Zn3+2 0.500000 0.430890 0.000000 1.013229
Zn3   Zn    Zn3+2 0.000000 0.069110 0.000000 0.993943
Zn4   Zn    Zn3+2 0.500000 0.569110 0.000000 1.001803
Zn5   Zn    Zn3+2 0.499990 0.000210 0.569090 0.993911
Zn6   Zn    Zn3+2 0.500010 0.000210 0.430910 0.993927
Zn7   Zn    Zn3+2 0.999990 0.500210 0.569090 1.003526
Zn8   Zn    Zn3+2 0.000010 0.500210 0.430910 1.003527
Zn9   Zn    Zn3+2 0.953690 0.999890 0.453720 1.012512
Zn10  Zn    Zn3+2 0.046310 0.999890 0.546280 1.012498
Zn11  Zn    Zn3+2 0.453690 0.499890 0.453720 0.999537
Zn12  Zn    Zn3+2 0.546310 0.499890 0.546280 0.999528
C121  C     C_1   0.205139 0.880214 0.184964 0.136769
N1    N     N_1   0.188938 0.840393 0.142303 -0.195011
C122  C     C_1   0.794866 0.880179 0.814833 0.136780
N2    N     N_1   0.811069 0.840312 0.857425 -0.195020
C123  C     C_1   0.705380 0.399503 0.137521 0.138834
N3    N     N_1   0.689372 0.374117 0.080881 -0.194371
C124  C     C_1   0.294623 0.399461 0.862417 0.138839
N4    N     N_1   0.310632 0.374049 0.919041 -0.194367
C125  C     C_1   0.291164 0.886216 0.252147 0.142584
N5    N     N_1   0.303693 0.851528 0.228584 -0.144828
C126  C     C_1   0.708842 0.886145 0.747667 0.142488
N6    N     N_1   0.696316 0.851394 0.771176 -0.144865
C127  C     C_1   0.791516 0.412058 0.210094 0.141227
N7    N     N_1   0.804279 0.394905 0.176015 -0.173087
C128  C     C_1   0.208487 0.412007 0.789855 0.141210
N8    N     N_1   0.195725 0.394825 0.823926 -0.173105
C129  C     C_1   0.289795 0.090899 0.217891 0.110145
N9    N     N_1   0.301784 0.140990 0.224215 -0.179217
C130  C     C_1   0.710203 0.090767 0.782273 0.110155
N10   N     N_1   0.698212 0.140848 0.776035 -0.179205
C131  C     C_1   0.789990 0.612659 0.260862 0.108980
N11   N     N_1   0.802084 0.660732 0.287931 -0.178588
C132  C     C_1   0.210009 0.612641 0.739207 0.108984
N12   N     N_1   0.197914 0.660723 0.712168 -0.178589
C133  C     C_1   0.924784 0.029124 0.105305 0.182666
N13   N     N_1   0.894715 0.040414 0.047631 -0.158544
C134  C     C_1   0.075214 0.029123 0.894694 0.182623
N14   N     N_1   0.105283 0.040416 0.952368 -0.158582
C135  C     C_1   0.434365 0.562555 0.117249 0.195364
N15   N     N_1   0.407543 0.586323 0.063478 -0.163171
C136  C     C_1   0.565633 0.562559 0.882747 0.195357
N16   N     N_1   0.592453 0.586329 0.936518 -0.163203
C137  C     C_1   0.922325 0.027332 0.232048 0.281646
N17   N     N_1   0.890565 0.037103 0.224114 -0.170138
C138  C     C_1   0.077675 0.027324 0.767954 0.281626
N18   N     N_1   0.109436 0.037091 0.775888 -0.170177
C139  C     C_1   0.436342 0.569138 0.249057 0.228385
N19   N     N_1   0.410691 0.597267 0.248456 -0.170039
C140  C     C_1   0.563655 0.569143 0.750939 0.228376
N20   N     N_1   0.589305 0.597273 0.751539 -0.170049
O49   O     O_3   0.074464 0.977307 0.385516 -0.579527
C141  C     C_3   0.098815 0.031721 0.412183 -0.228931
H21   H     H_    0.126778 0.022840 0.469186 0.193134
H22   H     H_    0.081272 0.070731 0.415862 0.145969
H23   H     H_    0.110126 0.045217 0.377018 0.155233
O50   O     O_3   0.925531 0.977339 0.614479 -0.579526
C142  C     C_3   0.901191 0.031765 0.587819 -0.228908
H24   H     H_    0.873225 0.022894 0.530815 0.193138
H25   H     H_    0.918742 0.070764 0.584142 0.145966
H26   H     H_    0.889885 0.045271 0.622986 0.155245
O51   O     O_3   0.563407 0.439261 0.376752 -0.588367
C143  C     C_3   0.600465 0.475005 0.415227 -0.237732
H27   H     H_    0.622314 0.454154 0.470931 0.191902
H28   H     H_    0.594550 0.523449 0.424137 0.148649
H29   H     H_    0.616438 0.474875 0.385816 0.159649
O52   O     O_3   0.436594 0.439260 0.623249 -0.588368
C144  C     C_3   0.399535 0.475004 0.584773 -0.237711
H30   H     H_    0.377687 0.454152 0.529069 0.191907
H31   H     H_    0.405450 0.523447 0.575863 0.148647
H32   H     H_    0.383562 0.474873 0.614183 0.159662
C145  C     C_1   0.074339 0.967305 0.257776 0.233122
N21   N     N_1   0.104226 0.952380 0.261429 -0.183047
C146  C     C_1   0.925653 0.967342 0.742216 0.233122
N22   N     N_1   0.895762 0.952434 0.738558 -0.183071
C147  C     C_1   0.563056 0.433060 0.247803 0.242567
N23   N     N_1   0.588237 0.404894 0.246896 -0.174602
C148  C     C_1   0.436944 0.433061 0.752198 0.242576
N24   N     N_1   0.411763 0.404896 0.753105 -0.174605
O53   O     O_3   0.573268 0.818031 0.600349 -0.589288
C149  C     C_3   0.596257 0.828289 0.568811 -0.286555
H33   H     H_    0.577896 0.855403 0.516334 0.160641
H34   H     H_    0.606885 0.784112 0.558550 0.159874
H35   H     H_    0.624596 0.855543 0.608688 0.197938
O54   O     O_3   0.426731 0.818030 0.399636 -0.589291
C150  C     C_3   0.403735 0.828292 0.431159 -0.286587
H36   H     H_    0.422087 0.855428 0.483620 0.160657
H37   H     H_    0.393118 0.784117 0.441446 0.159857
H38   H     H_    0.375388 0.855525 0.391261 0.197928
O55   O     O_3   0.053289 0.314778 0.632966 -0.577614
C151  C     C_3   0.091717 0.325654 0.641168 -0.246637
H39   H     H_    0.087357 0.353608 0.594298 0.130147
H40   H     H_    0.107969 0.281608 0.646301 0.157662
H41   H     H_    0.112373 0.352329 0.693114 0.207642
O56   O     O_3   0.946710 0.314780 0.367034 -0.577614
C152  C     C_3   0.908281 0.325656 0.358829 -0.246647
H42   H     H_    0.912641 0.353611 0.405698 0.130156
H43   H     H_    0.892030 0.281610 0.353698 0.157660
H44   H     H_    0.887625 0.352330 0.306881 0.207629
C153  C     C_1   0.050894 0.186851 0.638360 0.270846
N25   N     N_1   0.070869 0.161779 0.695073 -0.187257
C154  C     C_1   0.949105 0.186853 0.361640 0.270844
N26   N     N_1   0.929130 0.161782 0.304927 -0.187268
C155  C     C_1   0.576330 0.691216 0.608161 0.319003
N27   N     N_1   0.607682 0.667942 0.652917 -0.174319
C156  C     C_1   0.423669 0.691216 0.391834 0.318992
N28   N     N_1   0.392318 0.667941 0.347077 -0.174328
C157  C     C_1   0.216117 0.911033 0.295451 0.238536
N29   N     N_1   0.208531 0.895623 0.337670 -0.159348
C158  C     C_1   0.783884 0.911174 0.704397 0.238544
N30   N     N_1   0.791470 0.895853 0.662149 -0.159319
C159  C     C_1   0.715808 0.386591 0.251426 0.236163
N31   N     N_1   0.707980 0.352046 0.282603 -0.166157
C160  C     C_1   0.284194 0.386616 0.748503 0.236160
N32   N     N_1   0.292021 0.352095 0.717304 -0.166159
C161  C     C_1   0.972679 0.814356 0.365028 0.179366
N33   N     N_1   0.961832 0.840077 0.310277 -0.186977
C162  C     C_1   0.027322 0.814355 0.634973 0.179363
N34   N     N_1   0.038170 0.840075 0.689724 -0.186975
C163  C     C_1   0.479843 0.314578 0.368883 0.189620
N35   N     N_1   0.471866 0.340300 0.315700 -0.175194
C164  C     C_1   0.520158 0.314577 0.631118 0.189619
N36   N     N_1   0.528135 0.340298 0.684300 -0.175191
C165  C     C_1   0.206305 0.038917 0.319217 0.312136
N37   N     N_1   0.190649 0.036019 0.351529 -0.198416
C166  C     C_1   0.793696 0.039116 0.680858 0.312150
N38   N     N_1   0.809354 0.036302 0.648545 -0.198459
C167  C     C_1   0.706035 0.489394 0.324564 0.305193
N39   N     N_1   0.690258 0.466927 0.351201 -0.204745
C168  C     C_1   0.293965 0.489471 0.675429 0.305206
N40   N     N_1   0.309742 0.467033 0.648778 -0.204779
O57   O     O_3   0.288669 0.010241 0.398785 -0.589876
C169  C     C_3   0.309000 0.053511 0.457360 -0.276336
H45   H     H_    0.288053 0.093122 0.447143 0.159151
H46   H     H_    0.338560 0.069943 0.465299 0.163772
H47   H     H_    0.317253 0.030642 0.509659 0.200770
O58   O     O_3   0.711332 0.010432 0.601239 -0.589872
C170  C     C_3   0.691002 0.053770 0.542740 -0.276303
H48   H     H_    0.711948 0.093401 0.553029 0.159148
H49   H     H_    0.661441 0.070163 0.534828 0.163760
H50   H     H_    0.682750 0.030980 0.490402 0.200779
O59   O     O_3   0.788561 0.465103 0.393465 -0.589256
C171  C     C_3   0.808478 0.489324 0.466094 -0.281047
H51   H     H_    0.787253 0.520992 0.470418 0.157854
H52   H     H_    0.838016 0.513396 0.482876 0.166902
H53   H     H_    0.816707 0.450607 0.505456 0.199177
O60   O     O_3   0.211440 0.465170 0.606514 -0.589254
C172  C     C_3   0.191522 0.489424 0.533899 -0.281028
H54   H     H_    0.212746 0.521109 0.529594 0.157854
H55   H     H_    0.161984 0.513487 0.517131 0.166899
H56   H     H_    0.183293 0.450727 0.494513 0.199177
O61   O     O_3   0.204027 0.015066 0.085234 -0.593884
C173  C     C_3   0.198565 0.952951 0.063699 -0.168400
H57   H     H_    0.226099 0.923902 0.101905 0.158890
H58   H     H_    0.194276 0.950505 0.008804 0.187267
H59   H     H_    0.169125 0.935374 0.054824 0.177938
O62   O     O_3   0.795973 0.014857 0.914796 -0.593892
C174  C     C_3   0.801441 0.952715 0.936225 -0.168463
H60   H     H_    0.773908 0.923682 0.897971 0.158916
H61   H     H_    0.805733 0.950177 0.991117 0.187266
H62   H     H_    0.830881 0.935179 0.945064 0.177934
O63   O     O_3   0.704110 0.563135 0.101668 -0.594776
C175  C     C_3   0.698244 0.513096 0.055846 -0.167872
H63   H     H_    0.725754 0.482204 0.080725 0.159818
H64   H     H_    0.693591 0.531662 0.004110 0.188276
H65   H     H_    0.668874 0.488656 0.038532 0.175118
O64   O     O_3   0.295889 0.563070 0.898371 -0.594775
C176  C     C_3   0.301756 0.513006 0.944162 -0.167885
H66   H     H_    0.274247 0.482112 0.919264 0.159826
H67   H     H_    0.306409 0.531542 0.995910 0.188271
H68   H     H_    0.331127 0.488574 0.961461 0.175114
C177  C     C_1   0.290731 0.994265 0.171280 0.295261
N41   N     N_1   0.303708 0.969467 0.141069 -0.177925
C178  C     C_1   0.709271 0.994049 0.828717 0.295291
N42   N     N_1   0.696295 0.969174 0.858886 -0.177889
C179  C     C_1   0.790753 0.543450 0.179217 0.292175
N43   N     N_1   0.803701 0.538168 0.142658 -0.184732
C180  C     C_1   0.209246 0.543379 0.820810 0.292183
N44   N     N_1   0.196299 0.538066 0.857367 -0.184724

loop_
_geom_bond_atom_site_label_1
_geom_bond_atom_site_label_2
_ccdc_geom_bond_type
C169  H46   S    
C176  H66   S    
C99   C103  S    
C154  N26   T    
C75   C153  S    
C172  H54   S    
C159  N31   T    
O56   C152  S    
C26   C50   A    
O24   Zn2   S    
C169  H47   S    
C29   C33   A    
C100  C104  S    
O54   C150  S    
C174  H60   S    
C45   O21   A    
C76   C154  S    
C62   O43   A    
C27   C135  S    
C5    C129  S    
C132  N12   T    
C79   C121  S    
C141  H22   S    
C151  H41   S    
O58   C170  S    
O42   Zn6   S    
C30   C138  S    
C70   C84   S    
C73   C75   A    
C58   O34   A    
C76   C83   A    
C41   C49   A    
C25   C29   A    
O38   Zn5   S    
C141  H23   S    
C115  H3    S    
C79   C109  S    
C27   C31   A    
C7    C119  S    
C28   C32   A    
C3    O3    A    
C10   O62   S    
O31   Zn7   S    
C173  H57   S    
O8    Zn12  S    
O29   Zn5   S    
C98   C102  S    
O2    Zn1   S    
C17   C21   T    
C81   C159  S    
C19   C23   T    
C128  N8    T    
O17   Zn3   S    
C135  N15   T    
C90   C92   A    
C134  N14   T    
C26   C134  S    
C71   O53   S    
C63   O46   A    
C175  H63   S    
C100  H12   S    
C151  H39   S    
C94   C96   A    
C29   C137  S    
C8    C132  S    
C57   O33   A    
C101  O57   S    
O34   Zn6   S    
C176  H68   S    
C19   C111  S    
C56   O31   A    
C67   O7    A    
C60   O36   A    
C149  H34   S    
O32   Zn8   S    
C172  H56   S    
C89   H7    S    
C142  H26   S    
C123  N3    T    
O19   Zn4   S    
C42   C146  S    
C173  H59   S    
C17   C109  S    
C4    O4    A    
C6    C178  S    
C36   C68   S    
C43   C147  S    
C48   O24   A    
C92   C162  S    
C101  H13   S    
C69   O14   A    
O28   Zn4   S    
C152  H43   S    
C179  N43   T    
C78   C156  S    
C59   O39   A    
O23   Zn2   S    
C65   O9    A    
C66   O6    A    
C40   O52   S    
O57   C169  S    
C10   H18   S    
O45   Zn9   S    
C143  H27   S    
C25   C133  S    
O63   C175  S    
C43   C51   A    
C34   C66   S    
C72   C85   A    
C73   O55   S    
C61   O42   A    
C131  N11   T    
C74   C76   A    
C32   C36   A    
C54   C90   A    
C16   C120  S    
C145  N21   T    
O14   Zn10  S    
O36   Zn8   S    
C80   C122  S    
O48   Zn12  S    
C175  H65   S    
C115  C127  S    
O26   Zn3   S    
C11   O63   S    
C99   C167  S    
C72   C78   A    
C2    C50   S    
C53   C61   S    
C89   C91   A    
C137  N17   T    
C55   O30   A    
C68   O8    A    
C8    C12   S    
C44   C52   A    
C139  N19   T    
C3    O19   A    
C46   O26   A    
C27   C51   A    
C153  N25   T    
C44   C148  S    
C21   C45   S    
C88   C94   A    
C12   O64   S    
C37   O49   S    
C94   C164  S    
C30   C34   A    
C70   O15   A    
C24   C48   S    
C150  H38   S    
C171  H51   S    
C64   C96   S    
C53   C87   A    
C170  H49   S    
C77   C84   A    
C129  N9    T    
C59   C107  S    
C116  C120  S    
C114  C126  S    
O6    Zn10  S    
C5    C9    S    
C155  N27   T    
C97   C109  S    
C35   C67   S    
C178  N42   T    
C99   C111  S    
C125  N5    T    
C58   O38   A    
C64   O48   A    
C42   C50   A    
C143  H29   S    
C113  C117  S    
C91   C161  S    
C26   C30   A    
C115  C119  S    
C79   C113  S    
C2    O2    A    
C12   C112  S    
O15   Zn11  S    
O50   C142  S    
C104  H16   S    
C18   C22   T    
O11   Zn12  S    
C148  N24   T    
C32   C140  S    
C144  H32   S    
C23   C47   S    
C113  C125  S    
C174  H62   S    
C57   O37   A    
O4    Zn2   S    
C87   C93   A    
C15   C119  S    
C37   C41   A    
C100  C168  S    
C62   O44   A    
C40   C44   A    
C113  H1    S    
C8    C180  S    
C55   O29   A    
C7    C179  S    
C98   C110  S    
O7    Zn11  S    
C140  N20   T    
C171  H53   S    
C71   C77   A    
O60   C172  S    
C79   C157  S    
O51   C143  S    
C127  N7    T    
C72   O54   S    
C66   O10   A    
C104  O60   S    
C173  H58   S    
C38   O50   S    
C63   C95   S    
C157  N29   T    
C15   C107  T    
C11   H19   S    
C80   C158  S    
C20   C112  S    
C9    H17   S    
C63   O45   A    
C175  H64   S    
O43   Zn7   S    
C138  N18   T    
C12   H20   S    
C98   C166  S    
O41   Zn5   S    
C60   C108  S    
O9    Zn10  S    
C47   O23   A    
C169  H45   S    
C74   O56   S    
C166  N38   T    
C176  H67   S    
O53   C149  S    
C56   O32   A    
C149  H35   S    
C116  C128  S    
C172  H55   S    
O39   Zn8   S    
C142  H25   S    
C9    C109  S    
O37   Zn6   S    
C11   C111  S    
C162  N34   T    
O1    Zn1   S    
O20   Zn4   S    
C13   C105  T    
C156  N28   T    
O30   Zn6   S    
C3    C51   S    
C54   C62   S    
O44   Zn8   S    
C93   C163  S    
C69   O13   A    
C124  N4    T    
O12   Zn11  S    
O47   Zn11  S    
C82   C112  S    
C55   C85   S    
C35   C39   A    
C158  N30   T    
C152  H42   S    
C68   O12   A    
C126  N6    T    
C2    O18   A    
C98   H10   S    
C141  H21   S    
C5    C177  S    
O40   Zn7   S    
C22   C46   S    
C100  C112  S    
O33   Zn5   S    
C31   C35   A    
C130  N10   T    
C143  H28   S    
C116  H4    S    
C9    O61   S    
C18   C110  S    
C151  H40   S    
C6    C10   S    
C13   C117  S    
C38   C42   A    
C60   O40   A    
C61   O41   A    
C101  C117  S    
C41   C145  S    
O55   C151  S    
C82   C116  S    
C170  H48   S    
O18   Zn3   S    
C75   C83   A    
C165  N37   T    
C7    C131  S    
C1    O17   A    
O25   Zn3   S    
C10   C110  S    
C25   C49   A    
C1    O1    A    
C168  N40   T    
C14   C106  T    
C39   O51   S    
C161  N33   T    
C58   C106  S    
C149  H33   S    
O46   Zn10  S    
C45   O25   A    
O35   Zn7   S    
O22   Zn1   S    
C104  C120  S    
C57   C105  S    
C122  N2    T    
C121  N1    T    
C180  N44   T    
O59   C171  S    
C33   C65   S    
O61   C173  S    
C163  N35   T    
C7    C11   S    
O27   Zn4   S    
C4    C52   S    
C70   O16   A    
C150  H37   S    
C171  H52   S    
C144  H30   S    
C152  H44   S    
C59   O35   A    
O13   Zn9   S    
O49   C141  S    
C103  H15   S    
C88   H6    S    
C71   C85   A    
C56   C86   S    
C81   C111  S    
C14   C118  S    
C147  N23   T    
C102  C118  S    
C31   C139  S    
C160  N32   T    
C97   C165  S    
O16   Zn12  S    
C82   C124  S    
C67   O11   A    
C20   C24   T    
C36   C40   A    
C54   C89   A    
O21   Zn1   S    
C39   C43   A    
C164  N36   T    
C77   C155  S    
C92   C95   A    
C5    C117  S    
C144  H31   S    
C102  H14   S    
O5    Zn9   S    
C69   C83   S    
C174  H61   S    
C47   O27   A    
C48   O28   A    
O52   C144  S    
C81   C115  S    
C133  N13   T    
C74   C86   A    
C28   C136  S    
C114  C118  S    
C150  H36   S    
C80   C114  S    
C93   C96   A    
C65   O5    A    
C87   H5    S    
C82   C160  S    
C8    C120  S    
C81   C123  S    
O10   Zn9   S    
C34   C38   A    
C103  C119  S    
C170  H50   S    
C142  H24   S    
C177  N41   T    
C99   H11   S    
C146  N22   T    
C97   H9    S    
C28   C52   A    
O62   C174  S    
C4    O20   A    
O64   C176  S    
O3    Zn2   S    
C33   C37   A    
C53   C88   A    
C103  O59   S    
C102  O58   S    
C167  N39   T    
C73   C86   A    
C64   O47   A    
C16   C108  T    
C6    C130  S    
C114  H2    S    
C78   C84   A    
C91   C95   A    
C46   O22   A    
C80   C110  S    
C136  N16   T    
C90   H8    S    
C1    C49   S    
C6    C118  S    
C97   C101  S    
