data_mof_unit_64891.cif
_audit_creation_date              2012-12-10T17:07:29-0500
_audit_creation_method            fapswitch 2.2
_symmetry_space_group_name_H-M    P1
_symmetry_Int_Tables_number       1
_space_group_crystal_system       triclinic
_cell_length_a                    30.761701
_cell_length_b                    30.534023
_cell_length_c                    21.148428
_cell_angle_alpha                 89.816463
_cell_angle_beta                  43.452042
_cell_angle_gamma                 89.946165
_cell_volume                      13661.4932908

loop_
_atom_site_label
_atom_site_type_symbol
_atom_type_description
_atom_site_fract_x
_atom_site_fract_y
_atom_site_fract_z
_atom_type_partial_charge
C1    C     C_R   0.309807 0.810095 0.499866 0.851638
C2    C     C_R   0.628722 0.130012 0.425381 0.030930
C3    C     C_R   0.241954 0.139878 0.663570 -0.147348
C4    C     C_R   0.739690 0.364014 0.658545 -0.149288
C5    C     C_R   0.221816 0.677792 0.337231 -0.139411
C6    C     C_R   0.260122 0.364362 0.341387 -0.149162
C7    C     C_R   0.777457 0.676272 0.662932 -0.137483
C8    C     C_R   0.275435 0.818725 0.732209 -0.203705
C9    C     C_R   0.724578 0.181268 0.267781 -0.204694
C10   C     C_R   0.794964 0.889100 0.262538 -0.207647
C11   C     C_R   0.205026 0.110883 0.737444 -0.208782
C12   C     C_R   0.702703 0.394880 0.728348 -0.211926
C13   C     C_R   0.667737 0.909265 0.423509 0.004672
C14   C     C_R   0.229650 0.678562 0.263778 -0.201819
C15   C     C_R   0.297099 0.395422 0.271484 -0.211904
C16   C     C_R   0.769411 0.676638 0.736597 -0.203528
C17   C     C_R   0.320718 0.838677 0.722051 -0.149008
C18   C     C_R   0.679295 0.161317 0.277937 -0.149783
C19   C     C_R   0.770992 0.929827 0.271292 -0.153900
C20   C     C_R   0.229003 0.070158 0.728686 -0.154098
C21   C     C_R   0.728583 0.435090 0.717219 -0.155321
C22   C     C_R   0.185179 0.658521 0.272257 -0.149427
C23   C     C_R   0.271287 0.435678 0.282668 -0.155301
C24   C     C_R   0.332261 0.090730 0.576484 0.004665
C25   C     C_R   0.814238 0.657036 0.727860 -0.150425
C26   C     C_R   0.369645 0.863021 0.643012 0.391429
C27   C     C_R   0.630365 0.136975 0.356978 0.391728
C28   C     C_R   0.708596 0.940825 0.351805 0.383729
C29   C     C_R   0.291404 0.059166 0.648178 0.383809
C30   C     C_R   0.792639 0.443662 0.638989 0.383530
C31   C     C_R   0.134717 0.635186 0.351955 0.400452
C32   C     C_R   0.207295 0.444109 0.361074 0.383155
C33   C     C_R   0.865236 0.634482 0.647686 0.401671
C34   C     C_3   0.396937 0.866437 0.342209 -0.374235
C35   C     C_R   0.832943 0.410193 0.572538 0.011115
C36   C     C_3   0.450570 0.894314 0.258156 -0.879397
C37   C     C_3   0.603067 0.133558 0.657788 -0.374134
C38   C     C_3   0.549458 0.105662 0.741823 -0.879524
C39   C     C_3   0.558971 0.823749 0.664424 -0.384007
C40   C     C_3   0.490662 0.836995 0.750410 -0.853634
C41   C     C_3   0.441035 0.176265 0.335593 -0.383872
C42   C     C_3   0.509348 0.163024 0.249612 -0.854293
C43   C     C_3   0.944396 0.317762 0.343273 -0.373684
C44   C     C_3   0.013928 0.329456 0.258993 -0.881791
C45   C     C_3   0.097342 0.633406 0.661465 -0.408896
C46   C     C_R   0.130704 0.629203 0.423046 0.026293
C47   C     C_3   0.132915 0.598014 0.660378 -0.799198
C48   C     C_3   0.055673 0.317488 0.657307 -0.373058
C49   C     C_3   0.986191 0.328996 0.741717 -0.884021
C50   C     C_3   0.902027 0.637626 0.337945 -0.379927
C51   C     C_3   0.957465 0.611413 0.252739 -0.864744
C52   C     C_R   0.166984 0.410480 0.427674 0.011019
C53   C     C_R   0.869459 0.628842 0.576394 0.027666
C54   C     C_R   0.330570 0.844730 0.579771 0.042054
C55   C     C_R   0.669435 0.155267 0.420225 0.041999
C56   C     C_R   0.694863 0.870578 0.418959 0.039390
C57   C     C_R   0.690192 0.189905 0.500136 0.853180
C58   C     C_R   0.305132 0.129416 0.581037 0.039533
C59   C     C_R   0.804547 0.372085 0.578223 0.035766
C60   C     C_R   0.171000 0.654551 0.418849 0.026004
C61   C     C_R   0.195333 0.372303 0.421886 0.035578
C62   C     C_R   0.828882 0.653838 0.580829 0.038361
C63   C     C_R   0.340999 0.843271 0.502940 -0.134194
C64   C     C_R   0.659002 0.156727 0.497060 -0.134918
C65   C     C_R   0.658821 0.843649 0.497754 -0.134712
C66   C     C_R   0.341178 0.156351 0.502249 -0.135429
C67   C     C_R   0.841243 0.343233 0.502671 -0.138855
C68   C     C_R   0.690323 0.810021 0.499640 0.852050
C69   C     C_R   0.158930 0.656923 0.497074 -0.102571
C70   C     C_R   0.158667 0.343261 0.497536 -0.138754
C71   C     C_R   0.841376 0.656832 0.502294 -0.131812
C72   C     C_R   0.386181 0.869930 0.424927 0.137957
C73   C     C_R   0.613821 0.130067 0.575071 0.137851
C74   C     C_R   0.595209 0.852602 0.579196 0.131793
C75   C     C_R   0.404794 0.147405 0.420813 0.131775
C76   C     C_R   0.906796 0.348864 0.425254 0.136391
C77   C     C_R   0.112267 0.631130 0.575604 0.139524
C78   C     C_R   0.093180 0.348805 0.575225 0.136255
C79   C     C_R   0.309676 0.189979 0.500361 0.853630
C80   C     C_R   0.888961 0.632155 0.422491 0.129937
C81   C     C_R   0.419846 0.899199 0.426479 -0.178829
C82   C     C_R   0.580155 0.100800 0.573520 -0.178922
C83   C     C_R   0.567178 0.888006 0.578634 -0.136462
C84   C     C_R   0.432825 0.112000 0.421373 -0.136433
C85   C     C_R   0.935513 0.383188 0.426754 -0.198787
C86   C     C_R   0.078663 0.602023 0.574294 -0.172332
C87   C     C_R   0.064454 0.383243 0.573868 -0.199252
C88   C     C_R   0.922672 0.602930 0.424106 -0.133838
C89   C     C_R   0.412319 0.899930 0.500154 -0.143904
C90   C     C_R   0.809788 0.309967 0.500201 0.854313
C91   C     C_R   0.587683 0.100069 0.499844 -0.144019
C92   C     C_R   0.601591 0.914753 0.500809 -0.177095
C93   C     C_R   0.398410 0.085247 0.499190 -0.177194
C94   C     C_R   0.899869 0.413021 0.499530 -0.167113
C95   C     C_R   0.087939 0.600167 0.499109 -0.088692
C96   C     C_R   0.100083 0.413213 0.500900 -0.167087
C97   C     C_R   0.912644 0.600400 0.500013 -0.105087
C98   C     C_R   0.943284 0.564478 0.500052 1.049189
C99   C     C_R   0.064606 0.443807 0.500138 0.978164
C100  C     C_R   0.056873 0.564454 0.499650 1.051760
C101  C     C_R   0.190084 0.689932 0.500340 0.865089
C102  C     C_R   0.935411 0.443678 0.500002 0.978195
C103  C     C_R   0.434735 0.055304 0.499878 1.012761
C104  C     C_R   0.565265 0.944696 0.500122 1.012830
C105  C     C_R   0.556597 0.064582 0.499849 1.017071
C106  C     C_R   0.443404 0.935417 0.500151 1.017139
C107  C     C_R   0.335759 0.750133 0.328505 0.853672
C108  C     C_R   0.664259 0.249889 0.671495 0.855721
C109  C     C_R   0.664178 0.750063 0.671466 0.853720
C110  C     C_R   0.335805 0.249959 0.328533 0.854849
C111  C     C_R   0.835750 0.250116 0.328505 0.857045
C112  C     C_R   0.190175 0.309961 0.499889 0.854141
C113  C     C_R   0.164274 0.749900 0.671495 0.855720
C114  C     C_R   0.164188 0.250047 0.671467 0.855569
C115  C     C_R   0.835814 0.749943 0.328533 0.853205
C116  C     C_1   0.386427 0.750227 0.226889 -0.205378
C117  C     C_1   0.613580 0.249817 0.773111 -0.208240
C118  C     C_1   0.613285 0.750088 0.773079 -0.205850
C119  C     C_1   0.386708 0.249956 0.226921 -0.208131
C120  C     C_1   0.886428 0.250178 0.226890 -0.207063
C121  C     C_1   0.113611 0.749811 0.773110 -0.205942
C122  C     C_1   0.113302 0.250030 0.773081 -0.207551
C123  C     C_R   0.809945 0.689939 0.499571 0.854865
C124  C     C_1   0.886707 0.749924 0.226920 -0.205015
C125  C     C_1   0.428675 0.750251 0.142242 0.003162
C126  C     C_1   0.571321 0.249817 0.857758 0.001747
C127  C     C_1   0.570917 0.750134 0.857724 0.003125
C128  C     C_1   0.429088 0.249934 0.142275 0.001636
C129  C     C_1   0.928689 0.250168 0.142243 0.003112
C130  C     C_1   0.071362 0.749791 0.857758 0.003639
C131  C     C_1   0.070931 0.250039 0.857727 0.002124
C132  C     C_1   0.929085 0.749890 0.142275 0.003720
C133  C     C_1   0.478600 0.750233 0.042309 0.006009
C134  C     C_R   0.371283 0.869985 0.574614 0.030852
C135  C     C_1   0.521396 0.249852 0.957690 0.004382
C136  C     C_1   0.520924 0.750193 0.957655 0.005749
C137  C     C_1   0.479079 0.249891 0.042344 0.004130
C138  C     C_1   0.978619 0.250122 0.042311 0.005437
C139  C     C_1   0.021428 0.749809 0.957691 0.007099
C140  C     C_1   0.020941 0.250078 0.957658 0.004986
C141  C     C_1   0.979092 0.749842 0.042344 0.006603
C142  C     C_R   0.281126 0.820559 0.660804 -0.140010
C143  C     C_R   0.718883 0.179435 0.339191 -0.139773
C144  C     C_R   0.758036 0.860110 0.336421 -0.146996
Cl1   Cl    Cl    0.433721 0.874205 0.625404 -0.689307
Cl2   Cl    Cl    0.566290 0.125793 0.374581 -0.689813
Cl3   Cl    Cl    0.690630 0.996942 0.365923 -0.644834
Cl4   Cl    Cl    0.309379 0.003051 0.634051 -0.644686
Cl5   Cl    Cl    0.814387 0.499122 0.619426 -0.653850
Cl6   Cl    Cl    0.072327 0.624156 0.365512 -0.644293
Cl7   Cl    Cl    0.185657 0.499541 0.380644 -0.654665
Cl8   Cl    Cl    0.927969 0.624156 0.633702 -0.643547
H1    H     H_    0.246539 0.802910 0.669594 0.138363
H2    H     H_    0.762322 0.200127 0.206449 0.160230
H3    H     H_    0.843383 0.880849 0.200044 0.163373
H4    H     H_    0.156603 0.119129 0.799934 0.162863
H5    H     H_    0.653046 0.388461 0.789101 0.161914
H6    H     H_    0.268508 0.696676 0.201935 0.160936
H7    H     H_    0.346706 0.389106 0.210599 0.161855
H8    H     H_    0.730120 0.694155 0.798788 0.162153
H9    H     H_    0.319105 0.833776 0.774475 0.169724
H10   H     H_    0.680912 0.166216 0.225510 0.168997
H11   H     H_    0.801918 0.953619 0.216397 0.175497
H12   H     H_    0.753469 0.197084 0.330402 0.138348
H13   H     H_    0.198077 0.046362 0.783573 0.175451
H14   H     H_    0.698062 0.460341 0.768222 0.175671
H15   H     H_    0.188644 0.662625 0.217825 0.172605
H16   H     H_    0.301813 0.461060 0.231565 0.175641
H17   H     H_    0.810613 0.660893 0.782450 0.173397
H18   H     H_    0.451831 0.922281 0.370666 0.176441
H19   H     H_    0.548168 0.077719 0.629334 0.176425
H20   H     H_    0.517675 0.894621 0.638459 0.214353
H21   H     H_    0.482329 0.105388 0.361552 0.214370
H22   H     H_    0.986339 0.386675 0.371738 0.179606
H23   H     H_    0.779421 0.829552 0.328438 0.136683
H24   H     H_    0.045260 0.580210 0.632629 0.170842
H25   H     H_    0.013648 0.386690 0.629071 0.179578
H26   H     H_    0.956549 0.581221 0.366630 0.179508
H27   H     H_    0.439984 0.929721 0.274704 0.261300
H28   H     H_    0.496089 0.886220 0.233512 0.263899
H29   H     H_    0.455412 0.887344 0.201764 0.258034
H30   H     H_    0.407531 0.831743 0.319332 0.196006
H31   H     H_    0.352655 0.875700 0.364113 0.228307
H32   H     H_    0.503926 0.113744 0.766496 0.263735
H33   H     H_    0.560064 0.070259 0.725241 0.261290
H34   H     H_    0.220567 0.170434 0.671555 0.136755
H35   H     H_    0.544625 0.112624 0.798209 0.258174
H36   H     H_    0.647358 0.124309 0.635869 0.228335
H37   H     H_    0.592451 0.168249 0.680686 0.196088
H38   H     H_    0.488883 0.870703 0.771794 0.257840
H39   H     H_    0.461422 0.834788 0.737785 0.289105
H40   H     H_    0.470323 0.814268 0.807625 0.252971
H41   H     H_    0.558186 0.789637 0.647136 0.229440
H42   H     H_    0.584818 0.823658 0.682901 0.195509
H43   H     H_    0.538581 0.165228 0.262249 0.288962
H44   H     H_    0.511133 0.129317 0.228214 0.257958
H45   H     H_    0.717057 0.333851 0.668046 0.140601
H46   H     H_    0.529689 0.185755 0.192401 0.253060
H47   H     H_    0.415196 0.176360 0.317104 0.195852
H48   H     H_    0.441815 0.210375 0.352896 0.229131
H49   H     H_    0.018329 0.362948 0.234135 0.265471
H50   H     H_    0.040942 0.327004 0.275367 0.258234
H51   H     H_    0.034829 0.305993 0.202822 0.258808
H52   H     H_    0.942496 0.284302 0.365974 0.225584
H53   H     H_    0.921448 0.316640 0.320238 0.198050
H54   H     H_    0.118838 0.564997 0.658328 0.256843
H55   H     H_    0.184712 0.602150 0.599553 0.276433
H56   H     H_    0.255902 0.695492 0.329506 0.136194
H57   H     H_    0.121520 0.600475 0.723523 0.243835
H58   H     H_    0.108990 0.665963 0.669270 0.198656
H59   H     H_    0.045716 0.628871 0.723520 0.210167
H60   H     H_    0.981900 0.362395 0.766452 0.265517
H61   H     H_    0.959053 0.326680 0.725547 0.258270
H62   H     H_    0.965346 0.305350 0.797901 0.258044
H63   H     H_    0.057464 0.284098 0.634799 0.225296
H64   H     H_    0.078775 0.316263 0.680105 0.197918
H65   H     H_    0.001921 0.619863 0.230952 0.273043
H66   H     H_    0.947982 0.575710 0.266531 0.259249
H67   H     H_    0.282708 0.334157 0.331841 0.140614
H68   H     H_    0.963664 0.619611 0.195367 0.255749
H69   H     H_    0.858916 0.628224 0.356717 0.225535
H70   H     H_    0.911838 0.672778 0.317745 0.199639
H71   H     H_    0.743119 0.693690 0.670815 0.136418
H72   H     H_    0.237693 0.799863 0.793540 0.161334
O1    O     O_R   0.321660 0.769950 0.500020 -0.605852
O2    O     O_R   0.730050 0.178330 0.500000 -0.616963
O3    O     O_R   0.730050 0.821670 0.500000 -0.605356
O4    O     O_R   0.269950 0.178330 0.500000 -0.604536
O5    O     O_R   0.769950 0.321670 0.500000 -0.603472
O6    O     O_R   0.230050 0.678330 0.500000 -0.609703
O7    O     O_R   0.230050 0.321670 0.500000 -0.603399
O8    O     O_R   0.769950 0.678330 0.500000 -0.617365
O9    O     O_R   0.339000 0.724150 0.373720 -0.592517
O10   O     O_R   0.661000 0.275850 0.626280 -0.597835
O11   O     O_R   0.661000 0.724150 0.626280 -0.595904
O12   O     O_R   0.678340 0.230050 0.499980 -0.605574
O13   O     O_R   0.339000 0.275850 0.373720 -0.602535
O14   O     O_R   0.839000 0.224150 0.373720 -0.596357
O15   O     O_R   0.161000 0.775850 0.626280 -0.590286
O16   O     O_R   0.161000 0.224150 0.626280 -0.602194
O17   O     O_R   0.839000 0.775850 0.373720 -0.595831
O18   O     O_R   0.287290 0.775870 0.373700 -0.603408
O19   O     O_R   0.712710 0.224130 0.626300 -0.598317
O20   O     O_R   0.712710 0.775870 0.626300 -0.597928
O21   O     O_R   0.287290 0.224130 0.373700 -0.593160
O22   O     O_R   0.787290 0.275870 0.373700 -0.598155
O23   O     O_R   0.678340 0.769950 0.499980 -0.615861
O24   O     O_R   0.212710 0.724130 0.626300 -0.601188
O25   O     O_R   0.212710 0.275870 0.626300 -0.592236
O26   O     O_R   0.787290 0.724130 0.373700 -0.598106
O27   O     O_R   0.989830 0.545820 0.428700 -0.620144
O28   O     O_R   0.010170 0.454180 0.571300 -0.645010
O29   O     O_R   0.010170 0.545820 0.571300 -0.618746
O30   O     O_R   0.989830 0.454180 0.428700 -0.644652
O31   O     O_R   0.489830 0.045820 0.428700 -0.607934
O32   O     O_R   0.510170 0.954180 0.571300 -0.607960
O33   O     O_R   0.510170 0.045820 0.571300 -0.661712
O34   O     O_R   0.321660 0.230050 0.500020 -0.616086
O35   O     O_R   0.489830 0.954180 0.428700 -0.661612
O36   O     O_R   0.918540 0.545810 0.571290 -0.562108
O37   O     O_R   0.081460 0.454190 0.428710 -0.594240
O38   O     O_R   0.081460 0.545810 0.428710 -0.562995
O39   O     O_R   0.918540 0.454190 0.571290 -0.593887
O40   O     O_R   0.418540 0.045810 0.571290 -0.595862
O41   O     O_R   0.581460 0.954190 0.428710 -0.595701
O42   O     O_R   0.581460 0.045810 0.428710 -0.542146
O43   O     O_R   0.418540 0.954190 0.571290 -0.542153
O44   O     O_R   0.821660 0.269950 0.500020 -0.623009
O45   O     O_R   0.178340 0.730050 0.499980 -0.607366
O46   O     O_R   0.178340 0.269950 0.499980 -0.622912
O47   O     O_R   0.821660 0.730050 0.500020 -0.601460
O48   O     O_R   0.269950 0.821670 0.500000 -0.617590
Zn1   Zn    Zn3+2 0.284530 0.715470 0.500010 0.972715
Zn2   Zn    Zn3+2 0.952400 0.500000 0.595210 1.047138
Zn3   Zn    Zn3+2 0.547600 0.000000 0.404790 1.051652
Zn4   Zn    Zn3+2 0.452400 1.000000 0.595210 1.051473
Zn5   Zn    Zn3+2 0.715470 0.284530 0.499990 0.977713
Zn6   Zn    Zn3+2 0.715470 0.715470 0.499990 0.967754
Zn7   Zn    Zn3+2 0.284530 0.284530 0.500010 0.971741
Zn8   Zn    Zn3+2 0.784530 0.215470 0.500010 0.959742
Zn9   Zn    Zn3+2 0.215470 0.784530 0.499990 0.976471
Zn10  Zn    Zn3+2 0.215470 0.215470 0.499990 0.965575
Zn11  Zn    Zn3+2 0.784530 0.784530 0.500010 0.983108
Zn12  Zn    Zn3+2 0.047600 0.500000 0.404790 1.046721

loop_
_geom_bond_atom_site_label_1
_geom_bond_atom_site_label_2
_ccdc_geom_bond_type
C61   C70   A    
C78   C87   A    
C37   H37   S    
C48   H64   S    
C50   H69   S    
C16   C25   A    
C16   H8    S    
C103  O31   A    
C41   C42   S    
C91   C105  S    
C69   C77   A    
C36   H28   S    
C121  C130  T    
C41   H47   S    
C93   C103  S    
C29   Cl4   S    
C97   C98   S    
C9    C143  A    
C68   O3    A    
C1    O48   A    
C51   H65   S    
C20   H13   S    
O15   Zn9   S    
O7    Zn7   S    
C106  O43   A    
O40   Zn4   S    
C112  O7    A    
C30   C35   A    
C14   H6    S    
C26   C134  A    
C17   C26   A    
O26   Zn6   S    
C6    C61   A    
C71   C123  S    
C70   C78   A    
O13   Zn7   S    
C34   H30   S    
O14   Zn8   S    
C52   C61   A    
C27   Cl2   S    
C98   O27   A    
C75   C84   A    
C37   H36   S    
C43   H53   S    
C54   C63   A    
C98   O36   A    
C56   C65   A    
C54   C134  A    
C96   C99   S    
C49   H61   S    
C132  C141  S    
C38   H32   S    
C124  C132  T    
C35   C59   A    
C53   C62   A    
C39   C74   S    
O8    Zn6   S    
C24   C29   A    
C32   C52   A    
C131  C140  S    
C59   C67   A    
C6    C15   A    
C115  O17   A    
O41   Zn3   S    
O38   Zn12  S    
C123  O8    A    
O33   Zn4   S    
C31   C46   A    
C66   C79   S    
C89   C106  S    
C44   H51   S    
C103  O40   A    
C90   O5    A    
O35   Zn3   S    
C2    C27   A    
C115  C124  S    
C46   C95   A    
C12   H5    S    
C4    C12   A    
C5    H56   S    
C117  C126  T    
C74   C83   A    
O18   Zn9   S    
C48   C78   S    
C72   C81   A    
C5    C60   A    
C84   C93   A    
C13   C56   A    
C81   C89   A    
C119  C128  T    
C82   C91   A    
C15   C23   A    
C107  O9    A    
C48   H63   S    
C51   H66   S    
O10   Zn5   S    
O16   Zn10  S    
C83   H20   S    
C44   H50   S    
C79   O34   A    
O45   Zn9   S    
C42   H43   S    
C36   H27   S    
O17   Zn11  S    
C41   H48   S    
C130  C139  S    
C1    C63   S    
C71   C80   A    
O34   Zn7   S    
C58   C66   A    
C109  C118  S    
C85   H22   S    
C20   C29   A    
C45   C47   S    
C68   O23   A    
C33   C53   A    
C11   C20   A    
C39   H42   S    
C108  O10   A    
O43   Zn4   S    
C110  O13   A    
C111  O14   A    
C55   C143  A    
C22   C31   A    
C129  C138  S    
C4    C59   A    
O12   Zn5   S    
C42   H46   S    
C104  O41   A    
C112  O46   A    
C39   C40   S    
C115  O26   A    
C31   Cl6   S    
C95   C100  S    
C30   Cl5   S    
C19   H11   S    
C109  O20   A    
C53   C97   A    
C105  O42   A    
C114  O25   A    
C101  O45   A    
C49   H62   S    
C67   C90   S    
O46   Zn10  S    
C21   H14   S    
O25   Zn7   S    
C50   C80   S    
C111  C120  S    
C102  O30   A    
C114  C122  S    
C110  C119  S    
O22   Zn5   S    
C90   O44   A    
C128  C137  S    
C139  C141  T    
C7    C62   A    
C15   H7    S    
C37   C38   S    
C83   C92   A    
O4    Zn10  S    
C41   C75   S    
O37   Zn12  S    
C7    H71   S    
C85   C94   A    
O47   Zn11  S    
C40   H40   S    
C10   C19   A    
C64   C73   A    
C65   C68   S    
O9    Zn1   S    
C87   C96   A    
C50   C51   S    
C10   H3    S    
C113  C121  S    
C34   H31   S    
C13   C28   A    
O2    Zn8   S    
C81   H18   S    
C127  C136  S    
C42   H44   S    
C19   C28   A    
C73   C82   A    
C5    C14   A    
C101  O6    A    
C17   H9    S    
C11   H4    S    
C133  C136  T    
C57   O2    A    
C109  O11   A    
C110  O21   A    
C24   C58   A    
C4    H45   S    
C54   C142  A    
C100  O38   A    
C77   C86   A    
C116  C125  T    
C47   H57   S    
O6    Zn1   S    
C44   H49   S    
C6    H67   S    
C118  C127  T    
C22   H15   S    
C38   H35   S    
C46   C60   A    
C84   H21   S    
C38   H33   S    
C3    H34   S    
C34   C72   S    
C143  H12   S    
C43   H52   S    
C57   O12   A    
C87   H25   S    
C57   C64   S    
C114  O16   A    
C35   C94   A    
C1    O1    A    
C43   C76   S    
C135  C137  T    
C37   C73   S    
C39   H41   S    
C50   H70   S    
O20   Zn11  S    
C105  O33   A    
C89   C134  A    
C65   C74   A    
C47   H54   S    
C120  C129  T    
C10   C144  A    
O11   Zn6   S    
O1    Zn1   S    
C108  C117  S    
C7    C16   A    
C18   C27   A    
C88   C97   A    
C26   Cl1   S    
C123  O47   A    
C99   O28   A    
C144  H23   S    
C33   Cl8   S    
O3    Zn11  S    
O19   Zn8   S    
C126  C135  S    
C8    C142  A    
C88   H26   S    
C138  C140  T    
C55   C64   A    
C69   C101  S    
C51   H68   S    
C40   H39   S    
C113  O24   A    
C21   C30   A    
O44   Zn8   S    
C125  C133  S    
C45   H58   S    
C104  O32   A    
C47   H55   S    
C2    C55   A    
C25   H17   S    
C23   C32   A    
C14   C22   A    
O23   Zn6   S    
O36   Zn2   S    
O24   Zn1   S    
C13   C92   A    
C24   C93   A    
O48   Zn9   S    
C8    C17   A    
C18   H10   S    
C122  C131  T    
C106  O35   A    
C32   Cl7   S    
C60   C69   A    
C43   C44   S    
C111  O22   A    
C48   C49   S    
C66   C75   A    
C12   C21   A    
C108  O19   A    
O5    Zn5   S    
C36   H29   S    
C34   C36   S    
C62   C71   A    
C52   C96   A    
C86   H24   S    
O27   Zn12  S    
C99   O37   A    
C142  H1    S    
C2    C91   A    
C70   C112  S    
O29   Zn2   S    
C107  C116  S    
C3    C11   A    
C86   C95   A    
C92   C104  S    
C23   H16   S    
C56   C144  A    
C3    C58   A    
C9    C18   A    
C113  O15   A    
O39   Zn2   S    
C40   H38   S    
C63   C72   A    
C94   C102  S    
O42   Zn3   S    
C80   C88   A    
C8    H72   S    
O31   Zn3   S    
O21   Zn10  S    
C102  O39   A    
O32   Zn4   S    
C45   C77   S    
C67   C76   A    
C107  O18   A    
C49   H60   S    
C82   H19   S    
O28   Zn2   S    
C76   C85   A    
C45   H59   S    
C100  O29   A    
C9    H2    S    
C25   C33   A    
C79   O4    A    
C28   Cl3   S    
O30   Zn12  S    
