data_mof_unit_42571.cif
_audit_creation_date              2012-12-10T21:28:58-0500
_audit_creation_method            fapswitch 2.2
_symmetry_space_group_name_H-M    P1
_symmetry_Int_Tables_number       1
_space_group_crystal_system       triclinic
_cell_length_a                    10.573366
_cell_length_b                    16.303425
_cell_length_c                    16.962899
_cell_angle_alpha                 88.042383
_cell_angle_beta                  92.123196
_cell_angle_gamma                 90.722392
_cell_volume                      2920.19858928

loop_
_atom_site_label
_atom_site_type_symbol
_atom_type_description
_atom_site_fract_x
_atom_site_fract_y
_atom_site_fract_z
_atom_type_partial_charge
C1    C     C_R   0.491834 0.489472 0.652443 0.994883
C2    C     C_R   0.527888 0.506767 0.897621 0.130439
C3    C     C_R   0.582907 0.442828 0.857918 0.247134
C4    C     C_R   0.740202 0.499195 0.490292 0.988530
C5    C     C_R   0.529806 0.421545 0.784794 0.258015
C6    C     C_R   0.491791 0.440219 0.138234 0.258550
C7    C     C_R   0.526698 0.445012 0.218430 0.347889
C8    C     C_R   0.460109 0.512268 0.095527 -0.008415
C9    C     C_R   0.509865 0.518508 0.258826 -0.318457
C10   C     C_R   0.487672 0.593095 0.213329 0.258228
C11   C     C_R   0.455262 0.587913 0.132522 0.312105
C12   C     C_R   0.943777 0.423674 0.492132 -0.268562
C13   C     C_R   0.423735 0.760652 0.466869 0.418448
C14   C     C_R   0.422695 0.847744 0.463560 0.204817
C15   C     C_R   0.527373 0.891245 0.498489 0.008225
C16   C     C_R   0.505393 0.511425 0.346614 1.019496
C17   C     C_R   0.624564 0.845028 0.536786 0.210556
C18   C     C_R   0.607402 0.759307 0.552224 0.387036
C19   C     C_R   0.492494 0.144316 0.548004 0.142513
C20   C     C_R   0.524682 0.229263 0.551632 0.383104
C21   C     C_R   0.479452 0.109907 0.472755 0.017213
C22   C     C_R   0.436135 0.247497 0.421818 0.377150
C23   C     C_R   0.876239 0.496765 0.475987 -0.189825
C24   C     C_R   0.463703 0.164647 0.408033 0.249208
C25   C     C_R   0.260849 0.500881 0.511730 0.941445
C26   C     C_R   0.908647 0.345881 0.463105 0.425554
C27   C     C_R   0.966448 0.274425 0.496073 0.356679
C28   C     C_R   0.060385 0.281949 0.557624 0.214209
C29   C     C_R   0.104705 0.360896 0.577192 0.495250
C30   C     C_R   0.058448 0.430006 0.534197 -0.106172
C31   C     C_R   0.941608 0.571917 0.472076 0.315717
C32   C     C_R   0.061552 0.578058 0.508511 0.317222
C33   C     C_R   0.126068 0.504731 0.529086 -0.155463
C34   C     C_R   0.476405 0.485432 0.738143 -0.301750
C35   C     C_R   0.420843 0.551421 0.774866 0.370781
C36   C     C_R   0.440854 0.559341 0.856827 0.312583
H1    H     H_    0.975853 0.732609 0.319203 0.417888
H2    H     H_    0.757807 0.604488 0.687622 0.372642
H3    H     H_    0.153233 0.234725 0.290883 0.420001
H4    H     H_    0.885231 0.446722 0.307835 0.377736
H5    H     H_    0.182679 0.934468 0.503981 0.367136
H6    H     H_    0.384212 0.080967 0.213958 0.405567
H7    H     H_    0.357225 0.670339 0.409077 0.400903
H8    H     H_    0.958766 0.154287 0.502253 0.382387
H9    H     H_    0.142050 0.177408 0.550993 0.354393
H10   H     H_    0.185175 0.325485 0.675795 0.409430
H11   H     H_    0.260735 0.729842 0.615261 0.373102
H12   H     H_    0.253748 0.297860 0.831050 0.398393
H13   H     H_    0.632144 0.349113 0.224496 0.413194
H14   H     H_    0.397540 0.290958 0.986989 0.419836
H15   H     H_    0.760019 0.277137 0.959579 0.408645
H16   H     H_    0.307375 0.732442 0.216570 0.399523
H17   H     H_    0.295382 0.626003 0.874931 0.363837
H18   H     H_    0.368233 0.643676 0.042667 0.397506
H19   H     H_    0.340900 0.657782 0.756628 0.379740
H20   H     H_    0.835945 0.190231 0.637286 0.400894
H21   H     H_    0.275793 0.033969 0.608421 0.374034
H22   H     H_    0.965900 0.862884 0.581998 0.389378
N1    N     N_2   0.545924 0.509731 0.980199 -0.015435
N2    N     N_2   0.442821 0.510618 0.013400 -0.027009
N3    N     N_R   0.515300 0.716920 0.509720 -0.223539
N4    N     N_2   0.536914 0.979234 0.505872 0.029361
N5    N     N_2   0.470399 0.023307 0.459799 0.038954
N6    N     N_R   0.484690 0.283070 0.490290 -0.224481
O1    O     O_R   0.494530 0.422540 0.612660 -0.552247
O2    O     O_2   0.823961 0.715742 0.444592 -0.196230
O3    O     O_3   0.012071 0.688653 0.354592 -0.465270
O4    O     O_2   0.407868 0.303158 0.705366 -0.223909
O5    O     O_2   0.504091 0.262803 0.834158 -0.152259
O6    O     O_3   0.301347 0.350583 0.830381 -0.528373
O7    O     O_2   0.583937 0.703998 0.321155 -0.203639
O8    O     O_2   0.549592 0.752550 0.186447 -0.146655
O9    O     O_3   0.352140 0.726195 0.268705 -0.484945
O10   O     O_3   0.382616 0.619327 0.897394 -0.715713
O11   O     O_3   0.417940 0.658405 0.090708 -0.651790
O12   O     O_R   0.504350 0.561840 0.618900 -0.533164
O13   O     O_3   0.346405 0.605122 0.729712 -0.650607
O14   O     O_2   0.702968 0.336926 0.615281 -0.299012
O15   O     O_2   0.626937 0.226150 0.701091 -0.143290
O16   O     O_3   0.773155 0.188924 0.592510 -0.530466
O17   O     O_2   0.581941 0.051336 0.670889 -0.121455
O18   O     O_2   0.402581 0.138428 0.695114 -0.176300
O19   O     O_3   0.359385 0.007738 0.617030 -0.525552
O20   O     O_2   0.797226 0.959979 0.495218 -0.218737
O21   O     O_2   0.763406 0.937930 0.636211 -0.181886
O22   O     O_3   0.891262 0.829979 0.564509 -0.409408
O23   O     O_R   0.678320 0.430330 0.496880 -0.569307
O24   O     O_2   0.558896 0.698228 0.694871 -0.300192
O25   O     O_2   0.754000 0.775487 0.687939 -0.161922
O26   O     O_3   0.750803 0.630323 0.633948 -0.495802
O27   O     O_2   0.208816 0.323258 0.418685 -0.357654
O28   O     O_2   0.336009 0.347534 0.303308 -0.226505
O29   O     O_3   0.222911 0.208427 0.322738 -0.444122
O30   O     O_2   0.893294 0.284656 0.318570 -0.205387
O31   O     O_2   0.697305 0.297919 0.387607 -0.215744
O32   O     O_3   0.801016 0.430331 0.327149 -0.544978
O33   O     O_2   0.351443 0.940863 0.337559 -0.151143
O34   O     O_R   0.688140 0.569640 0.503120 -0.550780
O35   O     O_2   0.194748 0.840425 0.378763 -0.128922
O36   O     O_3   0.227620 0.967495 0.463428 -0.508483
O37   O     O_2   0.536873 0.203783 0.261797 -0.172811
O38   O     O_2   0.593328 0.067845 0.315840 -0.195522
O39   O     O_3   0.360741 0.092149 0.268522 -0.403016
O40   O     O_3   0.324891 0.720669 0.429930 -0.598463
O41   O     O_3   0.929836 0.199551 0.466049 -0.617170
O42   O     O_3   0.120028 0.214811 0.593078 -0.733583
O43   O     O_3   0.192682 0.372524 0.637714 -0.687604
O44   O     O_2   0.089709 0.743134 0.499094 -0.179969
O45   O     O_R   0.495650 0.438160 0.381100 -0.512540
O46   O     O_2   0.008640 0.681235 0.620129 -0.203771
O47   O     O_3   0.247052 0.672665 0.598571 -0.476979
O48   O     O_3   0.575015 0.377368 0.259255 -0.572087
O49   O     O_2   0.595864 0.300115 0.093679 -0.222179
O50   O     O_2   0.383961 0.291187 0.146122 -0.185278
O51   O     O_3   0.405847 0.348515 0.003518 -0.481274
O52   O     O_2   0.800240 0.370448 0.829090 -0.242559
O53   O     O_2   0.793258 0.445664 0.951574 -0.244344
O54   O     O_3   0.678730 0.304276 0.945135 -0.416173
O55   O     O_R   0.505470 0.577460 0.387340 -0.629724
O56   O     O_R   0.311860 0.430360 0.496880 -0.562758
O57   O     O_R   0.321680 0.569670 0.503120 -0.598946
O58   O     O_2   0.796926 0.611827 0.343940 -0.276871
S1    S     S_3+6 0.888236 0.648963 0.402965 0.130918
S2    S     S_3+6 0.296372 0.898100 0.408292 0.186901
S3    S     S_3+6 0.492237 0.132039 0.311470 0.207111
S4    S     S_3+6 0.101283 0.671216 0.556281 0.135225
S5    S     S_3+6 0.470551 0.342218 0.095546 0.136423
S6    S     S_3+6 0.719134 0.391368 0.896364 0.135094
S7    S     S_3+6 0.437792 0.330403 0.787401 0.140793
S8    S     S_3+6 0.498459 0.695336 0.249336 0.145700
S9    S     S_3+6 0.655938 0.250100 0.617612 0.137246
S10   S     S_3+6 0.460644 0.085614 0.635694 0.160083
S11   S     S_3+6 0.771012 0.896282 0.558935 0.169165
S12   S     S_3+6 0.669371 0.716683 0.644081 0.152430
S13   S     S_3+6 0.301006 0.285947 0.366405 0.114658
S14   S     S_3+6 0.822695 0.337890 0.372258 0.128488
Zn1   Zn    Zn3+2 0.493440 0.406980 0.495830 1.161465
Zn2   Zn    Zn3+2 0.506560 0.593020 0.504170 1.125420

loop_
_geom_bond_atom_site_label_1
_geom_bond_atom_site_label_2
_ccdc_geom_bond_type
C4    O34   A    
C35   C36   A    
O38   S3    D    
H6    O39   S    
O32   S14   S    
C4    O23   A    
H8    O41   S    
C12   C23   A    
C26   C27   A    
C29   C30   A    
O34   Zn2   S    
C28   C29   A    
C19   C21   A    
C9    C16   S    
O23   Zn1   S    
C6    S5    S    
C34   C35   A    
O33   S2    D    
O26   S12   S    
H11   O47   S    
N3    Zn2   S    
C27   O41   S    
H15   O54   S    
O51   S5    S    
C7    O48   S    
O45   Zn1   S    
H14   O51   S    
C32   S4    S    
H7    O40   S    
H3    O29   S    
H17   O10   S    
C28   O42   S    
C16   O45   A    
C1    O1    A    
H21   O19   S    
C9    C10   A    
O1    Zn1   S    
C5    S7    S    
N1    N2    D    
O16   S9    S    
C13   C14   A    
H10   O43   S    
C1    O12   A    
O54   S6    S    
H4    O32   S    
H22   O22   S    
C1    C34   S    
N6    Zn1   S    
O20   S11   D    
C14   S2    S    
H16   O9    S    
C16   O55   A    
C4    C23   S    
C3    S6    S    
O17   S10   D    
C6    C8    A    
C3    C5    A    
C35   O13   S    
O6    S7    S    
C12   C26   A    
O36   S2    S    
C23   C31   A    
O57   Zn2   S    
C20   N6    A    
O14   S9    D    
C10   S8    S    
N4    N5    D    
O22   S11   S    
O37   S3    D    
C31   C32   A    
O15   S9    D    
C5    C34   A    
O47   S4    S    
C17   C18   A    
H5    O36   S    
C13   N3    A    
C13   O40   S    
O8    S8    D    
C36   O10   S    
O46   S4    D    
H13   O48   S    
C17   S11   S    
C24   S3    S    
C22   C24   A    
O28   S13   D    
C20   S9    S    
O18   S10   D    
C25   O56   A    
H9    O42   S    
C2    C36   A    
C19   S10   S    
C7    C9    A    
O9    S8    S    
O25   S12   D    
C30   C33   A    
C12   C30   A    
C2    N1    S    
O55   Zn2   S    
H12   O6    S    
O29   S13   S    
O3    S1    S    
C18   N3    A    
C15   C17   A    
C6    C7    A    
O49   S5    D    
O12   Zn2   S    
H2    O26   S    
H20   O16   S    
C22   S13   S    
C32   C33   A    
C19   C20   A    
C2    C3    A    
C31   S1    S    
O19   S10   S    
C11   O11   S    
C8    N2    S    
O7    S8    D    
O50   S5    D    
C8    C11   A    
H19   O13   S    
H1    O3    S    
O31   S14   D    
O24   S12   D    
C15   N4    S    
C18   S12   S    
O4    S7    D    
O39   S3    S    
O53   S6    D    
C21   N5    S    
C26   S14   S    
C10   C11   A    
C22   N6    A    
H18   O11   S    
O2    S1    D    
O27   S13   D    
O5    S7    D    
O52   S6    D    
C21   C24   A    
C25   C33   S    
C27   C28   A    
C14   C15   A    
C29   O43   S    
O30   S14   D    
O56   Zn1   S    
O44   S4    D    
O58   S1    D    
C25   O57   A    
O21   S11   D    
O35   S2    D    
