data_mof_unit_42748.cif
_audit_creation_date              2013-03-05T15:40:11-0500
_audit_creation_method            fapswitch 2.2
_symmetry_space_group_name_H-M    P1
_symmetry_Int_Tables_number       1
_space_group_crystal_system       triclinic
_cell_length_a                    7.462721
_cell_length_b                    8.678025
_cell_length_c                    12.965348
_cell_angle_alpha                 88.036439
_cell_angle_beta                  79.331723
_cell_angle_gamma                 102.785662
_cell_volume                      802.201649849

loop_
_atom_site_label
_atom_site_type_symbol
_atom_site_description
_atom_site_fract_x
_atom_site_fract_y
_atom_site_fract_z
_atom_type_partial_charge
O1    O     O_R   0.621060 0.286250 0.492350 -0.587882
O2    O     O_R   0.378940 0.713750 0.507650 -0.587892
O3    O     O_R   0.306310 0.256580 0.512240 -0.572981
O4    O     O_R   0.693690 0.743420 0.487760 -0.572987
C1    C     C_R   0.452806 0.199717 0.503193 0.892740
C2    C     C_R   0.547194 0.800283 0.496806 0.892712
O5    O     O_R   0.631800 0.512400 0.642670 -0.567350
O6    O     O_R   0.368200 0.487600 0.357330 -0.567356
O7    O     O_R   0.317060 0.482730 0.662570 -0.568346
O8    O     O_R   0.682940 0.517270 0.337430 -0.568260
C3    C     C_R   0.467047 0.497579 0.700981 0.865590
C4    C     C_R   0.532955 0.502441 0.299019 0.865588
Cu1   Cu    Cu3+1 0.686350 0.517570 0.488220 1.031190
Cu2   Cu    Cu3+1 0.313650 0.482430 0.511780 1.031162
N1    N     N_2   0.033570 0.455950 0.529530 -0.194766
N2    N     N_2   0.966430 0.544050 0.470470 -0.194740
C5    C     C_R   0.551461 0.510305 0.185781 -0.163726
C6    C     C_R   0.448545 0.489812 0.814221 -0.163801
C7    C     C_R   0.267036 0.376904 0.984484 0.405257
C8    C     C_R   0.732871 0.623451 0.015549 0.405260
C9    C     C_R   0.290307 0.389250 0.875728 -0.219287
C10   C     C_R   0.709617 0.610999 0.124303 -0.219316
C11   C     C_R   0.584785 0.583794 0.860648 0.271124
C12   C     C_R   0.415237 0.416366 0.139331 0.271255
C13   C     C_R   0.581120 0.552481 0.968395 -0.096297
C14   C     C_R   0.418863 0.447779 0.031604 -0.096314
H1    H     H_    0.821111 0.673411 0.160921 0.209753
H2    H     H_    0.178770 0.326883 0.839124 0.209819
H3    H     H_    0.934088 0.376467 0.583117 0.236184
H4    H     H_    0.065912 0.623533 0.416883 0.236196
C15   C     C_2   0.426234 0.031850 0.504666 -0.310763
C16   C     C_2   0.573766 0.968150 0.495334 -0.310758
H5    H     H_    0.284019 0.960335 0.513432 0.192712
H6    H     H_    0.715981 0.039665 0.486568 0.192711
Br1   Br    Br    0.258734 0.224623 0.219104 -0.381202
Br2   Br    Br    0.741375 0.775422 0.780775 -0.381202
N3    N     N_R   0.082951 0.307950 0.044768 0.164346
O9    O     O_R   0.979429 0.183183 0.014503 -0.283095
O10   O     O_R   0.005409 0.387366 0.116424 -0.323343
N4    N     N_R   0.916864 0.692735 0.955306 0.164276
O11   O     O_R   0.019787 0.817937 0.985442 -0.282984
O12   O     O_R   0.994950 0.613354 0.883841 -0.323226

loop_
_geom_bond_atom_site_label_1
_geom_bond_atom_site_label_2
_geom_bond_distance
_ccdc_geom_bond_type
C4    C5    1.446768 S    
C2    C16   1.425010 S    
O7    Cu2   1.960000 S    
C15   H5    1.087857 S    
C3    C6    1.446806 S    
N3    O9    1.301635 A    
C6    C9    1.392670 A    
C5    C10   1.392633 A    
C8    N4    1.436067 S    
O6    C4    1.295749 A    
N4    O12   1.301602 A    
N3    O10   1.301652 A    
Cu1   Cu2   2.688102 S    
O5    C3    1.295760 A    
O7    C3    1.290128 A    
O2    C2    1.292420 A    
O3    Cu2   1.948315 S    
O8    C4    1.290124 A    
O1    C1    1.292420 A    
N1    N2    1.301302 D    
N4    O11   1.301515 A    
C7    C9    1.385876 A    
C9    H2    1.084186 S    
C8    C10   1.385870 A    
N1    H3    1.029163 S    
C10   H1    1.084189 S    
C11   C13   1.408083 A    
O2    Cu2   1.954480 S    
C5    C12   1.397946 A    
O1    Cu1   1.954480 S    
C8    C13   1.417400 A    
N2    H4    1.029164 S    
C6    C11   1.398010 A    
C12   Br1   1.943500 S    
O5    Cu1   1.965115 S    
O4    C2    1.283647 A    
C11   Br2   1.943515 S    
Cu1   N2    2.019957 S    
O4    Cu1   1.948315 S    
C7    C14   1.417364 A    
Cu2   N1    2.019957 S    
O6    Cu2   1.965113 S    
C7    N3    1.436236 S    
C1    C15   1.425009 S    
C13   C14   1.434573 A    
C15   C16   1.325527 D    
C12   C14   1.408012 A    
O3    C1    1.283647 A    
O8    Cu1   1.959997 S    
C16   H6    1.087857 S    
