data_mof_unit_27829.cif
_audit_creation_date              2013-03-05T15:47:37-0500
_audit_creation_method            fapswitch 2.2
_symmetry_space_group_name_H-M    P1
_symmetry_Int_Tables_number       1
_space_group_crystal_system       triclinic
_cell_length_a                    10.965773
_cell_length_b                    12.997385
_cell_length_c                    11.679776
_cell_angle_alpha                 100.087097
_cell_angle_beta                  91.928508
_cell_angle_gamma                 91.105193
_cell_volume                      1637.47982908

loop_
_atom_site_label
_atom_site_type_symbol
_atom_site_description
_atom_site_fract_x
_atom_site_fract_y
_atom_site_fract_z
_atom_type_partial_charge
O1    O     O_R   0.506570 0.354460 0.582000 -0.590651
O2    O     O_R   0.490940 0.341410 0.386200 -0.603924
C1    C     C_R   0.491514 0.299290 0.478314 0.822478
O3    O     O_R   0.327470 0.506530 0.597920 -0.605319
O4    O     O_R   0.311840 0.493480 0.402120 -0.581107
C2    C     C_R   0.261987 0.501174 0.503143 0.783944
Cu1   Cu    Cu3+1 0.509250 0.507730 0.615930 0.951126
Cu2   Cu    Cu3+1 0.490750 0.492270 0.384070 0.950048
O5    O     O_R   0.509060 0.658590 0.613800 -0.585288
O6    O     O_R   0.493430 0.645540 0.418000 -0.589635
O7    O     O_R   0.688160 0.506520 0.597880 -0.570038
O8    O     O_R   0.672530 0.493470 0.402080 -0.567363
C3    C     C_R   0.493620 0.700875 0.522120 0.800721
C4    C     C_R   0.737466 0.494991 0.497001 0.821934
H1    H     H_    0.112162 0.565550 0.350374 0.164811
C5    C     C_R   0.113784 0.452281 0.707251 -0.218735
H2    H     H_    0.204050 0.478962 0.737964 0.169230
C6    C     C_R   0.044195 0.409179 0.786002 -0.217064
H3    H     H_    0.079436 0.407122 0.873084 0.152151
C7    C     C_R   0.931973 0.362166 0.750271 -0.173206
H4    H     H_    0.887176 0.314611 0.804726 0.140332
C8    C     C_R   0.880677 0.372973 0.642707 0.028788
C9    C     C_R   0.936348 0.441245 0.576605 0.054012
C10   C     C_R   0.062048 0.466032 0.598138 0.106040
C11   C     C_R   0.127891 0.502803 0.509416 -0.132543
C12   C     C_R   0.063261 0.534348 0.416518 -0.244456
C13   C     C_R   0.936474 0.531343 0.409955 -0.029174
C14   C     C_R   0.871101 0.485255 0.490888 -0.167064
C15   C     C_R   0.477147 0.814488 0.535387 -0.107875
C16   C     C_R   0.482464 0.185639 0.464194 -0.022089
C17   C     C_R   0.512469 0.015056 0.348120 -0.206657
C18   C     C_R   0.508170 0.123083 0.357429 -0.177112
C19   C     C_R   0.455370 0.139302 0.559922 -0.236390
C20   C     C_R   0.459369 0.031284 0.551057 0.157041
C21   C     C_R   0.490125 0.968865 0.445257 0.176319
C22   C     C_R   0.500113 0.861579 0.438641 -0.271553
C23   C     C_R   0.438429 0.877030 0.640131 -0.019755
C24   C     C_R   0.433818 0.985316 0.646976 -0.253188
H5    H     H_    0.527609 0.814839 0.357798 0.152652
H6    H     H_    0.535326 0.968011 0.265916 0.125647
H7    H     H_    0.408122 0.034047 0.726998 0.163498
H8    H     H_    0.529430 0.157836 0.282510 0.145407
H9    H     H_    0.433701 0.187424 0.641980 0.146905
N1    N     N_R   0.523180 0.519350 0.790130 -0.194488
N2    N     N_R   0.476820 0.480650 0.209890 -0.193166
C25   C     C_R   0.413866 0.375482 0.023540 -0.107046
C26   C     C_R   0.418769 0.394779 0.146875 0.031519
C27   C     C_R   0.527110 0.554405 0.155578 0.034866
C28   C     C_R   0.522164 0.542484 0.033356 0.029325
C29   C     C_R   0.464954 0.453060 0.964594 0.011419
C30   C     C_R   0.466181 0.444990 0.841075 -0.029821
C31   C     C_R   0.592221 0.598002 0.858614 0.238511
C32   C     C_R   0.584107 0.614443 0.979805 -0.338756
H10   H     H_    0.427248 0.377893 0.784002 0.134702
H11   H     H_    0.637718 0.677462 0.032799 0.147917
H12   H     H_    0.376530 0.339643 0.193715 0.139051
H13   H     H_    0.573967 0.621590 0.207572 0.139799
C33   C     C_R   0.704865 0.642218 0.817286 0.138307
C34   C     C_R   0.816454 0.600268 0.846280 -0.134201
C35   C     C_R   0.926821 0.648373 0.826985 -0.112648
C36   C     C_R   0.927999 0.736768 0.774421 -0.118413
C37   C     C_R   0.817990 0.780076 0.746387 -0.167439
C38   C     C_R   0.707423 0.734888 0.771098 -0.123520
H14   H     H_    0.817718 0.532744 0.889035 0.136203
H15   H     H_    0.010956 0.618099 0.855672 0.134015
H16   H     H_    0.013790 0.773358 0.758530 0.128793
H17   H     H_    0.818321 0.850672 0.709082 0.138748
H18   H     H_    0.625664 0.774353 0.756503 0.155010
C39   C     C_R   0.358055 0.272583 0.965295 0.102227
C40   C     C_R   0.379438 0.182096 0.013653 -0.160626
C41   C     C_R   0.312073 0.089705 0.974187 -0.133248
C42   C     C_R   0.226512 0.084062 0.882078 -0.117291
C43   C     C_R   0.207969 0.171383 0.829832 -0.145522
C44   C     C_R   0.272328 0.264984 0.872100 -0.170686
H19   H     H_    0.445657 0.183693 0.084830 0.112875
H20   H     H_    0.325221 0.023051 0.016483 0.142766
H21   H     H_    0.175141 0.012053 0.850993 0.135292
H22   H     H_    0.141799 0.167366 0.758185 0.145238
H23   H     H_    0.252764 0.331927 0.833777 0.119514
C45   C     C_1   0.796702 0.291623 0.588387 0.214303
N3    N     N_1   0.733878 0.222675 0.544613 -0.295789
C46   C     C_1   0.877147 0.577630 0.319595 0.267129
N4    N     N_1   0.830258 0.614831 0.247059 -0.320391
C47   C     C_R   0.397754 0.833756 0.742576 0.113645
C48   C     C_R   0.449216 0.872541 0.854304 -0.195077
C49   C     C_R   0.414582 0.829352 0.950155 -0.158885
C50   C     C_R   0.325252 0.749873 0.936270 -0.103759
C51   C     C_R   0.270706 0.713728 0.826590 -0.133501
C52   C     C_R   0.305409 0.755939 0.730237 -0.083339
H24   H     H_    0.519189 0.933852 0.866472 0.134510
H25   H     H_    0.456939 0.857644 0.035187 0.122772
H26   H     H_    0.298427 0.716201 0.010354 0.128418
H27   H     H_    0.201920 0.652636 0.816090 0.113609
H28   H     H_    0.261512 0.727119 0.645957 0.104231

loop_
_geom_bond_atom_site_label_1
_geom_bond_atom_site_label_2
_geom_bond_distance
_ccdc_geom_bond_type
C50   C51   1.395110 A    
C43   C44   1.398169 A    
C21   C22   1.389653 A    
C27   H13   1.082245 S    
C48   C49   1.397573 A    
Cu1   O7    1.980292 S    
C15   C22   1.403700 A    
C34   H14   1.083211 S    
C37   C38   1.397767 A    
C37   H17   1.082496 S    
C3    C15   1.472830 S    
C23   C24   1.397656 A    
C6    H3    1.080738 S    
C49   H25   1.082479 S    
O4    C2    1.305855 A    
O7    C4    1.298928 A    
C2    C11   1.475133 S    
C17   H6    1.083972 S    
C20   C21   1.409383 A    
C25   C26   1.417250 A    
C52   H28   1.083048 S    
O5    C3    1.294167 A    
Cu2   N2    2.013809 S    
C25   C39   1.499241 S    
C51   H27   1.072866 S    
C36   H16   1.082157 S    
C5    H2    1.071451 S    
C43   H22   1.082525 S    
C23   C47   1.486252 S    
C40   C41   1.396128 A    
C51   C52   1.396188 A    
N1    C31   1.378758 A    
C32   H11   1.085803 S    
C34   C35   1.394611 A    
C5    C10   1.418786 A    
O1    Cu1   1.961335 S    
C50   H26   1.082410 S    
C36   C37   1.394076 A    
O3    Cu1   1.996848 S    
C19   C20   1.391218 A    
N2    C26   1.358642 A    
C19   H9    1.085036 S    
Cu1   Cu2   2.680677 S    
C10   C11   1.426205 A    
C24   H7    1.082291 S    
O3    C2    1.289747 A    
C49   C50   1.394475 A    
C42   C43   1.394623 A    
H1    C12   1.085403 S    
C11   C12   1.401057 A    
Cu1   N1    2.014041 S    
C35   C36   1.394320 A    
O1    C1    1.298395 A    
C1    C16   1.458417 S    
C42   H21   1.082581 S    
C17   C18   1.390996 A    
Cu2   O8    1.996847 S    
C29   C30   1.428575 A    
C12   C13   1.389265 A    
C39   C44   1.402911 A    
C9    C14   1.417606 A    
C47   C48   1.408735 A    
C31   C33   1.482903 S    
N1    C30   1.371856 A    
Cu2   O6    1.961335 S    
C27   C28   1.407744 A    
O8    C4    1.294293 A    
C35   H15   1.075948 S    
C46   N4    1.157445 T    
C44   H23   1.067988 S    
C17   C21   1.399739 A    
C47   C52   1.403133 A    
C13   C14   1.411967 A    
C31   C32   1.400155 A    
N2    C27   1.357078 A    
C33   C38   1.403517 A    
Cu1   O5    1.965335 S    
C38   H18   1.064925 S    
C16   C19   1.397287 A    
C20   C24   1.392727 A    
C13   C46   1.445785 S    
C22   H5    1.084818 S    
O2    Cu2   1.965334 S    
C7    C8    1.389885 A    
C45   N3    1.153717 T    
O6    C3    1.299830 A    
O4    Cu2   1.980292 S    
C48   H24   1.083232 S    
C25   C29   1.432446 A    
C30   H10   1.072393 S    
O2    C1    1.289662 A    
C33   C34   1.404214 A    
C8    C45   1.434078 S    
C41   C42   1.394566 A    
C16   C18   1.404586 A    
C41   H20   1.079488 S    
C28   C32   1.391521 A    
C6    C7    1.381677 A    
C39   C40   1.411249 A    
C9    C10   1.413576 A    
C7    H4    1.083927 S    
C5    C6    1.397652 A    
C28   C29   1.414372 A    
C15   C23   1.427459 A    
C40   H19   1.082395 S    
C18   H8    1.082692 S    
C8    C9    1.416667 A    
C4    C14   1.476341 S    
C26   H12   1.081188 S    
