data_mof_unit_14535.cif
_audit_creation_date              2012-12-10T16:51:16-0500
_audit_creation_method            fapswitch 2.2
_symmetry_space_group_name_H-M    P1
_symmetry_Int_Tables_number       1
_space_group_crystal_system       triclinic
_cell_length_a                    27.687149
_cell_length_b                    8.672269
_cell_length_c                    7.413573
_cell_angle_alpha                 103.212745
_cell_angle_beta                  93.016594
_cell_angle_gamma                 91.842247
_cell_volume                      1728.765126

loop_
_atom_site_label
_atom_site_type_symbol
_atom_type_description
_atom_site_fract_x
_atom_site_fract_y
_atom_site_fract_z
_atom_type_partial_charge
C1    C     C_R   0.498568 0.199565 0.453067 0.885905
C2    C     C_R   0.501443 0.800442 0.546940 0.881428
C3    C     C_R   0.102120 0.401232 0.521364 -0.052284
C4    C     C_R   0.896324 0.387774 0.492118 -0.052235
C5    C     C_R   0.126287 0.347511 0.357359 -0.032084
C6    C     C_R   0.872406 0.455832 0.652471 -0.023229
C7    C     C_R   0.099636 0.283008 0.190912 -0.160302
C8    C     C_R   0.899025 0.514020 0.820485 -0.150297
C9    C     C_R   0.129645 0.465263 0.689971 -0.073027
C10   C     C_R   0.868643 0.323941 0.323747 -0.072505
C11   C     C_R   0.355157 0.481568 0.514246 -0.127294
C12   C     C_R   0.644550 0.472577 0.483182 -0.139522
C13   C     C_R   0.972012 0.322510 0.337873 0.023459
C14   C     C_R   0.026343 0.451316 0.679527 0.026178
C15   C     C_R   0.974799 0.448440 0.672361 0.048602
C16   C     C_R   0.023603 0.328142 0.344221 0.047774
C17   C     C_R   0.947893 0.385754 0.500750 0.072323
C18   C     C_R   0.050504 0.392811 0.515336 0.071948
C19   C     C_R   0.943561 0.256151 0.172808 -0.253997
C20   C     C_R   0.054707 0.516257 0.845233 -0.260273
C21   C     C_R   0.893180 0.256307 0.163943 -0.022170
C22   C     C_R   0.105044 0.525333 0.851596 -0.031439
C23   C     C_R   0.407665 0.497588 0.504216 0.825422
C24   C     C_R   0.592426 0.497093 0.495233 0.811412
C25   C     C_R   0.049528 0.273941 0.183811 -0.216616
C26   C     C_R   0.948925 0.508381 0.831314 -0.218506
C27   C     C_2   0.497876 0.031579 0.426645 -0.356125
C28   C     C_2   0.502143 0.968444 0.573386 -0.349207
C29   C     C_R   0.176869 0.363059 0.361818 0.603322
C30   C     C_R   0.822046 0.465390 0.642311 0.612820
C31   C     C_R   0.180796 0.469724 0.688459 0.500085
C32   C     C_R   0.817485 0.330965 0.322943 0.537140
C33   C     C_R   0.274788 0.568500 0.448329 0.520239
C34   C     C_R   0.715177 0.349280 0.588888 0.501802
C35   C     C_R   0.325167 0.580702 0.438196 -0.312487
C36   C     C_R   0.666222 0.382941 0.597942 -0.306840
C37   C     C_R   0.334519 0.365969 0.597088 -0.049953
C38   C     C_R   0.672775 0.531519 0.358566 -0.064314
C39   C     C_R   0.284355 0.349902 0.600222 -0.211392
C40   C     C_R   0.722318 0.504754 0.356434 -0.226491
C41   C     C_R   0.254401 0.448580 0.524385 0.249251
C42   C     C_R   0.743919 0.416508 0.473255 0.231398
Cu1   Cu    Cu3+1 0.505380 0.517380 0.684380 0.976140
Cu2   Cu    Cu3+1 0.494620 0.482620 0.315620 0.975881
H1    H     H_    0.462636 0.378296 0.948684 0.244727
H2    H     H_    0.537237 0.622075 0.051442 0.243725
H3    H     H_    0.268299 0.259129 0.659523 0.164682
H4    H     H_    0.744626 0.556262 0.267475 0.191206
H5    H     H_    0.117458 0.241280 0.063187 0.182159
H6    H     H_    0.881285 0.563598 0.946331 0.185654
H7    H     H_    0.644901 0.335971 0.693396 0.175981
H8    H     H_    0.340851 0.668305 0.372356 0.165606
H9    H     H_    0.959405 0.201524 0.045706 0.142734
H10   H     H_    0.038888 0.565096 0.974222 0.142741
H11   H     H_    0.032587 0.226192 0.047808 0.146652
H12   H     H_    0.965694 0.553684 0.968060 0.146135
H13   H     H_    0.493860 0.959568 0.285394 0.181208
H14   H     H_    0.506148 0.040462 0.714640 0.184159
N1    N     N_R   0.202822 0.426331 0.524912 -0.452307
N2    N     N_R   0.795602 0.402107 0.480013 -0.447752
N3    N     N_2   0.486510 0.456430 0.038510 -0.215325
N4    N     N_2   0.513490 0.543570 0.961490 -0.214240
O1    O     O_R   0.503500 0.286120 0.619780 -0.585053
O2    O     O_R   0.496500 0.713880 0.380220 -0.586795
O3    O     O_R   0.494410 0.256780 0.308360 -0.583826
O4    O     O_R   0.505590 0.743220 0.691640 -0.581541
O5    O     O_R   0.434810 0.514700 0.655690 -0.581287
O6    O     O_R   0.565190 0.485300 0.344310 -0.582616
O7    O     O_R   0.425720 0.485350 0.344280 -0.569089
O8    O     O_R   0.574280 0.514650 0.655720 -0.570832
O9    O     O_2   0.200072 0.315276 0.204275 -0.511888
O10   O     O_2   0.799635 0.539881 0.793350 -0.521927
O11   O     O_2   0.789583 0.267651 0.167519 -0.536360
O12   O     O_2   0.208560 0.517754 0.847853 -0.500752
C43   C     C_1   0.363798 0.256898 0.670751 0.250361
N5    N     N_1   0.387152 0.169177 0.729440 -0.306519
C44   C     C_1   0.652698 0.627683 0.240375 0.264531
N6    N     N_1   0.636788 0.705032 0.145622 -0.307870
O13   O     O_3   0.735841 0.262279 0.705271 -0.556280
C45   C     C_3   0.721541 0.099960 0.640314 0.040953
H15   H     H_    0.747937 0.042342 0.541023 0.167035
H16   H     H_    0.684608 0.079530 0.568586 0.118143
C46   C     C_3   0.721612 0.021530 0.805325 -0.279343
H17   H     H_    0.758151 0.036603 0.877501 0.278415
H18   H     H_    0.695430 0.079795 0.905003 0.230224
C47   C     C_3   0.707894 0.844830 0.743951 -0.862924
H19   H     H_    0.671090 0.825879 0.673255 0.245997
H20   H     H_    0.708066 0.791940 0.866964 0.285819
H21   H     H_    0.734514 0.784251 0.648282 0.267862
O14   O     O_3   0.244994 0.662547 0.367773 -0.561853
C48   C     C_3   0.246901 0.819777 0.477714 0.055240
H22   H     H_    0.238438 0.899301 0.383271 0.195742
H23   H     H_    0.283426 0.860417 0.546017 0.121871
C49   C     C_3   0.208773 0.837877 0.623089 -0.378603
H24   H     H_    0.173380 0.784660 0.556006 0.244286
H25   H     H_    0.220228 0.774698 0.731132 0.245158
C50   C     C_3   0.202492 0.011026 0.717770 -0.837216
H26   H     H_    0.236578 0.062944 0.797047 0.270210
H27   H     H_    0.173378 0.018519 0.816498 0.265390
H28   H     H_    0.192210 0.080048 0.613631 0.246023
C51   C     C_1   0.868703 0.186963 0.984988 0.347450
N7    N     N_1   0.849674 0.131478 0.840918 -0.268459
C52   C     C_1   0.129469 0.607454 0.026019 0.356789
N8    N     N_1   0.148597 0.674129 0.165860 -0.234152

loop_
_geom_bond_atom_site_label_1
_geom_bond_atom_site_label_2
_ccdc_geom_bond_type
C51   N7    T    
C8    C26   A    
C23   O7    A    
C34   C42   A    
Cu1   Cu2   S    
C50   H26   S    
Cu1   O1    S    
C39   C41   A    
C44   N6    T    
Cu2   O2    S    
H2    N4    S    
C19   C21   A    
C47   H20   S    
C9    C22   A    
C23   O5    A    
C3    C18   A    
C40   H4    S    
C31   N1    A    
C11   C23   S    
C11   C37   A    
C14   C18   A    
C29   N1    A    
C30   N2    A    
C1    O3    A    
C12   C36   A    
C21   C51   S    
C19   H9    S    
C40   C42   A    
C37   C43   S    
Cu2   O3    S    
N3    N4    D    
C45   C46   S    
C1    O1    A    
C50   H27   S    
C2    O2    A    
C5    C29   A    
C10   C21   A    
C13   C19   A    
C24   O8    A    
C14   C20   A    
C7    H5    S    
C20   H10   S    
C27   H13   S    
C42   N2    S    
C48   H22   S    
C5    C7    A    
C9    C31   A    
C47   H19   S    
C15   C26   A    
C6    C8    A    
C49   C50   S    
C3    C5    A    
C22   C52   S    
C43   N5    T    
C3    C9    A    
C34   O13   S    
C48   H23   S    
C46   H17   S    
Cu2   O7    S    
C16   C18   A    
C49   H25   S    
C41   N1    S    
C36   H7    S    
C4    C17   A    
C45   H16   S    
C46   H18   S    
C20   C22   A    
Cu1   O8    S    
Cu2   O6    S    
C4    C6    A    
C32   N2    A    
C4    C10   A    
C8    H6    S    
C52   N8    T    
C50   H28   S    
C39   H3    S    
C16   C25   A    
C15   C17   A    
C6    C30   A    
C25   H11   S    
C45   H15   S    
C2    O4    A    
C47   H21   S    
C26   H12   S    
C30   O10   S    
C38   C44   S    
C28   H14   S    
Cu2   N3    S    
C12   C24   S    
C7    C25   A    
C13   C17   A    
C33   C41   A    
C11   C35   A    
C37   C39   A    
C33   O14   S    
C48   C49   S    
C38   C40   A    
C35   H8    S    
O14   C48   S    
Cu1   O4    S    
H1    N3    S    
C33   C35   A    
C34   C36   A    
C12   C38   A    
C49   H24   S    
C31   O12   S    
C24   O6    A    
O13   C45   S    
C10   C32   A    
C46   C47   S    
Cu1   O5    S    
C13   C16   A    
C27   C28   D    
C1    C27   S    
C14   C15   A    
C2    C28   S    
C32   O11   S    
Cu1   N4    S    
C29   O9    S    
