data_mof_unit_26844.cif
_audit_creation_date              2012-12-10T19:44:58-0500
_audit_creation_method            fapswitch 2.2
_symmetry_space_group_name_H-M    P1
_symmetry_Int_Tables_number       1
_space_group_crystal_system       triclinic
_cell_length_a                    15.042728
_cell_length_b                    10.790577
_cell_length_c                    13.695293
_cell_angle_alpha                 90.320117
_cell_angle_beta                  89.764641
_cell_angle_gamma                 89.626927
_cell_volume                      2222.91514281

loop_
_atom_site_label
_atom_site_type_symbol
_atom_type_description
_atom_site_fract_x
_atom_site_fract_y
_atom_site_fract_z
_atom_type_partial_charge
C1    C     C_R   0.498416 0.262280 0.499675 0.815012
C2    C     C_R   0.501701 0.737824 0.500459 0.815439
C3    C     C_R   0.046165 0.410639 0.663096 -0.170005
C4    C     C_R   0.953819 0.591013 0.337566 -0.190941
C5    C     C_R   0.251209 0.222537 0.318368 0.459156
C6    C     C_R   0.722338 0.756487 0.711747 0.510320
C7    C     C_R   0.312865 0.172717 0.385214 -0.397466
C8    C     C_R   0.675084 0.818454 0.637593 -0.404925
C9    C     C_R   0.394111 0.122105 0.353162 -0.075458
C10   C     C_R   0.593866 0.877859 0.657553 -0.055562
C11   C     C_R   0.416191 0.125351 0.252860 0.410428
C12   C     C_R   0.558023 0.873762 0.752981 0.356471
C13   C     C_R   0.356501 0.179464 0.187144 -0.322130
C14   C     C_R   0.602939 0.807146 0.825426 -0.423470
C15   C     C_R   0.275512 0.230200 0.218877 0.427012
C16   C     C_R   0.685524 0.748487 0.805872 0.444916
C17   C     C_R   0.456444 0.933218 0.427633 -0.147975
C18   C     C_R   0.544149 0.067235 0.572873 -0.147923
C19   C     C_R   0.502697 0.871734 0.501487 -0.090764
C20   C     C_R   0.497637 0.128578 0.499138 -0.073619
C21   C     C_R   0.545753 0.938888 0.576240 0.107591
C22   C     C_R   0.452387 0.061593 0.426212 0.119776
C23   C     C_R   0.328562 0.500622 0.500200 0.813599
C24   C     C_R   0.671436 0.499295 0.499804 0.812258
C25   C     C_R   0.569440 0.448107 0.792897 0.084987
C26   C     C_R   0.431284 0.553673 0.207059 0.053083
C27   C     C_R   0.429750 0.551057 0.793539 0.109059
C28   C     C_R   0.569740 0.447523 0.206439 0.115309
C29   C     C_R   0.426518 0.551195 0.897020 -0.113245
C30   C     C_R   0.573216 0.447854 0.102922 -0.113821
C31   C     C_R   0.499548 0.500258 0.948167 0.019548
C32   C     C_R   0.500667 0.500138 0.051769 0.017242
C33   C     C_R   0.571232 0.448155 0.895620 -0.034916
C34   C     C_R   0.429254 0.553037 0.104290 -0.042849
C35   C     C_R   0.353122 0.599488 0.951017 0.460596
C36   C     C_R   0.646193 0.398255 0.048891 0.443649
C37   C     C_R   0.356564 0.602549 0.053663 -0.245836
C38   C     C_R   0.643657 0.397919 0.946155 -0.221822
C39   C     C_R   0.814387 0.543439 0.418314 -0.245119
C40   C     C_R   0.185599 0.457835 0.582227 -0.191908
C41   C     C_R   0.768117 0.497890 0.499343 -0.065607
C42   C     C_R   0.231878 0.501958 0.500675 -0.056747
C43   C     C_R   0.814236 0.451862 0.580222 -0.146452
C44   C     C_R   0.185764 0.547056 0.419469 -0.189345
C45   C     C_R   0.906827 0.452586 0.581180 0.102305
C46   C     C_R   0.093176 0.547150 0.418805 0.139232
C47   C     C_R   0.953438 0.499171 0.499761 0.039073
C48   C     C_R   0.046565 0.500949 0.500359 0.060059
C49   C     C_R   0.906975 0.544508 0.417930 0.088377
C50   C     C_R   0.093015 0.456454 0.582488 0.080864
C51   C     C_R   0.953507 0.408650 0.662423 -0.179474
C52   C     C_R   0.046472 0.592252 0.337979 -0.214133
Cu1   Cu    Cu3+1 0.500010 0.499980 0.597420 0.984668
Cu2   Cu    Cu3+1 0.499990 0.500020 0.402580 0.970001
H1    H     H_    0.778273 0.580001 0.356351 0.187093
H2    H     H_    0.221669 0.422506 0.644677 0.188371
H3    H     H_    0.420381 0.880924 0.372905 0.174233
H4    H     H_    0.579757 0.119544 0.627946 0.154428
H5    H     H_    0.623862 0.406896 0.752008 0.121363
H6    H     H_    0.377472 0.596349 0.248006 0.122289
H7    H     H_    0.376727 0.592164 0.751794 0.200247
H8    H     H_    0.622300 0.405270 0.248214 0.205260
H9    H     H_    0.301249 0.641169 0.094788 0.182520
H10   H     H_    0.699041 0.359644 0.904905 0.183749
H11   H     H_    0.778049 0.416175 0.642578 0.146525
H12   H     H_    0.221936 0.582497 0.357044 0.125067
H13   H     H_    0.918349 0.373073 0.725437 0.171595
H14   H     H_    0.081606 0.628340 0.275130 0.150467
H15   H     H_    0.081180 0.376253 0.726516 0.192602
H16   H     H_    0.918812 0.626377 0.274476 0.175609
H17   H     H_    0.297465 0.171197 0.462461 0.179174
H18   H     H_    0.700549 0.819011 0.563564 0.167335
H19   H     H_    0.372458 0.181923 0.110007 0.232532
H20   H     H_    0.572441 0.799934 0.896678 0.204563
N1    N     N_R   0.499960 0.499900 0.743810 -0.211010
N2    N     N_R   0.500040 0.500100 0.256190 -0.212090
O1    O     O_R   0.500000 0.319630 0.582270 -0.571228
O2    O     O_R   0.500000 0.680370 0.417730 -0.578023
O3    O     O_R   0.499990 0.319660 0.417730 -0.564110
O4    O     O_R   0.500010 0.680340 0.582270 -0.563106
O5    O     O_R   0.370260 0.499960 0.582280 -0.583638
O6    O     O_R   0.629740 0.500040 0.417720 -0.588020
O7    O     O_R   0.370250 0.499990 0.417740 -0.604272
O8    O     O_R   0.629750 0.500010 0.582260 -0.596750
S1    S     S_3+6 0.253230 0.647892 0.894049 0.007364
O9    O     O_2   0.271041 0.757239 0.829679 -0.209978
O10   O     O_2   0.218283 0.543122 0.832777 -0.334484
O11   O     O_3   0.176247 0.687812 0.978152 -0.545962
H21   H     H_    0.122098 0.707512 0.940206 0.388853
S2    S     S_3+6 0.743525 0.341495 0.106385 0.004000
O12   O     O_2   0.720859 0.230025 0.166544 -0.226443
O13   O     O_2   0.812905 0.305819 0.031868 -0.273552
O14   O     O_3   0.784457 0.452637 0.179637 -0.594257
H22   H     H_    0.835318 0.412997 0.213256 0.379473
O15   O     O_3   0.217488 0.274509 0.148701 -0.540188
C53   C     C_3   0.197998 0.401127 0.165186 -0.156280
H23   H     H_    0.252227 0.452277 0.202730 0.096183
H24   H     H_    0.135123 0.410768 0.207176 0.207902
H25   H     H_    0.187406 0.446159 0.093518 0.206863
O16   O     O_3   0.730817 0.675805 0.873587 -0.545637
C54   C     C_3   0.719665 0.718346 0.970554 -0.234885
H26   H     H_    0.655213 0.686653 0.000989 0.154929
H27   H     H_    0.726071 0.820875 0.976576 0.169354
H28   H     H_    0.772768 0.676578 0.015964 0.222004
O17   O     O_3   0.169036 0.269729 0.347572 -0.578984
C55   C     C_3   0.125517 0.189849 0.413282 -0.261063
H29   H     H_    0.150070 0.204452 0.488785 0.164170
H30   H     H_    0.131875 0.090615 0.391238 0.164796
H31   H     H_    0.053634 0.213530 0.413676 0.195238
O18   O     O_3   0.801983 0.694481 0.693677 -0.546848
C56   C     C_3   0.862001 0.769495 0.641384 -0.269601
H32   H     H_    0.862242 0.867060 0.668485 0.154108
H33   H     H_    0.847647 0.765940 0.561970 0.159174
H34   H     H_    0.930072 0.731595 0.651379 0.207399
S3    S     S_3+6 0.516878 0.061787 0.206931 0.023404
O19   O     O_2   0.538859 0.117791 0.109557 -0.273510
O20   O     O_2   0.591432 0.086390 0.277002 -0.264742
O21   O     O_3   0.504604 0.907891 0.193135 -0.539537
H35   H     H_    0.562515 0.877736 0.167435 0.372682
S4    S     S_3+6 0.456211 0.948258 0.783535 0.051141
O22   O     O_2   0.387125 0.916539 0.708663 -0.227643
O23   O     O_2   0.424063 0.908379 0.882512 -0.232689
O24   O     O_3   0.470502 0.102680 0.784655 -0.507044
H36   H     H_    0.518920 0.117250 0.832097 0.342998

loop_
_geom_bond_atom_site_label_1
_geom_bond_atom_site_label_2
_ccdc_geom_bond_type
O14   H22   S    
C27   C29   A    
C34   C37   A    
C1    O1    A    
C44   H12   S    
C56   H32   S    
C4    H16   S    
O24   H36   S    
C39   C41   A    
C5    O17   S    
Cu1   Cu2   S    
C54   H26   S    
C23   C42   S    
C23   O7    A    
C4    C52   A    
Cu1   O8    S    
C14   H20   S    
C15   O15   S    
C35   C37   A    
C7    H17   S    
C9    C22   S    
C55   H29   S    
C45   C51   A    
S3    O19   D    
C18   C21   A    
C53   H25   S    
C46   C52   A    
C11   C13   A    
Cu1   O5    S    
C24   O6    A    
O21   H35   S    
C27   H7    S    
C12   S4    S    
C26   C34   A    
C39   H1    S    
O15   C53   S    
C44   C46   A    
C40   H2    S    
C53   H24   S    
C26   N2    A    
C31   C33   A    
C11   S3    S    
C41   C43   A    
C52   H14   S    
S4    O24   S    
C40   C42   A    
C54   H27   S    
C24   C41   S    
C6    O18   S    
Cu1   N1    S    
C42   C44   A    
C27   N1    A    
Cu2   O7    S    
C37   H9    S    
C3    C50   A    
S4    O23   D    
C38   H10   S    
C45   C47   A    
C10   C21   S    
C46   C48   A    
C8    H18   S    
S1    O10   D    
Cu1   O4    S    
C47   C49   A    
C5    C7    A    
C3    C51   A    
C16   O16   S    
C6    C8    A    
S3    O20   D    
S1    O9    D    
O18   C56   S    
C25   N1    A    
C32   C34   A    
Cu1   O1    S    
C2    O2    A    
C43   C45   A    
S2    O13   D    
C47   C48   A    
C43   H11   S    
S3    O21   S    
C53   H23   S    
C56   H33   S    
C51   H13   S    
C9    C11   A    
C10   C12   A    
Cu2   N2    S    
C39   C49   A    
C12   C14   A    
C54   H28   S    
C13   C15   A    
C1    O3    A    
C14   C16   A    
C20   C22   A    
C36   C38   A    
C28   N2    A    
Cu2   O6    S    
S4    O22   D    
S2    O14   S    
Cu2   O3    S    
S1    O11   S    
C36   S2    S    
C7    C9    A    
C1    C20   S    
C23   O5    A    
C3    H15   S    
C2    C19   S    
C31   C32   A    
C33   C38   A    
C13   H19   S    
O17   C55   S    
C29   C35   A    
C17   C22   A    
C30   C36   A    
C4    C49   A    
C28   C30   A    
C24   O8    A    
C29   C31   A    
C30   C32   A    
C35   S1    S    
S2    O12   D    
C55   H30   S    
C40   C50   A    
C48   C50   A    
O16   C54   S    
C17   C19   A    
C18   H4    S    
C56   H34   S    
C18   C20   A    
C5    C15   A    
C2    O4    A    
C6    C16   A    
O11   H21   S    
C8    C10   A    
C17   H3    S    
C25   H5    S    
Cu2   O2    S    
C26   H6    S    
C25   C33   A    
C19   C21   A    
C55   H31   S    
C28   H8    S    
