data_mof_unit_15768.cif
_audit_creation_date              2013-03-05T15:56:47-0500
_audit_creation_method            fapswitch 2.2
_symmetry_space_group_name_H-M    P1
_symmetry_Int_Tables_number       1
_space_group_crystal_system       triclinic
_cell_length_a                    6.928871
_cell_length_b                    14.649432
_cell_length_c                    16.017036
_cell_angle_alpha                 89.849079
_cell_angle_beta                  90.331316
_cell_angle_gamma                 90.10348
_cell_volume                      1625.75818674

loop_
_atom_site_label
_atom_site_type_symbol
_atom_site_description
_atom_site_fract_x
_atom_site_fract_y
_atom_site_fract_z
_atom_type_partial_charge
O1    O     O_R   0.638180 0.333920 0.163320 -0.608823
O2    O     O_R   0.361820 0.666080 0.836680 -0.613011
O3    O     O_R   0.308470 0.344960 0.336080 -0.564204
O4    O     O_R   0.691530 0.655040 0.663920 -0.568952
O5    O     O_R   0.138140 0.166110 0.336680 -0.596249
O6    O     O_R   0.861860 0.833890 0.663320 -0.602778
C1    C     C_R   0.478016 0.369144 0.363268 1.000920
C2    C     C_R   0.521987 0.630851 0.636735 0.992075
O7    O     O_R   0.308460 0.344950 0.163930 -0.595488
O8    O     O_R   0.691540 0.655050 0.836070 -0.566507
O9    O     O_R   0.138140 0.166100 0.163310 -0.618414
O10   O     O_R   0.861860 0.833900 0.836690 -0.578998
C3    C     C_R   0.477371 0.367182 0.134957 0.940520
C4    C     C_R   0.522613 0.632770 0.865002 0.980367
O11   O     O_R   0.638180 0.333930 0.336700 -0.624785
O12   O     O_R   0.361820 0.666070 0.663300 -0.626697
O13   O     O_3   0.471670 0.191340 0.250000 -0.248795
O14   O     O_3   0.528330 0.808660 0.750000 -0.253502
V1    V     V_3+5 0.196830 0.260900 0.250000 1.213111
V2    V     V_3+5 0.803170 0.739100 0.750000 1.243651
O15   O     O_R   0.808420 0.155070 0.163920 -0.550964
O16   O     O_R   0.191580 0.844930 0.836080 -0.575074
C5    C     C_R   0.977033 0.134328 0.133866 0.976744
C6    C     C_R   0.023312 0.866231 0.865577 1.062610
O17   O     O_R   0.808420 0.155080 0.336070 -0.573736
O18   O     O_R   0.191580 0.844920 0.663930 -0.575107
C7    C     C_R   0.978504 0.134860 0.366200 0.900300
C8    C     C_R   0.021476 0.865193 0.633840 0.891104
V3    V     V_3+5 0.696830 0.239130 0.250000 1.227136
V4    V     V_3+5 0.303170 0.760870 0.750000 1.232774
O19   O     O_3   0.971850 0.308690 0.250010 -0.280748
O20   O     O_3   0.028150 0.691310 0.749990 -0.280465
H1    H     H_    0.098794 0.840620 0.244321 0.150652
H2    H     H_    0.902036 0.159377 0.755817 0.161160
C9    C     C_R   0.988410 0.188883 0.548523 -0.084818
C10   C     C_R   0.012118 0.811155 0.451572 -0.079536
C11   C     C_R   0.957134 0.209765 0.632776 -0.085462
C12   C     C_R   0.043925 0.790252 0.367373 -0.091083
C13   C     C_R   0.927782 0.141760 0.691211 -0.038213
C14   C     C_R   0.072821 0.858259 0.308902 -0.057322
C15   C     C_R   0.940335 0.051126 0.667953 -0.078818
C16   C     C_R   0.059186 0.948898 0.332052 -0.070788
C17   C     C_R   0.976290 0.025764 0.584279 0.120774
C18   C     C_R   0.023501 0.974277 0.415749 0.118789
C19   C     C_R   0.984468 0.095195 0.521327 0.027068
C20   C     C_R   0.015611 0.904856 0.478724 0.026371
C21   C     C_R   0.003678 0.932249 0.564132 -0.266627
C22   C     C_R   0.996229 0.067799 0.435907 -0.272657
H3    H     H_    0.957354 0.279896 0.653930 0.146659
H4    H     H_    0.044266 0.720105 0.346271 0.143994
H5    H     H_    0.921495 0.001124 0.717016 0.124247
H6    H     H_    0.077072 0.998871 0.282889 0.129647
C23   C     C_R   0.144664 0.008031 0.938005 0.358123
C24   C     C_R   0.855177 0.993111 0.060502 0.327307
C25   C     C_R   0.130762 0.074663 0.001301 -0.139510
C26   C     C_R   0.871730 0.925374 0.998400 -0.136293
C27   C     C_R   0.988331 0.066453 0.064464 -0.377485
C28   C     C_R   0.013723 0.933756 0.935142 -0.374490
C29   C     C_R   0.356790 0.512044 0.437840 0.021153
C30   C     C_R   0.643220 0.487940 0.562169 0.020482
C31   C     C_R   0.368228 0.570851 0.506884 -0.201995
C32   C     C_R   0.631797 0.429138 0.493120 -0.201007
H7    H     H_    0.270731 0.627915 0.509980 0.089174
H8    H     H_    0.729306 0.372074 0.490019 0.089072
C33   C     C_R   0.510466 0.561017 0.569086 -0.077265
C34   C     C_R   0.489551 0.438973 0.430919 -0.081694
C35   C     C_R   0.320364 0.474722 0.032203 -0.078463
C36   C     C_R   0.679590 0.525160 0.967698 -0.044581
H9    H     H_    0.179542 0.456324 0.055962 0.124707
H10   H     H_    0.820414 0.543571 0.943947 0.133376
C37   C     C_R   0.331665 0.538339 0.967003 -0.122066
C38   C     C_R   0.668291 0.461559 0.032908 -0.130808
H11   H     H_    0.198900 0.567167 0.942708 0.138420
H12   H     H_    0.801058 0.432753 0.057218 0.127977
C39   C     C_R   0.511439 0.564424 0.933809 -0.130946
C40   C     C_R   0.488521 0.435479 0.066109 -0.119536
C41   C     C_2   0.044730 0.267556 0.495737 0.446272
H13   H     H_    0.972136 0.282724 0.437548 0.032772
O21   O     O_2   0.170320 0.319993 0.519730 -0.600360
C42   C     C_2   0.955649 0.732482 0.504325 0.444337
H14   H     H_    0.028139 0.717288 0.562534 0.033050
O22   O     O_2   0.830040 0.680080 0.480287 -0.602077
N1    N     N_R   0.296551 0.015452 0.877601 0.251472
O23   O     O_R   0.256009 0.030508 0.799425 -0.405770
O24   O     O_R   0.476149 0.014176 0.901807 -0.399241
N2    N     N_R   0.705647 0.984968 0.121703 0.223890
O25   O     O_R   0.527268 0.001703 0.101184 -0.422699
O26   O     O_R   0.746476 0.958131 0.197139 -0.430726
C43   C     C_2   0.258149 0.156303 0.996108 0.618860
H15   H     H_    0.347455 0.176958 0.048429 0.047315
O27   O     O_2   0.266417 0.200749 0.931626 -0.563719
C44   C     C_2   0.747807 0.842635 0.005554 0.602517
H16   H     H_    0.598652 0.848538 0.024934 0.063440
O28   O     O_2   0.814051 0.766567 0.993920 -0.621737
C45   C     C_2   0.208482 0.532589 0.373568 0.475003
H17   H     H_    0.072507 0.562731 0.392078 0.048924
O29   O     O_2   0.239396 0.520392 0.299475 -0.582004
C46   C     C_2   0.791485 0.467374 0.626456 0.478513
H18   H     H_    0.927414 0.437175 0.607963 0.048669
O30   O     O_2   0.760578 0.479614 0.700543 -0.582402

loop_
_geom_bond_atom_site_label_1
_geom_bond_atom_site_label_2
_geom_bond_distance
_ccdc_geom_bond_type
C7    C22   1.489908 S    
V4    O20   2.159305 S    
C8    C21   1.489932 S    
O13   V3    1.708835 S    
C23   C25   1.413006 A    
C45   H17   1.084407 S    
O4    C2    1.299446 A    
V1    O19   1.710005 S    
C13   C15   1.382981 A    
C41   H13   1.079322 S    
C36   C39   1.405842 A    
O9    V1    2.005892 S    
C29   C45   1.481074 S    
C9    C11   1.402648 A    
O3    C1    1.299462 A    
C29   C34   1.417641 A    
N2    O26   1.299402 A    
O12   V4    2.010215 S    
C30   C32   1.405430 A    
C31   H7    1.077162 S    
O7    C3    1.302030 A    
C32   H8    1.077213 S    
O5    C7    1.288279 A    
O7    V1    2.003690 S    
O6    C8    1.288198 A    
O8    V2    2.003688 S    
O3    V1    2.002222 S    
O14   V4    1.708835 S    
C43   O27   1.221037 D    
C35   C37   1.400284 A    
C38   C40   1.408952 A    
C14   C16   1.383092 A    
C2    C33   1.493841 S    
C2    O12   1.299046 A    
C12   C14   1.380668 A    
V3    O19   2.159306 S    
C15   C17   1.415302 A    
C16   C18   1.415375 A    
O1    V3    2.001575 S    
C18   C20   1.431664 A    
O11   V3    2.010214 S    
C41   O21   1.220778 D    
O17   V3    1.999139 S    
C11   C13   1.380732 A    
C24   C26   1.412152 A    
C29   C31   1.405399 A    
H1    C14   1.082995 S    
C32   C34   1.404684 A    
H2    C13   1.083015 S    
C38   H12   1.082756 S    
C10   C42   1.480672 S    
C24   N2    1.435017 S    
N2    O25   1.300652 A    
C1    O11   1.299018 A    
O15   V3    2.009952 S    
C9    C41   1.480692 S    
C35   H9    1.082747 S    
C11   H3    1.082658 S    
N1    O23   1.300064 A    
C3    C40   1.489266 S    
C36   C38   1.400252 A    
O10   V2    2.005894 S    
C44   O28   1.221113 D    
C10   C20   1.441121 A    
C17   C19   1.431594 A    
O5    V1    2.003870 S    
C42   O22   1.220779 D    
N1    O24   1.301420 A    
C30   C33   1.417669 A    
O18   V4    1.999140 S    
C46   O30   1.220813 D    
C25   C27   1.422108 A    
O8    C4    1.302071 A    
O16   C6    1.299381 A    
O1    C3    1.296248 A    
C10   C12   1.402486 A    
C9    C19   1.441201 A    
C37   H11   1.082778 S    
V2    O20   1.710004 S    
C19   C22   1.429659 A    
C5    C27   1.495872 S    
C20   C21   1.429536 A    
O16   V4    2.009952 S    
C42   H14   1.079328 S    
C23   C28   1.416125 A    
C45   O29   1.220814 D    
C12   H4    1.082637 S    
O17   C7    1.305151 A    
O6    V2    2.003873 S    
O10   C6    1.297344 A    
O18   C8    1.305211 A    
O2    V4    2.001572 S    
C23   N1    1.437429 S    
C4    C39   1.489269 S    
O15   C5    1.302889 A    
C25   C43   1.487565 S    
C1    C34   1.493820 S    
C37   C39   1.408960 A    
O9    C5    1.295508 A    
C44   H16   1.084471 S    
O13   V1    2.161452 S    
C26   C28   1.421285 A    
O14   V2    2.161452 S    
O2    C4    1.296187 A    
O4    V2    2.002223 S    
C31   C33   1.404661 A    
C26   C44   1.488681 S    
C6    C28   1.493763 S    
C46   H18   1.084401 S    
C30   C46   1.481087 S    
C36   H10   1.082757 S    
C35   C40   1.405858 A    
C43   H15   1.082319 S    
C17   C21   1.421559 A    
C15   H5    1.081190 S    
C18   C22   1.421609 A    
C16   H6    1.081266 S    
C24   C27   1.416234 A    
