data_mof_unit_63188.cif
_audit_creation_date              2012-10-26T17:14:05-0400
_audit_creation_method            fapswitch 2.2
_symmetry_space_group_name_H-M    P1
_symmetry_Int_Tables_number       1
_space_group_crystal_system       triclinic
_cell_length_a                    19.125416
_cell_length_b                    19.012419
_cell_length_c                    18.868419
_cell_angle_alpha                 109.27924
_cell_angle_beta                  109.615197
_cell_angle_gamma                 109.743152
_cell_volume                      5266.84056997

loop_
_atom_site_label
_atom_site_type_symbol
_atom_type_description
_atom_site_fract_x
_atom_site_fract_y
_atom_site_fract_z
_atom_type_partial_charge
C1    C     C_R   0.386858 0.383046 0.504395 0.542045
C2    C     C_R   0.597406 0.341690 0.615418 -0.126132
C3    C     C_2   0.250661 0.178459 0.497362 -0.091329
C4    C     C_R   0.617992 0.500535 0.618482 0.522042
C5    C     C_2   0.179412 0.180566 0.491773 0.232040
C6    C     C_2   0.311840 0.238380 0.484935 -0.122569
C7    C     C_2   0.330734 0.320671 0.516954 -0.062949
C8    C     C_2   0.172109 0.487633 0.248048 0.244074
C9    C     C_2   0.183590 0.515159 0.193565 0.014049
C10   C     C_2   0.247999 0.501617 0.320507 -0.097641
C11   C     C_2   0.309743 0.489450 0.309322 0.202603
C12   C     C_R   0.757837 0.580444 0.755796 0.011684
C13   C     C_2   0.740711 0.748338 0.421637 0.194181
C14   C     C_2   0.818970 0.806213 0.492503 -0.064911
C15   C     C_2   0.682423 0.672883 0.421817 0.194630
C16   C     C_R   0.615048 0.617733 0.497635 0.581490
C17   C     C_2   0.673993 0.685958 0.492327 -0.067918
C18   C     C_R   0.995441 0.382205 0.878179 0.548221
C19   C     C_R   0.879043 0.500260 0.878935 0.512687
C20   C     C_R   0.998492 0.617436 0.116115 0.578165
C21   C     C_R   0.114933 0.504033 0.118789 0.583282
C22   C     C_R   0.001938 0.119396 0.617411 0.550601
C23   C     C_R   0.812742 0.500687 0.812640 -0.016096
C24   C     C_R   0.116848 0.116531 0.498420 0.535062
C25   C     C_R   0.001905 0.884494 0.382524 0.561319
C26   C     C_R   0.882848 0.879905 0.497682 0.591306
C27   C     C_2   0.994220 0.250666 0.675310 -0.147894
C28   C     C_R   0.380677 0.498056 0.380762 0.557700
C29   C     C_2   0.009363 0.190152 0.686509 -0.106902
C30   C     C_2   0.005705 0.323498 0.747657 -0.151690
C31   C     C_2   0.989528 0.313418 0.808498 -0.102441
C32   C     C_2   0.073244 0.815120 0.325808 -0.164815
C33   C     C_2   0.004007 0.823654 0.313148 -0.135714
C34   C     C_R   0.742285 0.421271 0.739015 -0.040798
C35   C     C_2   0.074911 0.755853 0.252580 0.213670
C36   C     C_2   0.002062 0.681744 0.187988 -0.038859
C37   C     C_R   0.772653 0.660582 0.760393 -0.092848
C38   C     C_R   0.840553 0.738327 0.834137 -0.116798
C39   C     C_R   0.894990 0.738158 0.904546 -0.115001
C40   C     C_R   0.884571 0.660247 0.899578 -0.090586
C41   C     C_R   0.818824 0.580279 0.823230 0.014522
C42   C     C_R   0.674023 0.421492 0.679765 -0.003066
C43   C     C_R   0.683980 0.500984 0.685957 -0.005223
C44   C     C_R   0.738057 0.341150 0.722915 -0.028819
C45   C     C_R   0.664046 0.262912 0.656122 0.259404
C46   C     C_R   0.592581 0.263663 0.603911 -0.116372
Cu1   Cu    Cu3+1 0.500390 0.438990 0.439360 1.003964
Cu2   Cu    Cu3+1 0.499610 0.561010 0.560640 0.948458
Cu3   Cu    Cu3+1 0.935830 0.439030 0.996840 1.020002
Cu4   Cu    Cu3+1 0.057850 0.561040 0.996790 0.989589
Cu5   Cu    Cu3+1 0.061410 0.000010 0.561410 0.953663
Cu6   Cu    Cu3+1 0.938590 0.999990 0.438590 1.013239
H1    H     H_    0.342451 0.215154 0.451304 0.128063
H2    H     H_    0.261595 0.128496 0.505639 0.093754
H3    H     H_    0.533438 0.203847 0.553339 0.098420
H4    H     H_    0.108869 0.233751 0.472844 0.335498
H5    H     H_    0.096307 0.434466 0.284567 0.326843
H6    H     H_    0.248447 0.553154 0.207392 0.116344
H7    H     H_    0.353712 0.459162 0.231265 0.349828
H8    H     H_    0.654959 0.713831 0.307028 0.334944
H9    H     H_    0.839807 0.795288 0.547036 0.047001
H10   H     H_    0.655266 0.592891 0.308074 0.334567
H11   H     H_    0.732896 0.664637 0.707328 0.139093
H12   H     H_    0.307190 0.345407 0.558703 0.163429
H13   H     H_    0.706937 0.751270 0.546359 0.047164
H14   H     H_    0.035263 0.196536 0.750528 0.113620
H15   H     H_    0.963454 0.250196 0.802883 0.120670
H16   H     H_    0.949297 0.790316 0.248055 0.106504
H17   H     H_    0.197458 0.830205 0.305300 0.321607
H18   H     H_    0.943879 0.662970 0.192125 0.059669
H19   H     H_    0.850184 0.798924 0.837070 0.120018
H20   H     H_    0.792137 0.337788 0.761115 0.161650
H21   H     H_    0.606524 0.137761 0.594973 0.326024
H22   H     H_    0.250107 0.516972 0.382281 0.096127
H23   H     H_    0.977462 0.249372 0.613706 0.150204
H24   H     H_    0.022613 0.384196 0.747885 0.149271
H25   H     H_    0.131009 0.855143 0.389510 0.139758
H26   H     H_    0.946264 0.798618 0.962830 0.123804
H27   H     H_    0.928236 0.664000 0.956611 0.140896
H28   H     H_    0.539993 0.338261 0.573659 0.138388
O1    O     O_R   0.411310 0.359450 0.448800 -0.510757
O2    O     O_R   0.947570 0.089010 0.536620 -0.506569
O3    O     O_R   0.140880 0.089030 0.551840 -0.527962
O4    O     O_R   0.410660 0.462490 0.551220 -0.508812
O5    O     O_R   0.037150 0.089020 0.448130 -0.511450
O6    O     O_R   0.052430 0.910990 0.463380 -0.507947
O7    O     O_R   0.948700 0.910980 0.359670 -0.495957
O8    O     O_R   0.962850 0.910980 0.551870 -0.522099
O9    O     O_R   0.859120 0.910970 0.448160 -0.436562
O10   O     O_R   0.589930 0.448490 0.538390 -0.518460
O11   O     O_R   0.589280 0.551530 0.640800 -0.519595
O12   O     O_R   0.048900 0.462510 0.908320 -0.505095
O13   O     O_R   0.589340 0.537510 0.448780 -0.437902
O14   O     O_R   0.588690 0.640550 0.551200 -0.530805
O15   O     O_R   0.410720 0.448470 0.359200 -0.493948
O16   O     O_R   0.410070 0.551510 0.461610 -0.522544
O17   O     O_R   0.945860 0.359480 0.908360 -0.507980
O18   O     O_3   0.158613 0.234851 0.466618 -0.709028
O19   O     O_3   0.091546 0.450508 0.238904 -0.667492
O20   O     O_3   0.299929 0.457170 0.226987 -0.716733
O21   O     O_3   0.716604 0.757339 0.348840 -0.671547
O22   O     O_3   0.634798 0.591197 0.349602 -0.673251
O23   O     O_R   0.855710 0.448510 0.907250 -0.519707
O24   O     O_3   0.151479 0.773347 0.253259 -0.668608
O25   O     O_3   0.663268 0.187069 0.644574 -0.691498
O26   O     O_R   0.958760 0.551540 0.907200 -0.524136
O27   O     O_R   0.944780 0.537560 0.085320 -0.515895
O28   O     O_R   0.047820 0.640590 0.085270 -0.462708
O29   O     O_R   0.034920 0.448530 0.086440 -0.440614
O30   O     O_R   0.137970 0.551560 0.086390 -0.517530
O31   O     O_R   0.051300 0.089020 0.640330 -0.506286

loop_
_geom_bond_atom_site_label_1
_geom_bond_atom_site_label_2
_ccdc_geom_bond_type
C22   C29   S    
C27   C29   D    
C35   C36   D    
C34   C42   A    
H4    O18   S    
C3    C6    S    
C21   O30   A    
Cu3   O27   S    
C45   C46   A    
C2    C46   A    
C26   O9    A    
C31   H15   S    
C16   O13   A    
C37   C38   A    
Cu2   O14   S    
C28   O15   A    
C22   O2    A    
Cu6   O5    S    
C8    O19   S    
C12   C43   A    
C30   C31   D    
C8    C10   S    
C3    H2    S    
C1    O1    A    
H5    O19   S    
Cu4   O30   S    
C9    H6    S    
C12   C37   A    
C19   O26   A    
C32   H25   S    
C19   O23   A    
C45   O25   S    
C8    C9    D    
Cu2   O11   S    
C46   H3    S    
C18   O17   A    
C24   O5    A    
C20   O27   A    
C13   C14   D    
C27   C30   S    
Cu4   O28   S    
H7    O20   S    
Cu6   O9    S    
C27   H23   S    
Cu5   O6    S    
C37   H11   S    
C36   H18   S    
C4    O10   A    
Cu5   Cu6   S    
C32   C35   S    
C34   C44   A    
C35   O24   S    
C39   C40   A    
C16   C17   S    
C14   H9    S    
Cu2   O4    S    
C11   O20   S    
C1    O4    A    
C19   C23   S    
C39   H26   S    
C12   C41   A    
C30   H24   S    
H21   O25   S    
Cu1   Cu2   S    
C23   C34   A    
Cu1   O13   S    
C40   H27   S    
C14   C26   S    
Cu6   O2    S    
Cu4   O12   S    
C40   C41   A    
C22   O31   A    
C13   C15   S    
Cu1   O10   S    
C42   C43   A    
C6    H1    S    
C13   O21   S    
H8    O21   S    
Cu5   O3    S    
C44   C45   A    
Cu3   O29   S    
H17   O24   S    
C15   C17   D    
C38   H19   S    
Cu5   O31   S    
Cu2   O16   S    
C1    C7    S    
C16   O14   A    
C24   O3    A    
Cu6   O7    S    
C3    C5    D    
Cu5   O8    S    
Cu3   O23   S    
C21   O29   A    
C6    C7    D    
C4    C43   S    
C17   H13   S    
C23   C41   A    
C28   O16   A    
C18   O12   A    
C32   C33   D    
C4    O11   A    
C10   H22   S    
C9    C21   S    
C38   C39   A    
C5    C24   S    
C11   C28   S    
C2    C42   A    
C25   O6    A    
C44   H20   S    
Cu1   O1    S    
C15   O22   S    
C7    H12   S    
C2    H28   S    
C10   C11   D    
Cu3   O17   S    
C29   H14   S    
C20   C36   S    
C25   O7    A    
C5    O18   S    
C26   O8    A    
Cu3   Cu4   S    
Cu4   O26   S    
Cu1   O15   S    
C18   C31   S    
H10   O22   S    
C33   H16   S    
C25   C33   S    
C20   O28   A    
