data_mof_unit_39682.cif
_audit_creation_date              2012-12-10T19:42:14-0500
_audit_creation_method            fapswitch 2.2
_symmetry_space_group_name_H-M    P1
_symmetry_Int_Tables_number       1
_space_group_crystal_system       triclinic
_cell_length_a                    10.886901
_cell_length_b                    10.940974
_cell_length_c                    9.706092
_cell_angle_alpha                 90.295453
_cell_angle_beta                  90.954639
_cell_angle_gamma                 90.194744
_cell_volume                      1155.94179431

loop_
_atom_site_label
_atom_site_type_symbol
_atom_type_description
_atom_site_fract_x
_atom_site_fract_y
_atom_site_fract_z
_atom_type_partial_charge
C1    C     C_R   0.500858 0.265311 0.499522 0.875556
C2    C     C_R   0.202604 0.592148 0.975505 -0.067850
C3    C     C_R   0.931247 0.520544 0.380128 -0.240681
C4    C     C_R   0.871605 0.498660 0.504073 -0.073951
C5    C     C_R   0.941370 0.478982 0.626021 -0.005493
C6    C     C_R   0.068377 0.481810 0.620104 -0.246023
C7    C     C_R   0.128164 0.503506 0.496163 -0.074636
C8    C     C_R   0.058258 0.523554 0.374410 -0.001540
C9    C     C_R   0.873223 0.548783 0.857395 -0.081758
C10   C     C_R   0.822176 0.525045 0.985695 -0.104229
C11   C     C_R   0.785974 0.406269 0.019232 -0.138167
C12   C     C_R   0.262234 0.501884 0.498557 0.775222
C13   C     C_R   0.799440 0.311324 0.923801 -0.138872
C14   C     C_R   0.849702 0.334844 0.794913 -0.135034
C15   C     C_R   0.886749 0.453810 0.761216 0.122901
C16   C     C_2   0.497842 0.931730 0.387012 -0.234160
C17   C     C_2   0.490912 0.866396 0.502948 -0.418901
C18   C     C_2   0.490504 0.065358 0.385306 0.630371
C19   C     C_2   0.506838 0.133136 0.500184 -0.436057
C20   C     C_2   0.464219 0.408004 0.922749 0.073935
C21   C     C_2   0.447314 0.415734 0.076192 0.002845
C22   C     C_R   0.498152 0.734545 0.500389 0.877564
C23   C     C_R   0.737694 0.498764 0.501464 0.777911
C24   C     C_R   0.203347 0.685320 0.074643 -0.096584
C25   C     C_R   0.158044 0.662937 0.206139 -0.128152
C26   C     C_R   0.112064 0.546811 0.238630 0.129127
C27   C     C_R   0.111820 0.453629 0.138974 -0.124454
C28   C     C_R   0.157709 0.476117 0.008193 -0.175461
Cu1   Cu    Cu3+1 0.500020 0.500020 0.638630 1.025413
Cu2   Cu    Cu3+1 0.499980 0.499980 0.361370 0.975332
H1    H     H_    0.237674 0.609661 0.873839 0.174393
H2    H     H_    0.747171 0.387795 0.118935 0.153072
H3    H     H_    0.770878 0.219549 0.949705 0.141700
H4    H     H_    0.859835 0.260777 0.721560 0.118451
H5    H     H_    0.506687 0.886105 0.287989 0.205630
H6    H     H_    0.476350 0.908087 0.602664 0.165715
H7    H     H_    0.528174 0.092572 0.599113 0.111330
H8    H     H_    0.443735 0.321045 0.873489 0.082256
H9    H     H_    0.393077 0.345154 0.124617 0.175157
H10   H     H_    0.238742 0.774878 0.049489 0.146065
H11   H     H_    0.563276 0.554187 0.109383 0.263358
H12   H     H_    0.158020 0.735786 0.282122 0.120560
H13   H     H_    0.076048 0.363796 0.162693 0.134097
H14   H     H_    0.159106 0.402917 0.933065 0.125987
H15   H     H_    0.878836 0.536973 0.286362 0.156683
H16   H     H_    0.120813 0.464702 0.713256 0.152511
H17   H     H_    0.901811 0.640911 0.832716 0.119793
H18   H     H_    0.810907 0.598793 0.059013 0.124780
N1    N     N_2   0.498640 0.498660 0.846910 0.094038
N2    N     N_2   0.498610 0.498630 0.153040 -0.271947
O1    O     O_R   0.500020 0.321960 0.617040 -0.618476
O2    O     O_R   0.499980 0.321920 0.382900 -0.520013
O3    O     O_R   0.319660 0.500030 0.617070 -0.597786
O4    O     O_R   0.319620 0.499990 0.382930 -0.568241
O5    O     O_R   0.500020 0.678080 0.617100 -0.520752
O6    O     O_R   0.499980 0.678040 0.382960 -0.580790
O7    O     O_R   0.680380 0.500010 0.617070 -0.561462
O8    O     O_R   0.680340 0.499970 0.382930 -0.609134
F1    F     F_    0.468745 0.118672 0.260916 -0.674167
F2    F     F_    0.492845 0.610521 0.902517 -0.586984

loop_
_geom_bond_atom_site_label_1
_geom_bond_atom_site_label_2
_ccdc_geom_bond_type
C25   H12   S    
C14   H4    S    
C23   O8    A    
C22   O6    A    
C13   H3    S    
C22   O5    A    
C17   H6    S    
Cu1   Cu2   S    
C20   H8    S    
C9    C10   A    
C18   F1    S    
Cu1   O5    S    
C12   O3    A    
C21   H9    S    
C9    C15   A    
C7    C8    A    
Cu1   N1    S    
C13   C14   A    
C24   C25   A    
C10   H18   S    
Cu2   O4    S    
C26   C27   A    
C20   N1    D    
N1    F2    S    
Cu1   O3    S    
Cu2   O8    S    
C21   N2    D    
C24   H10   S    
Cu1   O7    S    
C11   H2    S    
C9    H17   S    
C6    C7    A    
C16   H5    S    
C2    C24   A    
C5    C6    A    
Cu2   N2    S    
C1    O2    A    
C7    C12   S    
C5    C15   S    
C19   H7    S    
C10   C11   A    
C3    C4    A    
C27   H13   S    
H11   N2    S    
C11   C13   A    
C8    C26   S    
C20   C21   S    
C3    C8    A    
C28   H14   S    
C16   C18   S    
C18   C19   D    
Cu1   O1    S    
C27   C28   A    
C23   O7    A    
C4    C23   S    
Cu2   O2    S    
C14   C15   A    
C2    H1    S    
C2    C28   A    
C1    O1    A    
C6    H16   S    
C25   C26   A    
C1    C19   S    
Cu2   O6    S    
C3    H15   S    
C12   O4    A    
C17   C22   S    
C16   C17   D    
C4    C5    A    
