data_mof_unit_26410.cif
_audit_creation_date              2012-10-26T18:39:07-0400
_audit_creation_method            fapswitch 2.2
_symmetry_space_group_name_H-M    P1
_symmetry_Int_Tables_number       1
_space_group_crystal_system       triclinic
_cell_length_a                    9.435121
_cell_length_b                    10.595712
_cell_length_c                    17.185859
_cell_angle_alpha                 89.934934
_cell_angle_beta                  84.97371
_cell_angle_gamma                 90.794885
_cell_volume                      1711.32542997

loop_
_atom_site_label
_atom_site_type_symbol
_atom_type_description
_atom_site_fract_x
_atom_site_fract_y
_atom_site_fract_z
_atom_type_partial_charge
C1    C     C_R   0.500877 0.740496 0.500208 0.540325
C2    C     C_3   0.634504 0.961951 0.504989 -0.118753
C3    C     C_3   0.956567 0.412924 0.455531 0.328345
C4    C     C_3   0.043382 0.587003 0.544381 0.359303
C5    C     C_3   0.042913 0.394360 0.525064 0.326878
C6    C     C_3   0.956698 0.605426 0.474780 0.344181
C7    C     C_3   0.063510 0.518780 0.429194 -0.090534
C8    C     C_3   0.936561 0.481167 0.570737 -0.097515
C9    C     C_R   0.480268 0.502218 0.649592 0.531941
C10   C     C_R   0.520150 0.500803 0.349790 0.531906
C11   C     C_R   0.467942 0.520750 0.733092 0.027037
C12   C     C_R   0.499151 0.259479 0.499973 0.547790
C13   C     C_R   0.536205 0.506972 0.264408 0.013274
C14   C     C_R   0.510481 0.426309 0.782187 -0.150968
C15   C     C_R   0.417171 0.495653 0.221499 -0.154286
C16   C     C_R   0.510294 0.449233 0.861757 -0.107755
C17   C     C_R   0.433114 0.506056 0.140545 -0.116257
C18   C     C_R   0.474015 0.569043 0.892126 0.067180
C19   C     C_R   0.567719 0.532503 0.101502 0.064301
C20   C     C_R   0.426557 0.661768 0.842678 -0.135939
C21   C     C_R   0.687132 0.539158 0.144378 -0.125302
C22   C     C_R   0.423045 0.637466 0.763332 -0.154583
C23   C     C_3   0.451811 0.956735 0.433845 -0.139669
C24   C     C_R   0.671617 0.526721 0.225152 -0.148007
C25   C     C_2   0.481954 0.597332 0.975672 0.232073
C26   C     C_2   0.586365 0.547169 0.015701 0.229965
C27   C     C_3   0.008048 0.254906 0.364000 -0.005298
C28   C     C_3   0.008416 0.298697 0.279081 -0.269402
C29   C     C_3   0.122539 0.231883 0.226583 -0.493888
C30   C     C_3   0.021726 0.705945 0.658871 -0.006550
C31   C     C_3   0.878920 0.770537 0.650336 -0.263725
C32   C     C_3   0.793843 0.786409 0.729263 -0.499957
C33   C     C_3   0.799887 0.589180 0.945762 -0.005958
C34   C     C_3   0.548520 0.043174 0.566519 -0.141744
C35   C     C_3   0.929014 0.527378 0.902227 -0.248972
C36   C     C_3   0.044571 0.624343 0.876211 -0.487808
C37   C     C_3   0.424977 0.785813 0.034809 -0.008750
C38   C     C_3   0.299188 0.871035 0.058241 -0.254057
C39   C     C_3   0.348679 0.999601 0.086230 -0.488427
C40   C     C_3   0.986683 0.201823 0.585529 -0.007534
C41   C     C_3   0.990667 0.207437 0.674416 -0.266155
C42   C     C_3   0.853302 0.155029 0.716496 -0.497208
C43   C     C_3   0.936099 0.754995 0.377047 0.008631
C44   C     C_3   0.080475 0.824096 0.366079 -0.272702
C45   C     C_3   0.583862 0.043569 0.438457 -0.124425
C46   C     C_3   0.125522 0.847490 0.279815 -0.502379
C47   C     C_3   0.416434 0.956326 0.561919 -0.112669
C48   C     C_3   0.497916 0.122491 0.499996 0.049994
C49   C     C_3   0.502343 0.877427 0.500360 0.049339
C50   C     C_3   0.365788 0.037941 0.495364 -0.100889
Cu1   Cu    Cu3+1 0.356850 0.500010 0.499980 1.010376
Cu2   Cu    Cu3+1 0.643150 0.499990 0.500020 0.991693
H1    H     H_    0.543683 0.335397 0.758908 0.094265
H2    H     H_    0.539611 0.373560 0.899271 0.149511
H3    H     H_    0.652331 0.082515 0.388003 0.124272
H4    H     H_    0.348133 0.917255 0.612403 0.118020
H5    H     H_    0.412659 0.917978 0.379571 0.101366
H6    H     H_    0.587804 0.081751 0.620801 0.096697
H7    H     H_    0.255791 0.071222 0.490924 0.146252
H8    H     H_    0.744702 0.928969 0.509087 0.150854
H9    H     H_    0.983913 0.151968 0.366726 0.140239
H10   H     H_    0.116285 0.267412 0.384711 0.147585
H11   H     H_    0.902513 0.278548 0.257799 0.177010
H12   H     H_    0.311962 0.478575 0.250345 0.118006
H13   H     H_    0.028288 0.402115 0.275234 0.142365
H14   H     H_    0.229321 0.249132 0.247331 0.151248
H15   H     H_    0.122937 0.268246 0.165941 0.145507
H16   H     H_    0.100339 0.128777 0.226323 0.143709
H17   H     H_    0.086358 0.768521 0.694177 0.141527
H18   H     H_    0.007298 0.615914 0.692247 0.113897
H19   H     H_    0.899188 0.864470 0.622469 0.163158
H20   H     H_    0.813133 0.713717 0.612653 0.212935
H21   H     H_    0.769852 0.692721 0.756785 0.160678
H22   H     H_    0.691702 0.833284 0.720874 0.145913
H23   H     H_    0.121882 0.533655 0.370995 0.082607
H24   H     H_    0.854248 0.845570 0.768580 0.135331
H25   H     H_    0.836214 0.649376 0.993426 0.118096
H26   H     H_    0.748554 0.650214 0.903895 0.123468
H27   H     H_    0.974143 0.457083 0.940945 0.181324
H28   H     H_    0.894861 0.477159 0.850080 0.159930
H29   H     H_    0.001286 0.699077 0.840188 0.128996
H30   H     H_    0.131966 0.576727 0.840681 0.165557
H31   H     H_    0.088406 0.668293 0.927818 0.176311
H32   H     H_    0.491911 0.831758 0.985691 0.110618
H33   H     H_    0.489286 0.775658 0.085634 0.138440
H34   H     H_    0.877661 0.463761 0.628555 0.092632
H35   H     H_    0.236128 0.884489 0.007235 0.157854
H36   H     H_    0.229350 0.825159 0.105822 0.170572
H37   H     H_    0.406925 0.988664 0.139228 0.145211
H38   H     H_    0.254847 0.059789 0.100923 0.144594
H39   H     H_    0.419170 0.047209 0.039653 0.148254
H40   H     H_    0.005207 0.102845 0.566385 0.135371
H41   H     H_    0.878763 0.225529 0.568274 0.158935
H42   H     H_    0.082237 0.151998 0.691505 0.160440
H43   H     H_    0.006044 0.306475 0.693436 0.165334
H44   H     H_    0.762315 0.215098 0.704190 0.144634
H45   H     H_    0.765684 0.534458 0.256808 0.122820
H46   H     H_    0.862247 0.154250 0.780482 0.146497
H47   H     H_    0.832715 0.057356 0.696919 0.145401
H48   H     H_    0.853249 0.819972 0.359273 0.144811
H49   H     H_    0.931960 0.671481 0.337874 0.109958
H50   H     H_    0.073011 0.915970 0.397255 0.156195
H51   H     H_    0.163591 0.767754 0.391442 0.190001
H52   H     H_    0.142099 0.756175 0.248855 0.146191
H53   H     H_    0.226851 0.902609 0.273710 0.144199
H54   H     H_    0.042827 0.901453 0.252436 0.138489
H55   H     H_    0.390096 0.710911 0.725114 0.106796
H56   H     H_    0.394922 0.753608 0.864970 0.123656
H57   H     H_    0.792567 0.555421 0.115834 0.123147
H58   H     H_    0.340041 0.492705 0.108732 0.150418
N1    N     N_3   0.141720 0.500030 0.499940 -0.252663
N2    N     N_3   0.858280 0.499970 0.500060 -0.260724
O1    O     O_R   0.379130 0.683150 0.499960 -0.473794
O2    O     O_3   0.099648 0.688886 0.585662 -0.538485
O3    O     O_3   0.705723 0.493147 0.976751 -0.601872
O4    O     O_3   0.372079 0.666826 0.012781 -0.610148
O5    O     O_3   0.097232 0.278445 0.549008 -0.560136
O6    O     O_3   0.902097 0.724342 0.456456 -0.560079
O7    O     O_R   0.620870 0.316850 0.500040 -0.477258
O8    O     O_R   0.620910 0.683140 0.500000 -0.478684
O9    O     O_R   0.379090 0.316860 0.500000 -0.464237
O10   O     O_R   0.365090 0.500030 0.613580 -0.469967
O11   O     O_R   0.634910 0.499970 0.386420 -0.476389
O12   O     O_R   0.606870 0.500020 0.613610 -0.529057
O13   O     O_R   0.393130 0.499980 0.386390 -0.529710
O14   O     O_3   0.899157 0.316670 0.410511 -0.551362

loop_
_geom_bond_atom_site_label_1
_geom_bond_atom_site_label_2
_ccdc_geom_bond_type
C23   C45   S    
C41   C42   S    
C35   C36   S    
C40   H41   S    
C4    C8    S    
C17   H58   S    
C3    O14   S    
C47   C49   S    
C37   O4    S    
Cu1   O1    S    
C42   H44   S    
C50   H7    S    
C37   H33   S    
C28   C29   S    
C27   H10   S    
C3    C7    S    
C27   O14   S    
C42   H46   S    
C32   H22   S    
C30   C31   S    
Cu2   O11   S    
C2    H8    S    
C33   H26   S    
C23   C49   S    
Cu2   N2    S    
C36   H31   S    
C22   H55   S    
C12   O7    A    
C46   H53   S    
C35   H28   S    
C9    O12   A    
C15   C17   A    
C35   H27   S    
C19   C26   S    
C26   O3    S    
C27   H9    S    
C33   C35   S    
C29   H15   S    
C12   O9    A    
C31   C32   S    
C36   H30   S    
C15   H12   S    
C37   H32   S    
C10   O13   A    
C3    N2    S    
C39   H38   S    
C18   C20   A    
C12   C48   S    
C2    C34   S    
C31   H19   S    
C40   O5    S    
C18   C25   S    
C1    O1    A    
C39   H39   S    
C30   H18   S    
C44   H51   S    
C44   C46   S    
C47   C50   S    
C2    C45   S    
C38   C39   S    
C33   O3    S    
Cu1   Cu2   S    
Cu1   O13   S    
C43   H48   S    
C4    C6    S    
C10   O11   A    
C25   O4    S    
C11   C14   A    
C44   H50   S    
C23   C50   S    
C7    H23   S    
C5    N1    S    
C25   C26   D    
C46   H52   S    
C24   H45   S    
C13   C24   A    
C5    O5    S    
C1    O8    A    
C43   C44   S    
C43   H49   S    
C37   C38   S    
C2    C49   S    
C29   H16   S    
C41   H42   S    
C36   H29   S    
C9    O10   A    
C40   H40   S    
C9    C11   S    
Cu2   O8    S    
C31   H20   S    
C4    N1    S    
C20   C22   A    
C13   C15   A    
Cu1   O9    S    
C14   C16   A    
C34   C48   S    
C32   H21   S    
C30   H17   S    
C30   O2    S    
C45   C48   S    
C4    O2    S    
C23   H5    S    
C40   C41   S    
Cu1   N1    S    
C19   C21   A    
C6    N2    S    
C3    C5    S    
C10   C13   S    
C32   H24   S    
C5    C8    S    
C21   H57   S    
C6    C7    S    
C11   C22   A    
C38   H35   S    
C8    N2    S    
C28   H13   S    
C42   H47   S    
Cu2   O12   S    
C33   H25   S    
C41   H43   S    
C46   H54   S    
C48   C50   S    
C17   C19   A    
C7    N1    S    
C8    H34   S    
C16   H2    S    
C43   O6    S    
C29   H14   S    
Cu2   O7    S    
C14   H1    S    
C45   H3    S    
C16   C18   A    
C21   C24   A    
C38   H36   S    
C27   C28   S    
C34   H6    S    
Cu1   O10   S    
C28   H11   S    
C34   C47   S    
C1    C49   S    
C39   H37   S    
C6    O6    S    
C47   H4    S    
C20   H56   S    
