data_mof_unit_46810.cif
_audit_creation_date              2012-12-10T16:52:38-0500
_audit_creation_method            fapswitch 2.2
_symmetry_space_group_name_H-M    P1
_symmetry_Int_Tables_number       1
_space_group_crystal_system       triclinic
_cell_length_a                    7.839914
_cell_length_b                    8.569088
_cell_length_c                    13.794355
_cell_angle_alpha                 93.315126
_cell_angle_beta                  93.178616
_cell_angle_gamma                 94.246134
_cell_volume                      920.965202717

loop_
_atom_site_label
_atom_site_type_symbol
_atom_type_description
_atom_site_fract_x
_atom_site_fract_y
_atom_site_fract_z
_atom_type_partial_charge
C1    C     C_R   0.045202 0.794684 0.497620 0.965840
C2    C     C_R   0.936891 0.489112 0.317993 0.867824
C3    C     C_R   0.100659 0.547418 0.785348 -0.069120
C4    C     C_R   0.907514 0.482035 0.212981 -0.058696
C5    C     C_R   0.079824 0.714779 0.930314 -0.191222
C6    C     C_R   0.966030 0.379206 0.052821 -0.189859
C7    C     C_R   0.013890 0.657863 0.838092 -0.190056
C8    C     C_R   0.014135 0.404342 0.151422 -0.194854
C9    C     C_R   0.247767 0.490659 0.825534 -0.278049
C10   C     C_R   0.762086 0.545573 0.175176 -0.275368
C11   C     C_R   0.326935 0.559261 0.912076 0.091643
C12   C     C_R   0.954817 0.205323 0.502452 0.964570
C13   C     C_R   0.711779 0.523478 0.076563 0.087211
C14   C     C_R   0.237511 0.668206 0.967019 0.174174
C15   C     C_R   0.812187 0.432837 0.015806 0.179684
C16   C     C_R   0.492847 0.522933 0.944492 0.062481
C17   C     C_R   0.557176 0.578515 0.038948 0.062529
C18   C     C_R   0.464969 0.686990 0.092534 -0.230408
C19   C     C_R   0.598393 0.436848 0.884434 -0.236705
C20   C     C_R   0.308350 0.731656 0.056534 -0.225575
C21   C     C_R   0.755950 0.393829 0.919634 -0.222243
C22   C     C_2   0.068659 0.958455 0.496246 -0.385368
C23   C     C_2   0.931385 0.041558 0.503924 -0.387928
C24   C     C_R   0.063775 0.513891 0.681889 0.866328
H1    H     H_    0.242516 0.816306 0.098997 0.146584
H2    H     H_    0.565253 0.404848 0.808657 0.157131
H3    H     H_    0.197925 0.010037 0.488899 0.179015
H4    H     H_    0.802121 0.989975 0.511282 0.179184
H5    H     H_    0.487102 0.374436 0.427661 0.188744
H6    H     H_    0.512902 0.625520 0.572373 0.189500
H7    H     H_    0.832518 0.326918 0.871802 0.149926
H8    H     H_    0.683432 0.602918 0.225675 0.159051
H9    H     H_    0.301848 0.396731 0.785095 0.149577
H10   H     H_    0.129132 0.356362 0.180149 0.157859
H11   H     H_    0.899266 0.703448 0.806964 0.159630
H12   H     H_    0.011457 0.799451 0.971119 0.138400
H13   H     H_    0.045591 0.313290 0.006282 0.140729
H14   H     H_    0.513839 0.744651 0.161048 0.148066
N1    N     N_2   0.440860 0.456490 0.474790 -0.173910
N2    N     N_2   0.559140 0.543510 0.525210 -0.174647
O1    O     O_R   0.891570 0.738930 0.506190 -0.611938
O2    O     O_R   0.108430 0.261070 0.493810 -0.611458
O3    O     O_R   0.174650 0.711050 0.490030 -0.624255
O4    O     O_R   0.825350 0.288950 0.509970 -0.625059
O5    O     O_R   0.909850 0.521900 0.644940 -0.618966
O6    O     O_R   0.090150 0.478100 0.355060 -0.615921
O7    O     O_R   0.192930 0.494020 0.628780 -0.616984
O8    O     O_R   0.807070 0.505980 0.371220 -0.622126
Zn1   Zn    Zn3+2 0.810990 0.518620 0.510790 0.930682
Zn2   Zn    Zn3+2 0.189010 0.481380 0.489210 0.934354

loop_
_geom_bond_atom_site_label_1
_geom_bond_atom_site_label_2
_ccdc_geom_bond_type
O4    Zn1   S    
C2    C4    S    
O3    Zn2   S    
C3    C9    A    
O5    Zn1   S    
C9    C11   A    
C11   C16   A    
O6    Zn2   S    
C18   C20   A    
C13   C17   A    
C4    C8    A    
H5    N1    S    
C17   C18   A    
C5    C14   A    
C6    H13   S    
H6    N2    S    
C1    C22   S    
C12   O4    A    
C8    H10   S    
C23   H4    S    
C2    O6    A    
C9    H9    S    
C21   H7    S    
C12   C23   S    
C3    C24   S    
O2    Zn2   S    
C16   C19   A    
C6    C8    A    
C24   O5    A    
O1    Zn1   S    
O8    Zn1   S    
C19   C21   A    
O7    Zn2   S    
C3    C7    A    
C22   H3    S    
C13   C15   A    
C18   H14   S    
C11   C14   A    
C20   H1    S    
C4    C10   A    
N2    Zn1   S    
C5    H12   S    
C10   H8    S    
C15   C21   A    
N1    Zn2   S    
C14   C20   A    
C1    O1    A    
N1    N2    D    
C5    C7    A    
C19   H2    S    
C22   C23   D    
C12   O2    A    
C2    O8    A    
C6    C15   A    
C24   O7    A    
C7    H11   S    
C1    O3    A    
C16   C17   A    
C10   C13   A    
