data_mof_unit_32156.cif
_audit_creation_date              2013-03-05T15:40:28-0500
_audit_creation_method            fapswitch 2.2
_symmetry_space_group_name_H-M    P1
_symmetry_Int_Tables_number       1
_space_group_crystal_system       triclinic
_cell_length_a                    7.434591
_cell_length_b                    8.687683
_cell_length_c                    13.562486
_cell_angle_alpha                 94.27228
_cell_angle_beta                  78.16947
_cell_angle_gamma                 103.039485
_cell_volume                      834.910611152

loop_
_atom_site_label
_atom_site_type_symbol
_atom_site_description
_atom_site_fract_x
_atom_site_fract_y
_atom_site_fract_z
_atom_type_partial_charge
O1    O     O_R   0.383920 0.714220 0.492660 -0.579205
O2    O     O_R   0.685730 0.742660 0.511730 -0.591982
C1    C     C_R   0.545274 0.800193 0.503065 0.875482
O3    O     O_R   0.275440 0.478800 0.636790 -0.599090
O4    O     O_R   0.577250 0.507240 0.655860 -0.589397
C2    C     C_R   0.401171 0.497367 0.693658 0.769796
Cu1   Cu    Cu3+1 0.321300 0.483160 0.488710 1.008779
Cu2   Cu    Cu3+1 0.678700 0.516840 0.511290 0.968332
O5    O     O_R   0.314270 0.257340 0.488270 -0.583680
O6    O     O_R   0.616080 0.285780 0.507340 -0.586862
O7    O     O_R   0.422750 0.492760 0.344140 -0.503360
O8    O     O_R   0.724560 0.521200 0.363210 -0.581838
C3    C     C_R   0.454700 0.199810 0.496978 0.886024
C4    C     C_R   0.599086 0.510726 0.306184 0.835760
C5    C     C_R   0.891292 0.602775 0.048062 -0.167968
H1    H     H_    0.949224 0.583168 0.193992 0.251079
H2    H     H_    0.937324 0.707279 0.862815 0.141516
H3    H     H_    0.037609 0.651090 0.016110 0.177408
C6    C     C_R   0.651590 0.522241 0.195619 -0.178421
C7    C     C_R   0.163577 0.391970 0.840415 -0.205637
C8    C     C_R   0.122738 0.329050 0.935364 -0.160756
C9    C     C_R   0.257674 0.360917 0.995600 -0.129810
C10   C     C_R   0.430256 0.469631 0.966562 0.082286
C11   C     C_R   0.476273 0.528647 0.868110 0.089929
C12   C     C_R   0.563725 0.512333 0.030736 -0.035030
C13   C     C_R   0.752627 0.582038 0.989379 0.109208
C14   C     C_R   0.796651 0.641593 0.892792 -0.211229
C15   C     C_R   0.656303 0.627050 0.836695 -0.191011
C16   C     C_R   0.510429 0.502963 0.136120 0.287116
C17   C     C_R   0.841276 0.565251 0.149456 -0.191641
C18   C     C_R   0.343403 0.482523 0.803262 -0.109198
H4    H     H_    0.060125 0.356894 0.792622 0.168836
H5    H     H_    0.229084 0.292980 0.062335 0.187543
H6    H     H_    0.989216 0.248670 0.960406 0.159024
H7    H     H_    0.693004 0.692371 0.768142 0.161373
C19   C     C_2   0.570846 0.968042 0.504577 -0.360139
H8    H     H_    0.707481 0.039372 0.513166 0.178994
C20   C     C_2   0.429107 0.031952 0.495495 -0.351495
H9    H     H_    0.292473 0.960618 0.486905 0.184654
N1    N     N_2   0.947230 0.542220 0.528320 -0.221564
H10   H     H_    0.011978 0.618617 0.578547 0.216597
N2    N     N_2   0.052770 0.457780 0.471680 -0.187312
H11   H     H_    0.987609 0.380915 0.421831 0.256937
N3    N     N_R   0.324580 0.523952 0.181385 0.113668
O9    O     O_R   0.195529 0.407490 0.223773 -0.408965
O10   O     O_R   0.292676 0.665998 0.190445 -0.384752

loop_
_geom_bond_atom_site_label_1
_geom_bond_atom_site_label_2
_geom_bond_distance
_ccdc_geom_bond_type
C5    H3    1.084011 S    
C10   C11   1.413622 A    
O4    Cu2   1.951892 S    
Cu2   O8    1.968711 S    
C19   C20   1.327147 D    
O2    C1    1.283995 A    
C3    C20   1.426609 S    
C11   C18   1.426550 A    
Cu1   Cu2   2.684990 S    
C8    C9    1.388329 A    
C7    C8    1.385267 A    
Cu1   O7    1.951892 S    
C13   C14   1.392692 A    
O4    C2    1.290174 A    
C1    C19   1.426541 S    
O3    Cu1   1.968711 S    
N1    N2    1.293272 D    
N1    H10   1.029175 S    
O8    C4    1.312895 A    
C2    C18   1.467151 S    
C10   C12   1.421169 A    
C16   N3    1.438208 S    
C12   C16   1.406055 A    
C20   H9    1.087760 S    
O7    C4    1.284893 A    
N2    H11   1.028951 S    
H1    C17   1.077749 S    
H2    C14   1.084277 S    
N3    O9    1.302767 A    
C5    C17   1.392124 A    
O3    C2    1.305263 A    
C7    H4    1.083408 S    
Cu1   N2    2.017539 S    
C14   C15   1.391135 A    
Cu1   O5    1.950320 S    
C9    H5    1.075565 S    
O5    C3    1.283975 A    
C9    C10   1.412372 A    
C19   H8    1.087748 S    
C5    C13   1.399975 A    
C8    H6    1.082913 S    
Cu2   N1    2.017541 S    
C12   C13   1.413343 A    
O1    Cu1   1.954907 S    
C6    C17   1.398360 A    
C4    C6    1.475036 S    
O6    C3    1.290824 A    
Cu2   O6    1.954907 S    
O2    Cu2   1.950320 S    
C11   C15   1.417013 A    
C15   H7    1.079651 S    
N3    O10   1.300686 A    
O1    C1    1.290827 A    
C7    C18   1.403007 A    
C6    C16   1.424226 A    
