data_mof_unit_55221.cif
_audit_creation_date              2012-12-11T14:49:54-0500
_audit_creation_method            fapswitch 2.2
_symmetry_space_group_name_H-M    P1
_symmetry_Int_Tables_number       1
_space_group_crystal_system       triclinic
_cell_length_a                    16.925181
_cell_length_b                    16.756719
_cell_length_c                    19.796931
_cell_angle_alpha                 116.698782
_cell_angle_beta                  62.699727
_cell_angle_gamma                 100.677469
_cell_volume                      4455.75709195

loop_
_atom_site_label
_atom_site_type_symbol
_atom_type_description
_atom_site_fract_x
_atom_site_fract_y
_atom_site_fract_z
_atom_type_partial_charge
C1    C     C_R   0.039968 0.758829 0.010506 -0.151080
C2    C     C_R   0.251411 0.530496 0.828908 -0.149725
C3    C     C_R   0.183909 0.486610 0.085072 -0.234902
C4    C     C_R   0.767799 0.412635 0.159032 0.483553
C5    C     C_R   0.013194 0.330897 0.753842 -0.156623
C6    C     C_R   0.259721 0.533816 0.060821 -0.085726
C7    C     C_R   0.985666 0.247816 0.751295 0.170262
C8    C     C_R   0.257459 0.477701 0.749689 0.279711
C9    C     C_R   0.029653 0.224090 0.004450 0.036161
C10   C     C_R   0.072073 0.132749 0.614206 0.428080
C11   C     C_R   0.989560 0.173250 0.678305 -0.096904
C12   C     C_R   0.774862 0.424160 0.229701 -0.203552
C13   C     C_R   0.910995 0.153892 0.668847 -0.314810
C14   C     C_R   0.912221 0.093023 0.593439 0.148155
C15   C     C_R   0.993748 0.051312 0.527054 0.029565
C16   C     C_R   0.804408 0.562548 0.964119 -0.065494
C17   C     C_R   0.074583 0.072932 0.536051 -0.067432
C18   C     C_R   0.833181 0.073821 0.583466 -0.182571
C19   C     C_R   0.833694 0.009565 0.508469 -0.177650
C20   C     C_R   0.912966 0.963591 0.444095 0.133389
C21   C     C_R   0.993734 0.985578 0.452515 0.000718
C22   C     C_R   0.073694 0.938760 0.387851 -0.044726
C23   C     C_R   0.725378 0.554994 0.028774 0.123693
C24   C     C_R   0.154420 0.966994 0.393262 -0.194793
C25   C     C_R   0.155012 0.034282 0.466377 -0.091372
C26   C     C_R   0.912132 0.892620 0.373108 -0.351824
C27   C     C_R   0.988513 0.839476 0.315879 -0.040318
C28   C     C_R   0.965541 0.674375 0.247515 0.586092
C29   C     C_R   0.070274 0.862153 0.320822 0.553349
C30   C     C_R   0.398449 0.395756 0.636455 0.433771
C31   C     C_R   0.336752 0.466555 0.675323 -0.326531
C32   C     C_R   0.347805 0.529158 0.643049 0.516334
C33   C     C_R   0.417335 0.517276 0.565998 -0.028559
C34   C     C_R   0.983924 0.760022 0.248977 -0.064153
C35   C     C_R   0.479019 0.445578 0.524075 -0.084257
C36   C     C_R   0.470144 0.384335 0.558515 -0.066806
C37   C     C_R   0.425930 0.575987 0.530130 -0.135944
C38   C     C_R   0.498134 0.567650 0.455756 -0.235910
C39   C     C_R   0.561065 0.499124 0.415311 0.162298
C40   C     C_R   0.742122 0.490101 0.045703 -0.134646
C41   C     C_R   0.550705 0.436165 0.447739 0.115259
C42   C     C_R   0.613140 0.364982 0.404300 0.105846
C43   C     C_R   0.603378 0.303465 0.436815 -0.238088
C44   C     C_R   0.533104 0.313156 0.513199 -0.030141
C45   C     C_R   0.251677 0.566007 0.010803 0.606617
C46   C     C_R   0.635333 0.493468 0.343371 -0.334145
C47   C     C_R   0.697497 0.424159 0.302068 0.101327
C48   C     C_R   0.685572 0.358019 0.329864 -0.247613
C49   C     C_R   0.635980 0.594770 0.066354 -0.078377
C50   C     C_R   0.328020 0.552612 0.091300 0.129891
C51   C     C_R   0.414853 0.497633 0.130528 -0.197818
C52   C     C_R   0.033653 0.751672 0.168792 -0.149770
C53   C     C_R   0.339761 0.493442 0.118567 -0.168877
C54   C     C_R   0.386414 0.623602 0.086990 -0.190568
C55   C     C_R   0.465065 0.624416 0.093374 0.067517
C56   C     C_R   0.945443 0.251538 0.830553 -0.065554
C57   C     C_R   0.480292 0.558485 0.111732 0.208402
C58   C     C_R   0.564113 0.546266 0.100759 -0.324224
C59   C     C_R   0.617996 0.671164 0.061748 0.575346
C60   C     C_R   0.531930 0.684617 0.074587 -0.310142
C61   C     C_R   0.847206 0.181591 0.137414 0.045776
C62   C     C_R   0.962010 0.862101 0.993572 0.105610
C63   C     C_R   0.878054 0.948724 0.975607 -0.187890
C64   C     C_R   0.846827 0.479132 0.234320 0.553010
C65   C     C_R   0.917109 0.867924 0.951106 -0.069475
C66   C     C_R   0.970817 0.940187 0.058576 -0.206086
C67   C     C_R   0.173064 0.463045 0.752716 -0.040409
C68   C     C_R   0.932030 0.021584 0.083376 0.146832
C69   C     C_R   0.883650 0.025443 0.042691 0.154556
C70   C     C_R   0.840324 0.105489 0.070998 -0.359104
C71   C     C_R   0.898040 0.180258 0.176144 0.614647
C72   C     C_R   0.938786 0.098593 0.149932 -0.418828
C73   C     C_R   0.962824 0.690558 0.934741 -0.033732
C74   C     C_R   0.990027 0.773941 0.977528 0.080578
C75   C     C_3   0.638830 0.337286 0.160656 -0.231716
C76   C     C_3   0.160313 0.749874 0.283503 -0.274064
C77   C     C_3   0.317312 0.675570 0.735006 -0.237654
C78   C     C_R   0.052164 0.308155 0.051408 -0.053436
C79   C     C_3   0.874331 0.708670 0.387805 -0.258250
C80   C     C_3   0.982738 0.268821 0.247293 -0.231163
C81   C     C_3   0.848627 0.485519 0.353604 -0.084935
C82   C     C_3   0.261267 0.705578 0.014561 -0.336747
C83   C     C_R   0.973456 0.239691 0.977316 -0.038033
H1    H     H_    0.080787 0.806805 0.037733 0.082684
H2    H     H_    0.770900 0.107271 0.634112 0.141707
H3    H     H_    0.771781 0.993362 0.501985 0.140532
H4    H     H_    0.850949 0.874340 0.365233 0.162688
H5    H     H_    0.217154 0.935541 0.341968 0.180084
H6    H     H_    0.219029 0.053942 0.467319 0.204778
H7    H     H_    0.377646 0.629410 0.559835 0.172884
H8    H     H_    0.505058 0.615080 0.430150 0.141339
H9    H     H_    0.645617 0.543215 0.319286 0.126440
H10   H     H_    0.813734 0.601491 0.930557 0.159729
H11   H     H_    0.734079 0.303895 0.295585 0.177888
H12   H     H_    0.907586 0.200290 0.850160 0.094833
H13   H     H_    0.650964 0.248483 0.403744 0.150921
H14   H     H_    0.529534 0.263820 0.535347 0.199505
H15   H     H_    0.573309 0.490167 0.109459 0.138545
H16   H     H_    0.425631 0.447631 0.146273 0.122822
H17   H     H_    0.518493 0.738994 0.065536 0.193732
H18   H     H_    0.294777 0.439480 0.124636 0.124827
H19   H     H_    0.374873 0.674449 0.073059 0.185870
H20   H     H_    0.801331 0.109543 0.041894 0.172139
H21   H     H_    0.841903 0.950730 0.943200 0.141461
H22   H     H_    0.974670 0.094223 0.181520 0.150641
H23   H     H_    0.156343 0.431375 0.700180 0.107043
H24   H     H_    0.909893 0.809668 0.900201 0.142708
H25   H     H_    0.004477 0.937402 0.092633 0.118318
H26   H     H_    0.698754 0.468493 0.093847 0.125268
H27   H     H_    0.067820 0.804439 0.150119 0.130865
H28   H     H_    0.931853 0.675945 0.893650 0.097964
H29   H     H_    0.166143 0.268584 0.745722 0.391522
H30   H     H_    0.606176 0.404820 0.195799 0.115245
H31   H     H_    0.623671 0.304789 0.203125 0.173700
H32   H     H_    0.609341 0.295935 0.116216 0.163587
H33   H     H_    0.168279 0.784404 0.342798 0.151345
H34   H     H_    0.092928 0.321389 0.084045 0.095864
H35   H     H_    0.222576 0.710896 0.234454 0.180072
H36   H     H_    0.105593 0.701776 0.290066 0.175787
H37   H     H_    0.326753 0.382376 0.820470 0.356844
H38   H     H_    0.377370 0.701320 0.695882 0.137688
H39   H     H_    0.332261 0.663000 0.778563 0.133495
H40   H     H_    0.264652 0.728757 0.773512 0.176442
H41   H     H_    0.692137 0.897090 0.087716 0.375837
H42   H     H_    0.824167 0.732000 0.378472 0.125488
H43   H     H_    0.907600 0.764737 0.421442 0.161232
H44   H     H_    0.837483 0.674456 0.429609 0.160695
H45   H     H_    0.940023 0.188939 0.942935 0.102527
H46   H     H_    0.040667 0.248233 0.184785 0.123898
H47   H     H_    0.983079 0.231431 0.281397 0.145025
H48   H     H_    0.990326 0.340464 0.283972 0.180420
H49   H     H_    0.830432 0.418899 0.354303 0.168067
H50   H     H_    0.788626 0.529907 0.388276 0.097529
H51   H     H_    0.890883 0.515636 0.387872 0.149380
H52   H     H_    0.225200 0.732668 0.083930 0.191603
H53   H     H_    0.215512 0.696946 0.985993 0.156038
H54   H     H_    0.310012 0.756098 0.999396 0.187100
H55   H     H_    0.305892 0.557922 0.845683 0.165478
H56   H     H_    0.160989 0.464065 0.134198 0.139159
H57   H     H_    0.035956 0.352133 0.703957 0.113589
H58   H     H_    0.849275 0.188683 0.719952 0.155490
N1    N     N_R   0.036080 0.671900 0.995420 -0.045077
N2    N     N_R   0.867430 0.509300 0.948100 -0.065646
N3    N     N_R   0.003360 0.617250 0.167070 -0.091007
N4    N     N_R   0.825450 0.461270 0.995400 -0.042127
N5    N     N_R   0.045340 0.665280 0.119770 -0.089488
N6    N     N_R   0.883740 0.497640 0.167070 -0.133948
N7    N     N_R   0.987050 0.628910 0.948110 -0.050676
N8    N     N_R   0.174550 0.538730 0.004600 -0.099999
N9    N     N_R   0.954660 0.334720 0.880230 -0.047603
N10   N     N_R   0.116260 0.502360 0.832930 -0.060762
N11   N     N_R   0.012950 0.371090 0.051890 -0.044679
N12   N     N_R   0.963920 0.328100 0.004580 -0.050003
N13   N     N_R   0.165290 0.545350 0.880240 -0.056821
N14   N     N_R   0.132570 0.490700 0.051900 -0.061168
N15   N     N_R   0.996640 0.382750 0.832930 -0.054485
N16   N     N_R   0.834710 0.454650 0.119760 -0.132636
Ni1   Ni    Ni4+2 0.104370 0.604370 0.000010 0.204731
Ni2   Ni    Ni4+2 0.895630 0.395630 0.999990 0.260201
Ni3   Ni    Ni4+2 0.991920 0.505780 0.891500 0.221135
Ni4   Ni    Ni4+2 0.008080 0.494220 0.108500 0.271590
O1    O     O_2   0.220508 0.070144 0.595224 -0.238617
O2    O     O_2   0.765109 0.756317 0.075123 -0.319733
O3    O     O_2   0.741416 0.734289 0.954160 -0.351145
O4    O     O_3   0.644465 0.854334 0.099435 -0.525810
O5    O     O_3   0.937988 0.648389 0.312227 -0.605619
O6    O     O_3   0.900831 0.259073 0.242020 -0.634583
O7    O     O_3   0.899192 0.476905 0.270780 -0.575978
O8    O     O_3   0.308083 0.625376 0.980874 -0.647797
O9    O     O_2   0.228009 0.214600 0.590146 -0.307258
O10   O     O_3   0.147432 0.206090 0.734722 -0.483362
O11   O     O_3   0.731487 0.338769 0.114457 -0.611818
O12   O     O_3   0.146557 0.810880 0.258511 -0.641231
O13   O     O_2   0.378366 0.229154 0.628518 -0.176831
O14   O     O_2   0.472389 0.327485 0.694160 -0.322846
O15   O     O_3   0.301591 0.348942 0.779222 -0.528552
O16   O     O_3   0.285974 0.598776 0.685212 -0.613900
S1    S     S_3+6 0.170060 0.155803 0.632382 -0.007855
S2    S     S_3+6 0.388291 0.323479 0.684715 -0.012146
S3    S     S_3+6 0.696858 0.753900 0.045585 -0.078001

loop_
_geom_bond_atom_site_label_1
_geom_bond_atom_site_label_2
_ccdc_geom_bond_type
C61   C70   A    
C56   H12   S    
C66   C68   A    
C63   C65   A    
C6    C45   A    
N3    Ni4   S    
C27   C29   A    
C41   C42   A    
C14   C18   A    
C35   C36   A    
C58   H15   S    
C83   H45   S    
C19   H3    S    
C78   N11   A    
N2    Ni3   S    
C39   C41   A    
N14   Ni4   S    
C1    H1    S    
C7    C11   S    
C26   C27   A    
C50   C54   A    
C48   H11   S    
C40   N4    A    
O9    S1    D    
C1    C74   A    
C59   S3    S    
C22   C29   A    
N13   Ni1   S    
C82   H54   S    
C38   C39   A    
N4    Ni2   S    
C23   C49   S    
H29   O10   S    
C46   H9    S    
C10   C17   A    
C23   C40   A    
C15   C17   A    
C18   C19   A    
N7    Ni3   S    
N10   N13   A    
C82   H52   S    
C1    N1    A    
C76   H33   S    
C50   C53   A    
C54   C55   A    
H37   O15   S    
O15   S2    S    
C63   C69   A    
C53   H18   S    
C68   C69   A    
C30   S2    S    
O10   S1    S    
C28   N3    A    
C13   H58   S    
C4    C12   A    
N8    Ni1   S    
C80   O6    S    
N11   Ni4   S    
O3    S3    D    
C28   O5    S    
C83   N12   A    
C55   C60   A    
C61   C71   A    
C79   H42   S    
C82   O8    S    
C28   C34   A    
C59   C60   A    
N16   Ni2   S    
C80   H48   S    
N9    N15   A    
C21   C22   A    
C7    C56   A    
N1    Ni1   S    
C12   C47   S    
C73   H28   S    
C27   C34   S    
C51   H16   S    
C76   H36   S    
C80   H47   S    
N9    Ni2   S    
C62   C66   A    
C73   N7    A    
C67   N10   A    
C2    H55   S    
N1    N7    A    
C81   H51   S    
C16   N2    A    
C24   C25   A    
N3    N5    A    
N6    Ni4   S    
C66   H25   S    
C5    C7    A    
C70   H20   S    
C26   H4    S    
C81   H49   S    
O14   S2    D    
C38   H8    S    
C4    N16   A    
C33   C37   A    
C49   C58   A    
C51   C53   A    
C10   S1    S    
C52   H27   S    
N12   Ni2   S    
C43   C44   A    
C37   C38   A    
C77   H40   S    
C44   H14   S    
C47   C48   A    
N15   Ni3   S    
C68   C72   A    
C78   H34   S    
C3    N14   A    
C43   H13   S    
C16   H10   S    
C75   H31   S    
C42   C48   A    
C6    C50   S    
C24   H5    S    
C9    C83   A    
C39   C46   A    
C51   C57   A    
C37   H7    S    
C72   H22   S    
C79   H43   S    
C76   H35   S    
C16   C23   A    
C55   C57   A    
C64   N6    A    
C22   C24   A    
C32   O16   S    
C36   C44   A    
C3    H56   S    
C42   C43   A    
C56   N9    A    
N6    N16   A    
C73   C74   A    
C75   O11   S    
C5    H57   S    
N2    N4    A    
C79   H44   S    
C46   C47   A    
C76   O12   S    
C52   N5    A    
C80   H46   S    
C4    O11   S    
C62   C65   A    
C18   H2    S    
C77   H39   S    
C8    C31   S    
C34   C52   A    
C54   H19   S    
C31   C32   A    
C2    C8    A    
C29   O12   S    
C63   H21   S    
C60   H17   S    
C45   O8    S    
C67   H23   S    
C81   H50   S    
C40   H26   S    
N5    Ni1   S    
C5    N15   A    
C25   H6    S    
C49   C59   A    
C30   C36   A    
C17   C25   A    
C32   C33   A    
C19   C20   A    
N8    N14   A    
C71   C72   A    
C64   O7    S    
N10   Ni3   S    
C11   C13   A    
C57   C58   A    
C30   C31   A    
C20   C26   A    
C12   C64   A    
C33   C35   A    
C81   O7    S    
C45   N8    A    
C9    C78   A    
C79   O5    S    
C82   H53   S    
C69   C70   A    
C35   C41   A    
C77   O16   S    
O1    S1    D    
C77   H38   S    
C10   C11   A    
H41   O4    S    
C15   C21   A    
C75   H32   S    
C20   C21   A    
C8    C67   A    
C2    N13   A    
C3    C6    A    
O2    S3    D    
O4    S3    S    
C14   C15   A    
C62   C74   S    
C71   O6    S    
N11   N12   A    
C13   C14   A    
O13   S2    D    
C65   H24   S    
C75   H30   S    
