data_mof_unit_59296.cif
_audit_creation_date              2012-12-10T20:40:02-0500
_audit_creation_method            fapswitch 2.2
_symmetry_space_group_name_H-M    P1
_symmetry_Int_Tables_number       1
_space_group_crystal_system       triclinic
_cell_length_a                    23.403385
_cell_length_b                    10.694103
_cell_length_c                    9.859704
_cell_angle_alpha                 89.532529
_cell_angle_beta                  89.732811
_cell_angle_gamma                 91.36107
_cell_volume                      2466.86160925

loop_
_atom_site_label
_atom_site_type_symbol
_atom_type_description
_atom_site_fract_x
_atom_site_fract_y
_atom_site_fract_z
_atom_type_partial_charge
C1    C     C_R   0.501996 0.260255 0.500591 0.885092
C2    C     C_R   0.122134 0.577564 0.503135 0.524467
C3    C     C_R   0.238963 0.509311 0.631281 0.146175
C4    C     C_R   0.389303 0.497588 0.500768 0.877688
C5    C     C_R   0.298008 0.522577 0.622893 -0.195276
C6    C     C_R   0.327101 0.487386 0.505071 -0.077153
C7    C     C_R   0.296648 0.435914 0.396217 -0.223021
C8    C     C_R   0.237426 0.425170 0.402499 -0.121674
C9    C     C_R   0.208467 0.463063 0.518888 0.274479
C10   C     C_R   0.758302 0.429169 0.609566 -0.124506
C11   C     C_R   0.699376 0.434228 0.605134 -0.312782
C12   C     C_R   0.964882 0.249308 0.551048 0.472514
C13   C     C_R   0.672700 0.499609 0.500187 -0.135865
C14   C     C_R   0.705267 0.563872 0.399728 0.494958
C15   C     C_R   0.764890 0.549473 0.400214 -0.251931
C16   C     C_R   0.502593 0.740338 0.498909 0.880095
C17   C     C_R   0.791090 0.485798 0.506683 0.260894
C18   C     C_R   0.509433 0.062931 0.622899 0.127711
C19   C     C_R   0.512190 0.130131 0.501876 -0.147710
C20   C     C_R   0.527067 0.070416 0.381574 -0.211778
C21   C     C_R   0.526766 0.941213 0.377228 0.068849
C22   C     C_R   0.512231 0.872740 0.497286 -0.164423
C23   C     C_R   0.024429 0.247019 0.550255 -0.270244
C24   C     C_R   0.509482 0.935489 0.620538 0.135611
C25   C     C_3   0.466780 0.924000 0.733697 -0.445540
C26   C     C_3   0.466738 0.065794 0.735905 -0.490390
C27   C     C_R   0.466581 0.415977 0.071927 0.181757
C28   C     C_R   0.610596 0.501733 0.499713 0.895297
C29   C     C_R   0.536171 0.576473 0.071272 -0.263967
C30   C     C_R   0.536701 0.576720 0.926071 0.492169
C31   C     C_R   0.467748 0.413566 0.929284 0.079101
C32   C     C_3   0.404702 0.396112 0.918986 -0.519386
C33   C     C_3   0.402536 0.406192 0.072552 -0.125319
C34   C     C_R   0.057099 0.357760 0.535727 -0.028740
C35   C     C_R   0.882423 0.592982 0.519718 0.546415
C36   C     C_R   0.877876 0.369769 0.513903 0.509846
C37   C     C_R   0.937210 0.364078 0.529882 -0.093447
C38   C     C_R   0.969775 0.477110 0.524099 -0.139342
C39   C     C_R   0.942374 0.593292 0.516778 -0.179542
C40   C     C_3   0.916392 0.130602 0.707959 0.096387
C41   C     C_3   0.878685 0.013125 0.728162 -0.232741
C42   C     C_3   0.851385 0.009201 0.868964 -1.017287
C43   C     C_3   0.708065 0.746086 0.261253 0.065736
C44   C     C_3   0.723111 0.837266 0.377032 -0.377355
C45   C     C_R   0.029823 0.473624 0.525009 -0.082463
C46   C     C_3   0.670038 0.893444 0.440018 -0.826020
C47   C     C_3   0.627541 0.655948 0.884927 0.080291
C48   C     C_3   0.662289 0.736845 0.784461 -0.309748
C49   C     C_3   0.726201 0.732453 0.813418 -0.948423
C50   C     C_3   0.083947 0.839205 0.653913 0.178542
C51   C     C_3   0.036669 0.901078 0.735483 -0.392977
C52   C     C_3   0.059971 0.960723 0.864402 -0.965989
C53   C     C_3   0.937793 0.856260 0.370984 0.184120
C54   C     C_3   0.985488 0.941850 0.313167 -0.290448
C55   C     C_3   0.966408 0.008981 0.184871 -1.003707
C56   C     C_R   0.062612 0.585665 0.514586 -0.198705
C57   C     C_R   0.035158 0.701911 0.516274 0.407083
C58   C     C_R   0.975503 0.705661 0.509384 0.386871
C59   C     C_R   0.116816 0.355943 0.534490 0.522226
H1    H     H_    0.674513 0.387022 0.684045 0.174313
H2    H     H_    0.384169 0.474183 0.864603 0.216291
H3    H     H_    0.392546 0.301378 0.881765 0.191764
H4    H     H_    0.385412 0.320902 0.125294 0.160247
H5    H     H_    0.320967 0.561718 0.708237 0.154023
H6    H     H_    0.318512 0.402491 0.307498 0.168360
H7    H     H_    0.213884 0.388929 0.316472 0.146796
H8    H     H_    0.778596 0.380838 0.692714 0.145850
H9    H     H_    0.891099 0.213441 0.736561 0.146703
H10   H     H_    0.953899 0.125474 0.776657 0.118696
H11   H     H_    0.844325 0.010998 0.650644 0.259071
H12   H     H_    0.791960 0.589434 0.321377 0.135154
H13   H     H_    0.904889 0.928888 0.715383 0.256497
H14   H     H_    0.884801 0.015055 0.948199 0.269893
H15   H     H_    0.826688 0.920079 0.882785 0.275812
H16   H     H_    0.821883 0.088262 0.881024 0.272034
H17   H     H_    0.680985 0.796574 0.187700 0.156569
H18   H     H_    0.746585 0.722105 0.201864 0.098440
H19   H     H_    0.747920 0.790603 0.457627 0.249028
H20   H     H_    0.750672 0.914584 0.335361 0.199289
H21   H     H_    0.649455 0.956016 0.365437 0.260344
H22   H     H_    0.682363 0.949565 0.529977 0.247849
H23   H     H_    0.534945 0.122953 0.288575 0.182249
H24   H     H_    0.639160 0.818630 0.472551 0.261201
H25   H     H_    0.501972 0.840984 0.212051 0.217370
H26   H     H_    0.571299 0.820113 0.262423 0.213392
H27   H     H_    0.641898 0.557472 0.877823 0.141764
H28   H     H_    0.635990 0.692093 0.988361 0.130743
H29   H     H_    0.654375 0.703283 0.680017 0.232381
H30   H     H_    0.648348 0.835317 0.790452 0.219744
H31   H     H_    0.735429 0.769919 0.915959 0.247234
H32   H     H_    0.750033 0.790295 0.737001 0.284809
H33   H     H_    0.741173 0.634906 0.807551 0.274898
H34   H     H_    0.425344 0.881209 0.701093 0.198260
H35   H     H_    0.332712 0.516510 0.090732 0.189283
H36   H     H_    0.393962 0.599182 0.066089 0.197914
H37   H     H_    0.121397 0.904777 0.646568 0.200425
H38   H     H_    0.098800 0.754571 0.708938 0.102422
H39   H     H_    0.016844 0.974041 0.672188 0.266852
H40   H     H_    0.003154 0.830081 0.763534 0.221679
H41   H     H_    0.078467 0.888478 0.931632 0.276568
H42   H     H_    0.024702 0.006279 0.918954 0.267286
H43   H     H_    0.093222 0.033182 0.839213 0.280952
H44   H     H_    0.897445 0.908958 0.373765 0.198364
H45   H     H_    0.485390 0.882118 0.826647 0.225715
H46   H     H_    0.929851 0.775228 0.302219 0.088800
H47   H     H_    0.998197 0.012661 0.389646 0.271445
H48   H     H_    0.023348 0.885485 0.288522 0.238017
H49   H     H_    0.955890 0.939587 0.105084 0.261336
H50   H     H_    0.001480 0.072265 0.147813 0.276651
H51   H     H_    0.928396 0.066118 0.205996 0.285222
H52   H     H_    0.183942 0.617605 0.734196 0.194618
H53   H     H_    0.185505 0.466756 0.787479 0.187457
H54   H     H_    0.425344 0.105607 0.704272 0.204355
H55   H     H_    0.485290 0.105865 0.830100 0.207235
H56   H     H_    0.563248 0.640816 0.126683 0.168172
H57   H     H_    0.045032 0.158129 0.561840 0.196191
N1    N     N_R   0.851950 0.482684 0.512864 -0.344919
N2    N     N_R   0.147645 0.464901 0.518314 -0.357776
N3    N     N_R   0.499610 0.499140 0.142800 -0.117547
N4    N     N_R   0.499610 0.499180 0.857150 -0.133454
N5    N     N_3   0.538999 0.884775 0.249310 -0.469179
N6    N     N_3   0.375894 0.521652 0.117391 -0.402850
N7    N     N_3   0.210738 0.543137 0.754412 -0.471768
O1    O     O_R   0.500010 0.316790 0.614690 -0.615154
O2    O     O_R   0.583850 0.500060 0.614640 -0.612720
O3    O     O_R   0.583840 0.500020 0.385300 -0.577847
O4    O     O_2   0.854394 0.701242 0.530923 -0.581641
O5    O     O_3   0.934542 0.137971 0.570961 -0.611193
O6    O     O_3   0.676812 0.637362 0.304867 -0.641311
O7    O     O_3   0.568973 0.664247 0.852721 -0.619848
O8    O     O_3   0.065940 0.814071 0.519646 -0.604528
O9    O     O_3   0.950195 0.821301 0.506290 -0.615957
O10   O     O_2   0.846145 0.264005 0.497218 -0.536338
O11   O     O_2   0.143966 0.246746 0.549191 -0.569616
O12   O     O_2   0.154668 0.680686 0.475651 -0.527439
O13   O     O_R   0.500000 0.316760 0.385350 -0.630287
O14   O     O_R   0.416160 0.499980 0.614700 -0.633488
O15   O     O_R   0.416150 0.499940 0.385360 -0.585890
O16   O     O_R   0.500000 0.683240 0.614650 -0.570963
O17   O     O_R   0.499990 0.683210 0.385310 -0.629368
Zn1   Zn    Zn3+2 0.500000 0.500020 0.653130 0.974305
Zn2   Zn    Zn3+2 0.500000 0.499980 0.346870 0.966275

loop_
_geom_bond_atom_site_label_1
_geom_bond_atom_site_label_2
_ccdc_geom_bond_type
C8    H7    S    
C20   H23   S    
C11   C13   A    
C41   C42   S    
C19   C20   A    
C18   C26   S    
C49   H31   S    
C36   O10   S    
C2    N2    A    
C7    C8    A    
C10   H8    S    
C27   C33   S    
C25   H34   S    
C29   N3    A    
C12   C23   A    
C52   H43   S    
C42   H16   S    
C29   C30   A    
C54   H48   S    
C18   C24   A    
C5    C6    A    
C36   C37   A    
O17   Zn2   S    
C32   H2    S    
C38   C39   A    
C10   C17   A    
C40   O5    S    
C56   C57   A    
C18   C19   A    
C12   C37   A    
C38   C45   A    
O13   Zn2   S    
C23   H57   S    
C31   C32   S    
C45   C56   A    
C44   C46   S    
C8    C9    A    
C42   H14   S    
C48   H29   S    
C13   C28   S    
H26   N5    S    
C1    O13   A    
C17   N1    S    
C51   H39   S    
C29   H56   S    
C21   C22   A    
C55   H50   S    
C9    N2    S    
C3    N7    S    
C16   O17   A    
C49   H32   S    
C28   O3    A    
C51   H40   S    
C52   H42   S    
C1    C19   S    
C42   H15   S    
C40   H10   S    
C54   H47   S    
C47   O7    S    
H52   N7    S    
C51   C52   S    
C47   H27   S    
C43   O6    S    
C24   C25   S    
H53   N7    S    
C4    C6    S    
O15   Zn2   S    
O2    Zn1   S    
C34   C45   A    
C4    O15   A    
C25   C26   S    
C53   C54   S    
C39   C58   A    
C27   C31   A    
C52   H41   S    
C5    H5    S    
C47   H28   S    
C35   C39   A    
C43   C44   S    
C26   H55   S    
C37   C38   A    
C3    C9    A    
C7    H6    S    
C46   H22   S    
C47   C48   S    
C33   H4    S    
C23   C34   A    
C50   C51   S    
C53   O9    S    
C35   O4    S    
C36   N1    A    
C41   H13   S    
H35   N6    S    
H36   N6    S    
C48   C49   S    
C59   N2    A    
C48   H30   S    
C55   H51   S    
C34   C59   A    
C22   C24   A    
O1    Zn1   S    
C35   N1    A    
C16   O16   A    
C49   H33   S    
C11   H1    S    
C28   O2    A    
C43   H17   S    
C15   C17   A    
O14   Zn1   S    
C54   C55   S    
C40   C41   S    
C50   H38   S    
C16   C22   S    
C57   O8    S    
C44   H20   S    
N4    Zn1   S    
C4    O14   A    
C3    C5    A    
C25   H45   S    
C6    C7    A    
C12   O5    S    
C27   N3    A    
C43   H18   S    
C15   H12   S    
C59   O11   S    
C2    O12   S    
C55   H49   S    
C32   C33   S    
C44   H19   S    
H25   N5    S    
C26   H54   S    
C32   H3    S    
C30   O7    S    
C46   H21   S    
O16   Zn1   S    
C50   H37   S    
C57   C58   A    
C33   N6    S    
C30   N4    A    
C50   O8    S    
C53   H44   S    
O3    Zn2   S    
C21   N5    S    
C31   N4    A    
C1    O1    A    
C10   C11   A    
C58   O9    S    
C46   H24   S    
C53   H46   S    
C20   C21   A    
C40   H9    S    
N3    Zn2   S    
C14   C15   A    
C2    C56   A    
C13   C14   A    
C41   H11   S    
C14   O6    S    
