data_mof_unit_20383.cif
_audit_creation_date              2012-12-11T18:11:21-0500
_audit_creation_method            fapswitch 2.2
_symmetry_space_group_name_H-M    P1
_symmetry_Int_Tables_number       1
_space_group_crystal_system       triclinic
_cell_length_a                    8.241307
_cell_length_b                    12.76798
_cell_length_c                    18.77451
_cell_angle_alpha                 99.55919
_cell_angle_beta                  90.722145
_cell_angle_gamma                 98.914168
_cell_volume                      1923.09272855

loop_
_atom_site_label
_atom_site_type_symbol
_atom_type_description
_atom_site_fract_x
_atom_site_fract_y
_atom_site_fract_z
_atom_type_partial_charge
Ba1   Ba    Ba6+2 0.852780 0.548340 0.465070 1.767100
Ba2   Ba    Ba6+2 0.337060 0.451750 0.534940 1.730058
C1    C     C_3   0.602039 0.897177 0.247913 0.452047
C2    C     C_R   0.894421 0.395576 0.100004 -0.036296
C3    C     C_R   0.773193 0.382899 0.946863 0.416133
C4    C     C_3   0.128269 0.784311 0.267645 0.331297
C5    C     C_R   0.932417 0.435913 0.974572 -0.048411
C6    C     C_R   0.713173 0.397529 0.880249 -0.132301
C7    C     C_R   0.815662 0.443270 0.831228 -0.101019
C8    C     C_R   0.977227 0.491864 0.854487 -0.013603
C9    C     C_R   0.035008 0.489884 0.926679 -0.031937
C10   C     C_R   0.763231 0.436879 0.758477 -0.012990
C11   C     C_R   0.872249 0.477429 0.709385 -0.272288
C12   C     C_3   0.632255 0.812964 0.292972 0.369908
C13   C     C_R   0.026948 0.535963 0.731955 0.048128
C14   C     C_R   0.079535 0.544558 0.806093 -0.025291
C15   C     C_R   0.158136 0.484203 0.068593 0.053975
C16   C     C_3   0.129929 0.834051 0.199289 0.303736
C17   C     C_R   0.220224 0.486273 0.140821 -0.034883
C18   C     C_R   0.115289 0.442303 0.191846 -0.102197
C19   C     C_R   0.957238 0.391042 0.167994 -0.041088
C20   C     C_R   0.229777 0.604920 0.834036 -0.024205
C21   C     C_R   0.288377 0.601359 0.903409 -0.096578
C22   C     C_R   0.197096 0.539300 0.949473 0.031838
C23   C     C_3   0.458884 0.272501 0.315148 0.405223
C24   C     C_R   0.261675 0.529125 0.018372 -0.014766
C25   C     C_R   0.430051 0.557820 0.036887 -0.107108
C26   C     C_R   0.387306 0.530155 0.161464 -0.099488
C27   C     C_R   0.494727 0.559661 0.106991 0.476577
C28   C     C_3   0.245524 0.801923 0.637345 0.681660
C29   C     C_R   0.439715 0.540980 0.235749 -0.018406
C30   C     C_R   0.328625 0.504818 0.285946 0.268028
C31   C     C_R   0.169456 0.452732 0.265358 -0.008331
C32   C     C_R   0.759988 0.182782 0.530043 -0.253466
C33   C     C_R   0.429663 0.807356 0.472071 -0.366253
C34   C     C_3   0.437816 0.233842 0.233977 0.316307
C35   C     C_R   0.404327 0.980812 0.443005 0.511257
C36   C     C_R   0.340967 0.873685 0.441375 -0.067406
C37   C     C_R   0.577635 0.849143 0.510811 0.093911
C38   C     C_R   0.640086 0.961237 0.517834 -0.078961
C39   C     C_R   0.552609 0.027850 0.482560 -0.120948
C40   C     C_3   0.157095 0.897050 0.632734 -0.276757
C41   C     C_R   0.615097 0.139249 0.489427 0.067815
C42   C     C_R   0.851794 0.117493 0.560121 0.053251
C43   C     C_R   0.788795 0.008404 0.556990 0.023089
C44   C     C_3   0.959763 0.212072 0.378316 0.311638
C45   C     C_3   0.028040 0.230874 0.731552 0.506628
C46   C     C_3   0.901635 0.092314 0.355338 0.437523
C47   C     C_3   0.737335 0.700209 0.679661 0.303628
C48   C     C_3   0.799341 0.739285 0.758031 -0.397380
C49   C     C_3   0.564728 0.158413 0.134225 0.142918
C50   C     C_3   0.750279 0.656153 0.087713 0.204727
C51   C     C_3   0.729873 0.209050 0.963279 0.093932
C52   C     C_3   0.188096 0.811580 0.078769 0.232625
C53   C     C_3   0.445142 0.865196 0.731622 0.224791
C54   C     C_3   0.026685 0.201348 0.806707 0.513988
C55   C     C_3   0.527253 0.194682 0.752293 0.295693
C56   C     C_3   0.457854 0.127494 0.807704 -0.377633
C57   C     C_R   0.992825 0.437844 0.047232 0.023083
F1    F     F_    0.913116 0.039679 0.412818 -0.715682
F2    F     F_    0.512086 0.848286 0.185449 -0.718643
F3    F     F_    0.943631 0.097955 0.804486 -0.730861
F4    F     F_    0.378408 0.516733 0.356282 -0.718871
F5    F     F_    0.315225 0.036285 0.406192 -0.678652
H1    H     H_    0.714534 0.852063 0.340401 0.016337
H2    H     H_    0.623567 0.640876 0.678623 0.072806
H3    H     H_    0.721110 0.939457 0.232579 0.000135
H4    H     H_    0.919993 0.792248 0.760141 0.156731
H5    H     H_    0.811706 0.670445 0.785364 0.054260
H6    H     H_    0.712860 0.785556 0.789052 0.104758
H7    H     H_    0.512757 0.779448 0.313263 -0.124404
H8    H     H_    0.533042 0.956333 0.279223 0.013138
H9    H     H_    0.339370 0.291302 0.335900 -0.055627
H10   H     H_    0.553115 0.346218 0.325416 0.047130
H11   H     H_    0.337715 0.162891 0.224066 0.013045
H12   H     H_    0.196171 0.964143 0.678053 0.127799
H13   H     H_    0.401472 0.299352 0.207968 -0.114241
H14   H     H_    0.215143 0.912273 0.209681 0.069054
H15   H     H_    0.100629 0.312615 0.734675 -0.027534
H16   H     H_    0.899228 0.231757 0.713812 -0.221943
H17   H     H_    0.153888 0.207034 0.828345 0.022423
H18   H     H_    0.965123 0.258284 0.843589 -0.104002
H19   H     H_    0.657649 0.225676 0.768715 -0.001070
H20   H     H_    0.520582 0.143546 0.697965 0.041106
H21   H     H_    0.541714 0.071049 0.817300 0.077719
H22   H     H_    0.334781 0.082793 0.788547 0.136659
H23   H     H_    0.184131 0.926985 0.581413 0.077504
H24   H     H_    0.041413 0.707205 0.259183 0.056547
H25   H     H_    0.444676 0.180099 0.859960 0.131097
H26   H     H_    0.830898 0.470657 0.653664 0.059625
H27   H     H_    0.587095 0.363418 0.865626 0.115508
H28   H     H_    0.875252 0.350228 0.202373 0.142095
H29   H     H_    0.305898 0.654503 0.802430 0.085700
H30   H     H_    0.764892 0.368197 0.092612 0.159777
H31   H     H_    0.405284 0.650710 0.920644 0.052224
H32   H     H_    0.253627 0.768013 0.278392 -0.032082
H33   H     H_    0.514865 0.572372 0.995162 0.052997
H34   H     H_    0.023670 0.872138 0.636417 0.110992
H35   H     H_    0.859531 0.961319 0.583438 0.072914
H36   H     H_    0.807994 0.267496 0.533995 0.031594
H37   H     H_    0.378490 0.723299 0.468852 0.124792
H38   H     H_    0.003634 0.849484 0.187737 -0.003558
H39   H     H_    0.236015 0.751810 0.582673 -0.021080
H40   H     H_    0.516417 0.212361 0.101164 0.060361
H41   H     H_    0.481626 0.079745 0.128180 0.053225
H42   H     H_    0.685491 0.142702 0.113347 0.060103
H43   H     H_    0.686014 0.727306 0.091359 0.086789
H44   H     H_    0.776799 0.625622 0.030897 -0.002350
H45   H     H_    0.861176 0.249818 0.406656 -0.071342
H46   H     H_    0.870382 0.682810 0.117066 0.112756
H47   H     H_    0.850409 0.210570 0.991000 0.046893
H48   H     H_    0.738631 0.183866 0.904142 0.101159
H49   H     H_    0.639217 0.146784 0.981904 0.051252
H50   H     H_    0.275469 0.888661 0.086773 0.059163
H51   H     H_    0.063785 0.824604 0.062072 -0.035411
H52   H     H_    0.232828 0.756812 0.033940 0.064687
H53   H     H_    0.452370 0.789921 0.752486 0.046492
H54   H     H_    0.350422 0.905731 0.761307 0.014068
H55   H     H_    0.565919 0.917772 0.742614 0.089940
H56   H     H_    0.069912 0.224717 0.414735 0.090574
H57   H     H_    0.772013 0.079271 0.335295 -0.031628
H58   H     H_    0.978381 0.058249 0.311885 0.070684
H59   H     H_    0.832323 0.661344 0.649308 0.004939
O1    O     O_2   0.873090 0.425890 0.325140 -0.469141
O2    O     O_2   0.192484 0.121486 0.551672 -0.432706
O3    O     O_3   0.100311 0.155792 0.684203 -0.601925
O4    O     O_3   0.122420 0.434370 0.414380 -0.427184
O5    O     O_3   0.578370 0.633800 0.536380 -0.464276
O6    O     O_2   0.341510 0.231850 0.465510 -0.405983
O7    O     O_3   0.508907 0.190569 0.347264 -0.611633
O8    O     O_2   0.451161 0.479174 0.754122 -0.482218
O9    O     O_3   0.431704 0.276386 0.751522 -0.588454
O10   O     O_3   0.659500 0.627100 0.368810 -0.419981
O11   O     O_2   0.783176 0.545586 0.247100 -0.456099
O12   O     O_3   0.704706 0.788728 0.649996 -0.602807
O13   O     O_3   0.997788 0.254821 0.315950 -0.695500
O14   O     O_3   0.709124 0.735251 0.250135 -0.589946
O15   O     O_2   0.848200 0.768190 0.534530 -0.493048
O16   O     O_3   0.081160 0.685950 0.404810 -0.496735
O17   O     O_2   0.013144 0.877281 0.459458 -0.393112
O18   O     O_3   0.588093 0.206902 0.207382 -0.637037
O19   O     O_3   0.663589 0.573091 0.120032 -0.639550
O20   O     O_3   0.674893 0.309348 0.980258 -0.672150
O21   O     O_3   0.182373 0.763436 0.141275 -0.633502
O22   O     O_3   0.413018 0.841759 0.655991 -0.687077
O23   O     O_3   0.076787 0.856673 0.324232 -0.584211
O24   O     O_2   0.316610 0.574140 0.674900 -0.464537
O25   O     O_3   0.067290 0.565720 0.585630 -0.503185
O26   O     O_3   0.530210 0.372990 0.631200 -0.471489
O27   O     O_3   0.170100 0.744987 0.689218 -0.690498
O28   O     O_3   0.611340 0.366290 0.463630 -0.480730
O29   O     O_3   0.108550 0.314140 0.595200 -0.491402
P1    P     P_3+3 0.041040 0.394770 0.336330 1.031524
P2    P     P_3+3 0.672880 0.754030 0.556100 1.037658
P3    P     P_3+3 0.129783 0.823271 0.407114 1.079181
P4    P     P_3+3 0.148670 0.605320 0.663680 0.962646
P5    P     P_3+3 0.062313 0.175804 0.596121 1.017723
P6    P     P_3+3 0.645993 0.609456 0.274644 1.100110
P7    P     P_3+3 0.522948 0.230845 0.441057 1.050998
P8    P     P_3+3 0.548179 0.388680 0.724838 0.943189

loop_
_geom_bond_atom_site_label_1
_geom_bond_atom_site_label_2
_ccdc_geom_bond_type
C52   O21   S    
C2    C19   A    
C11   H26   S    
C25   C27   A    
C12   H7    S    
C55   O9    S    
C17   C18   A    
Ba1   O5    S    
C45   H15   S    
O4    P1    S    
C54   H17   S    
C53   H55   S    
C5    C9    A    
C10   C11   A    
C24   C25   A    
O9    P8    S    
O12   P2    S    
O14   P6    S    
C28   O22   S    
C15   C24   A    
C36   P3    S    
C26   C27   A    
C48   H5    S    
C22   C24   A    
O10   P6    S    
C41   P7    S    
C34   H13   S    
C40   H34   S    
C46   H58   S    
C4    O23   S    
O2    P5    D    
C3    O20   S    
Ba2   O25   S    
C13   C14   A    
C47   H59   S    
C9    C22   A    
Ba2   O6    S    
C4    H24   S    
Ba1   Ba2   S    
C16   H38   S    
O23   P3    S    
C50   H43   S    
C6    C7    A    
C52   H52   S    
C28   H39   S    
C32   H36   S    
C21   C22   A    
C55   H19   S    
O16   P3    S    
C7    C8    A    
Ba1   O16   S    
C49   H41   S    
Ba2   P4    S    
Ba2   O4    S    
O15   P2    D    
Ba2   O26   S    
C1    F2    S    
C47   O12   S    
O27   P4    S    
O1    P1    D    
C35   C39   A    
C42   P5    S    
C39   C41   A    
Ba1   P2    S    
C45   H16   S    
Ba1   O10   S    
C23   O7    S    
C56   H22   S    
C5    C57   A    
C7    C10   A    
C51   H49   S    
C46   F1    S    
C49   O18   S    
Ba2   O29   S    
C38   C43   A    
C4    C16   S    
C44   C46   S    
C47   H2    S    
C37   P2    S    
C33   C36   A    
C32   C42   A    
C43   H35   S    
C37   C38   A    
C3    C5    A    
O17   P3    D    
C49   H40   S    
C50   O19   S    
O7    P7    S    
C51   O20   S    
O28   P7    S    
C33   C37   A    
C34   O18   S    
C35   C36   A    
O24   P4    D    
C34   H11   S    
C29   C30   A    
C12   O14   S    
C50   H46   S    
C16   H14   S    
C52   H51   S    
C55   H20   S    
C44   H56   S    
C6    H27   S    
C10   P8    S    
Ba1   P1    S    
C17   C26   A    
C13   P4    S    
C1    C12   S    
C15   C57   A    
C2    H30   S    
C18   C31   A    
C51   H48   S    
C38   C39   A    
O11   P6    D    
C4    H32   S    
C11   C13   A    
C20   H29   S    
C54   F3    S    
C46   H57   S    
C56   H21   S    
O6    P7    D    
C35   F5    S    
C42   C43   A    
C45   O3    S    
C53   H53   S    
O3    P5    S    
Ba2   O28   S    
O29   P5    S    
C25   H33   S    
C14   C20   A    
C28   O27   S    
C26   C29   A    
C1    H3    S    
C32   C41   A    
Ba1   O4    S    
C30   F4    S    
C33   H37   S    
C3    C6    A    
C54   H18   S    
O5    P2    S    
C40   H12   S    
C23   H10   S    
C30   C31   A    
C16   O21   S    
C1    H8    S    
Ba2   O24   S    
Ba1   O1    S    
C8    C14   A    
O13   P1    S    
C51   H47   S    
C55   C56   S    
C49   H42   S    
C27   O19   S    
C52   H50   S    
C2    C57   A    
C15   C17   A    
C12   H1    S    
C21   H31   S    
C56   H25   S    
Ba1   O28   S    
C23   H9    S    
C48   H6    S    
O8    P8    D    
O26   P8    S    
C29   P6    S    
C53   O22   S    
C8    C9    A    
C23   C34   S    
C44   O13   S    
C18   C19   A    
C50   H44   S    
C47   C48   S    
C44   H45   S    
C20   C21   A    
C28   C40   S    
Ba1   O25   S    
C40   H23   S    
O25   P4    S    
C31   P1    S    
C48   H4    S    
C19   H28   S    
Ba1   O15   S    
C45   C54   S    
C53   H54   S    
Ba2   O5    S    
