data_mof_unit_56829.cif
_audit_creation_date              2012-10-26T19:52:29-0400
_audit_creation_method            fapswitch 2.2
_symmetry_space_group_name_H-M    P1
_symmetry_Int_Tables_number       1
_space_group_crystal_system       triclinic
_cell_length_a                    9.625188
_cell_length_b                    10.824448
_cell_length_c                    13.481868
_cell_angle_alpha                 92.646628
_cell_angle_beta                  71.785198
_cell_angle_gamma                 88.220349
_cell_volume                      1331.29970903

loop_
_atom_site_label
_atom_site_type_symbol
_atom_type_description
_atom_site_fract_x
_atom_site_fract_y
_atom_site_fract_z
_atom_type_partial_charge
C1    C     C_R   0.496552 0.737915 0.504260 0.543518
C2    C     C_R   0.375615 0.494716 0.815923 -0.006731
C3    C     C_R   0.366198 0.942759 0.514584 0.017977
C4    C     C_R   0.421586 0.494560 0.700130 0.517529
C5    C     C_R   0.492440 0.872512 0.511399 0.007494
C6    C     C_R   0.615252 0.933617 0.520314 -0.167658
C7    C     C_R   0.614132 0.062022 0.525846 -0.152979
C8    C     C_R   0.495146 0.130881 0.515888 0.004603
C9    C     C_R   0.367721 0.071622 0.519196 0.003058
C10   C     C_3   0.230685 0.085036 0.610302 -0.291341
C11   C     C_3   0.223428 0.946725 0.600981 -0.249404
C12   C     C_R   0.440523 0.515897 0.978445 0.028852
C13   C     C_R   0.943083 0.393004 0.475018 0.145089
C14   C     C_R   0.904184 0.599038 0.539658 -0.011331
C15   C     C_R   0.050534 0.597213 0.544248 0.355231
C16   C     C_R   0.498775 0.263362 0.506089 0.539218
C17   C     C_R   0.089187 0.395981 0.471345 0.050224
C18   C     C_3   0.146054 0.304715 0.380482 0.031522
C19   C     C_3   0.982115 0.292283 0.385741 0.401626
C20   C     C_R   0.578663 0.507679 0.300573 0.539642
C21   C     C_R   0.806068 0.469420 0.018157 -0.155696
C22   C     C_R   0.624927 0.516420 0.186406 -0.002731
C23   C     C_R   0.478900 0.476517 0.870733 0.028765
C24   C     C_R   0.230316 0.530505 0.872732 -0.147408
C25   C     C_R   0.190606 0.562961 0.978929 -0.151231
C26   C     C_R   0.294468 0.559675 0.030842 -0.124904
C27   C     C_3   0.041930 0.683793 0.703865 0.008648
C28   C     C_3   0.911874 0.775214 0.756287 -0.297000
C29   C     C_3   0.878949 0.784973 0.874768 -0.476904
C30   C     C_3   0.298385 0.276969 0.196999 -0.303501
C31   C     C_3   0.862422 0.257252 0.246324 -0.231552
C32   C     C_3   0.998977 0.072639 0.418368 -0.012868
C33   C     C_3   0.065229 0.010522 0.308403 -0.278369
C34   C     C_R   0.549866 0.509469 0.029314 0.019509
C35   C     C_3   0.172819 0.903618 0.307933 -0.474076
C36   C     C_R   0.695399 0.468849 0.971107 0.043932
C37   C     C_R   0.727668 0.422092 0.868331 -0.153203
C38   C     C_R   0.619078 0.419198 0.821144 -0.124658
C39   C     C_R   0.518022 0.534811 0.137527 -0.135896
C40   C     C_R   0.771311 0.497085 0.125067 -0.154385
Cu1   Cu    Cu3+1 0.359330 0.500020 0.500010 0.984139
Cu2   Cu    Cu3+1 0.640670 0.499980 0.499990 0.935657
H1    H     H_    0.857791 0.495564 0.160061 0.120083
H2    H     H_    0.918312 0.443080 0.973015 0.105802
H3    H     H_    0.408663 0.560129 0.186896 0.124310
H4    H     H_    0.147783 0.538380 0.834490 0.105281
H5    H     H_    0.256255 0.592692 0.111761 0.090287
H6    H     H_    0.079376 0.595808 0.020733 0.112409
H7    H     H_    0.646928 0.368892 0.745998 0.148901
H8    H     H_    0.710929 0.882588 0.525631 0.121662
H9    H     H_    0.133230 0.706930 0.734232 0.159703
H10   H     H_    0.010916 0.588187 0.727339 0.114526
H11   H     H_    0.935770 0.868436 0.725927 0.160886
H12   H     H_    0.702850 0.107642 0.541875 0.182390
H13   H     H_    0.812895 0.743807 0.738870 0.153326
H14   H     H_    0.854761 0.692863 0.907142 0.164703
H15   H     H_    0.782191 0.849207 0.910867 0.151128
H16   H     H_    0.973897 0.821136 0.895219 0.140735
H17   H     H_    0.195192 0.444962 0.271257 0.244718
H18   H     H_    0.385277 0.321939 0.137709 0.155263
H19   H     H_    0.213750 0.250613 0.160936 0.150591
H20   H     H_    0.349022 0.193036 0.218710 0.137642
H21   H     H_    0.945312 0.425806 0.284491 0.235945
H22   H     H_    0.878137 0.282700 0.165173 0.106280
H23   H     H_    0.251183 0.118330 0.683611 0.135083
H24   H     H_    0.745283 0.270045 0.293266 0.187956
H25   H     H_    0.895499 0.158220 0.240224 0.155147
H26   H     H_    0.927585 0.004443 0.465850 0.134428
H27   H     H_    0.080244 0.085243 0.458763 0.105741
H28   H     H_    0.976239 0.973128 0.281289 0.153098
H29   H     H_    0.123488 0.078015 0.253075 0.164432
H30   H     H_    0.267158 0.938908 0.329636 0.157572
H31   H     H_    0.214632 0.857120 0.228373 0.139534
H32   H     H_    0.117994 0.834558 0.363964 0.163774
H33   H     H_    0.140051 0.137752 0.594850 0.121365
H34   H     H_    0.230625 0.901177 0.671535 0.143405
H35   H     H_    0.132712 0.918590 0.571737 0.171401
H36   H     H_    0.833035 0.680444 0.569283 0.124390
H37   H     H_    0.208030 0.228008 0.400921 0.133917
H38   H     H_    0.836162 0.383053 0.825425 0.098697
N1    N     N_R   0.852320 0.499070 0.499340 -0.282957
N2    N     N_R   0.148230 0.499110 0.499340 -0.225259
N3    N     N_2   0.235209 0.361419 0.287575 -0.483839
N4    N     N_2   0.951913 0.331821 0.292217 -0.485936
O1    O     O_R   0.381190 0.680360 0.500000 -0.445197
O2    O     O_3   0.910297 0.181594 0.422490 -0.579138
O3    O     O_R   0.618780 0.680320 0.499990 -0.524696
O4    O     O_R   0.323230 0.500000 0.650990 -0.504773
O5    O     O_R   0.560820 0.499960 0.650980 -0.510601
O6    O     O_R   0.381220 0.319680 0.500010 -0.505199
O7    O     O_R   0.618810 0.319640 0.500000 -0.474670
O8    O     O_R   0.439180 0.500040 0.349020 -0.474218
O9    O     O_R   0.676770 0.500000 0.349010 -0.508557
O10   O     O_3   0.093424 0.695441 0.594249 -0.573881

loop_
_geom_bond_atom_site_label_1
_geom_bond_atom_site_label_2
_ccdc_geom_bond_type
C1    O3    A    
C31   H24   S    
C20   O9    A    
C35   H32   S    
C16   O6    A    
Cu2   O9    S    
Cu1   Cu2   S    
C19   O2    S    
C15   O10   S    
C7    C8    A    
C21   C36   A    
C32   H26   S    
C31   H25   S    
C20   O8    A    
C12   C23   A    
C1    C5    S    
C28   C29   S    
H17   N3    S    
C18   C19   S    
C11   H34   S    
C5    C6    A    
Cu1   N2    S    
C13   N1    A    
C17   N2    A    
C30   N3    S    
C11   H35   S    
C40   H1    S    
C35   H31   S    
C18   H37   S    
C30   H18   S    
C9    C10   S    
C39   H3    S    
Cu1   O6    S    
C22   C40   A    
C8    C16   S    
Cu2   N1    S    
C28   H13   S    
C27   H9    S    
C17   C18   S    
C15   N2    A    
C1    O1    A    
C37   H38   S    
C13   C19   S    
C34   C39   A    
C24   C25   A    
C38   H7    S    
C8    C9    A    
C25   C26   A    
C31   N4    S    
C12   C26   A    
C2    C4    S    
C37   C38   A    
C3    C9    A    
C21   H2    S    
C10   H33   S    
C32   O2    S    
C18   N3    S    
C6    H8    S    
C25   H6    S    
C32   H27   S    
C33   H28   S    
C26   H5    S    
C29   H15   S    
C35   H30   S    
C30   H20   S    
C2    C24   A    
C12   C34   A    
C19   N4    S    
C27   C28   S    
C27   H10   S    
C4    O5    A    
C10   H23   S    
Cu1   O4    S    
C36   C37   A    
C31   H22   S    
C20   C22   S    
C3    C5    A    
C28   H11   S    
C6    C7    A    
C4    O4    A    
C29   H14   S    
C23   C38   A    
Cu1   O1    S    
C14   N1    A    
C13   C17   A    
H21   N4    S    
Cu2   O5    S    
C24   H4    S    
C32   C33   S    
C21   C40   A    
C22   C39   A    
C33   C35   S    
C34   C36   A    
C14   H36   S    
C3    C11   S    
C10   C11   S    
C33   H29   S    
Cu1   O8    S    
C29   H16   S    
C16   O7    A    
C30   H19   S    
C2    C23   A    
C14   C15   A    
C27   O10   S    
Cu2   O3    S    
C7    H12   S    
Cu2   O7    S    
