data_mof_unit_56855.cif
_audit_creation_date              2012-12-10T17:35:04-0500
_audit_creation_method            fapswitch 2.2
_symmetry_space_group_name_H-M    P1
_symmetry_Int_Tables_number       1
_space_group_crystal_system       triclinic
_cell_length_a                    12.477404
_cell_length_b                    13.091778
_cell_length_c                    13.873086
_cell_angle_alpha                 107.973061
_cell_angle_beta                  73.96142
_cell_angle_gamma                 116.75574
_cell_volume                      1899.46873637

loop_
_atom_site_label
_atom_site_type_symbol
_atom_type_description
_atom_site_fract_x
_atom_site_fract_y
_atom_site_fract_z
_atom_type_partial_charge
C1    C     C_R   0.144188 0.714594 0.506648 0.783151
C2    C     C_R   0.564311 0.016471 0.461741 0.047676
C3    C     C_R   0.606993 0.927584 0.406605 0.082313
C4    C     C_R   0.980745 0.499761 0.685623 0.840405
C5    C     C_R   0.523201 0.815389 0.370316 -0.198909
C6    C     C_R   0.399352 0.788551 0.395303 -0.201789
C7    C     C_R   0.649884 0.129381 0.494530 -0.320868
C8    C     C_R   0.817058 0.068109 0.418033 0.209438
C9    C     C_R   0.227159 0.839939 0.503184 -0.231487
C10   C     C_R   0.661328 0.699434 0.649885 0.166268
C11   C     C_R   0.251029 0.344790 0.362991 0.085675
C12   C     C_1   0.964982 0.494530 0.790062 -0.184805
C13   C     C_R   0.346625 0.307667 0.336067 0.169238
C14   C     C_R   0.445760 0.368868 0.387701 -0.261661
C15   C     C_R   0.453305 0.468457 0.466260 -0.062298
C16   C     C_R   0.856450 0.284602 0.485815 0.827971
C17   C     C_R   0.352085 0.503297 0.495197 0.208386
C18   C     C_R   0.558167 0.533253 0.518003 -0.056057
C19   C     C_R   0.567752 0.639175 0.589386 0.069306
C20   C     C_R   0.481438 0.682299 0.603028 -0.290649
C21   C     C_R   0.368162 0.610057 0.573824 0.262196
C22   C     C_R   0.656057 0.499192 0.501627 0.006022
C23   C     C_R   0.732701 0.952622 0.386516 0.182021
C24   C     C_R   0.750421 0.657551 0.632809 0.047100
C25   C     C_R   0.015487 0.494708 0.313687 0.813738
C26   C     C_1   0.022841 0.488381 0.208053 -0.147624
C27   C     C_2   0.031600 0.475793 0.013072 -0.048220
C28   C     C_2   0.947497 0.492969 0.983508 -0.054195
C29   C     C_1   0.955111 0.492474 0.878087 -0.037009
C30   C     C_1   0.027446 0.482425 0.119147 -0.024839
C31   C     C_1   0.849145 0.517038 0.056622 0.267601
C32   C     C_3   0.603221 0.770046 0.829622 -0.694880
C33   C     C_1   0.157538 0.288013 0.299353 0.393283
C34   C     C_R   0.774967 0.158154 0.468004 -0.129247
C35   C     C_3   0.286058 0.098775 0.284104 -0.698333
C36   C     C_3   0.253804 0.635658 0.744057 -0.667419
C37   C     C_1   0.130217 0.451346 0.941145 0.259792
C38   C     C_3   0.990776 0.102360 0.489347 -0.597490
C39   C     C_3   0.786687 0.801330 0.401023 -0.606888
C40   C     C_1   0.057512 0.908502 0.581484 0.287284
C41   C     C_3   0.204758 0.182224 0.696391 -0.634201
C42   C     C_R   0.184617 0.931326 0.546235 -0.050154
C43   C     C_R   0.266384 0.048926 0.552520 0.249124
C44   C     C_R   0.390640 0.077009 0.524066 -0.280948
C45   C     C_R   0.437023 0.989443 0.484009 0.078338
C46   C     C_R   0.353585 0.871137 0.461674 0.064275
Cu1   Cu    Cu3+1 0.899780 0.525060 0.522890 0.944237
Cu2   Cu    Cu3+1 0.100220 0.474940 0.477110 0.956045
H1    H     H_    0.340969 0.703089 0.358288 0.180318
H2    H     H_    0.655532 0.737639 0.856985 0.227377
H3    H     H_    0.509611 0.701820 0.825225 0.244218
H4    H     H_    0.597502 0.849565 0.885861 0.233767
H5    H     H_    0.429864 0.221092 0.209503 0.263950
H6    H     H_    0.337541 0.095589 0.336137 0.231795
H7    H     H_    0.282214 0.027055 0.214997 0.233712
H8    H     H_    0.191710 0.084517 0.323536 0.234137
H9    H     H_    0.290578 0.728328 0.637012 0.243494
H10   H     H_    0.181879 0.666880 0.789352 0.211181
H11   H     H_    0.335900 0.692809 0.780549 0.209244
H12   H     H_    0.822945 0.701394 0.678225 0.147249
H13   H     H_    0.226458 0.543753 0.748137 0.261509
H14   H     H_    0.976810 0.049061 0.333359 0.246899
H15   H     H_    0.020116 0.029918 0.474306 0.222638
H16   H     H_    0.922483 0.099195 0.560837 0.230096
H17   H     H_    0.071140 0.186360 0.501406 0.241393
H18   H     H_    0.840264 0.875330 0.272000 0.250870
H19   H     H_    0.884503 0.823445 0.397464 0.222826
H20   H     H_    0.739987 0.705306 0.373901 0.238618
H21   H     H_    0.746492 0.826031 0.482315 0.237417
H22   H     H_    0.273539 0.208502 0.548397 0.255002
H23   H     H_    0.492697 0.767260 0.653172 0.192780
H24   H     H_    0.292961 0.225471 0.725286 0.232176
H25   H     H_    0.142103 0.108910 0.735195 0.236071
H26   H     H_    0.163142 0.246657 0.715470 0.242189
H27   H     H_    0.661507 0.423298 0.445101 0.133633
H28   H     H_    0.517253 0.337276 0.362588 0.147137
H29   H     H_    0.552682 0.747134 0.322001 0.186726
H30   H     H_    0.620998 0.197560 0.542232 0.179328
H31   H     H_    0.448353 0.168828 0.530141 0.143244
H32   H     H_    0.748419 0.865177 0.734087 0.274852
N1    N     N_R   0.748810 0.563010 0.557590 -0.203683
N2    N     N_2   0.773373 0.860725 0.335423 -0.451511
N3    N     N_1   0.956303 0.892938 0.609795 -0.356016
N4    N     N_2   0.223740 0.140524 0.586314 -0.456332
N5    N     N_R   0.250540 0.437620 0.443020 -0.246692
N6    N     N_1   0.770612 0.536323 0.115145 -0.293098
N7    N     N_2   0.663119 0.798663 0.730399 -0.448902
N8    N     N_1   0.084045 0.242328 0.246618 -0.304763
N9    N     N_2   0.345522 0.210200 0.253592 -0.430522
N10   N     N_2   0.274153 0.643874 0.637821 -0.353191
N11   N     N_1   0.209568 0.431653 0.884545 -0.326445
N12   N     N_2   0.943219 0.092904 0.401417 -0.422562
O1    O     O_R   0.025040 0.682470 0.528790 -0.566350
O2    O     O_R   0.194310 0.640150 0.490130 -0.574310
O3    O     O_R   0.903380 0.524130 0.659910 -0.578708
O4    O     O_R   0.072660 0.481800 0.621240 -0.535151
O5    O     O_R   0.805690 0.359850 0.509870 -0.594402
O6    O     O_R   0.974960 0.317530 0.471210 -0.556792
O7    O     O_R   0.927340 0.518200 0.378760 -0.572497
O8    O     O_R   0.096620 0.475870 0.340090 -0.584833

loop_
_geom_bond_atom_site_label_1
_geom_bond_atom_site_label_2
_ccdc_geom_bond_type
C15   C18   A    
C23   N2    S    
C12   C29   T    
C39   H20   S    
C3    C23   A    
C2    C7    A    
C43   C44   A    
C36   H11   S    
C45   C46   A    
C9    C42   A    
Cu2   O2    S    
C17   N5    A    
C28   C29   S    
C33   N8    T    
C11   N5    A    
H32   N7    S    
C36   H10   S    
C6    C46   A    
C5    C6    A    
C16   O5    A    
C38   N12   S    
C8    C23   A    
Cu1   O7    S    
C18   C19   A    
C32   H4    S    
C16   C34   S    
C41   H26   S    
C4    O4    A    
C25   O7    A    
C19   C20   A    
C1    O2    A    
H14   N12   S    
C20   H23   S    
C8    N12   S    
C4    C12   S    
H22   N4    S    
C40   C42   S    
C9    C46   A    
C31   N6    T    
C13   C14   A    
C35   H6    S    
C43   N4    S    
C40   N3    T    
C22   H27   S    
C38   H16   S    
C21   N10   S    
C44   H31   S    
C2    C45   A    
Cu1   O1    S    
Cu2   O8    S    
C10   N7    S    
H9    N10   S    
C37   N11   T    
C35   H7    S    
C22   N1    A    
C11   C33   S    
C1    C9    S    
C10   C24   A    
C25   C26   S    
C41   N4    S    
C17   C21   A    
C14   H28   S    
C24   N1    A    
C32   H3    S    
H18   N2    S    
C4    O3    A    
C25   O8    A    
Cu1   Cu2   S    
C14   C15   A    
C38   H17   S    
C10   C19   A    
C24   H12   S    
C39   H21   S    
C8    C34   A    
C32   H2    S    
C7    H30   S    
C35   N9    S    
C26   C30   T    
C41   H24   S    
H5    N9    S    
C7    C34   A    
C42   C43   A    
C5    H29   S    
C36   H13   S    
C44   C45   A    
C38   H15   S    
C36   N10   S    
C15   C17   A    
Cu2   O4    S    
C13   N9    S    
C35   H8    S    
C18   C22   A    
C39   H19   S    
C28   C31   S    
C39   N2    S    
C3    C5    A    
Cu2   O6    S    
Cu1   O5    S    
C2    C3    A    
C11   C13   A    
C16   O6    A    
C27   C37   S    
Cu1   N1    S    
C6    H1    S    
C41   H25   S    
C32   N7    S    
C20   C21   A    
C1    O1    A    
C27   C28   D    
Cu1   O3    S    
Cu2   N5    S    
C27   C30   S    
