data_mof_unit_33175.cif
_audit_creation_date              2012-12-10T19:02:41-0500
_audit_creation_method            fapswitch 2.2
_symmetry_space_group_name_H-M    P1
_symmetry_Int_Tables_number       1
_space_group_crystal_system       triclinic
_cell_length_a                    9.557454
_cell_length_b                    10.850819
_cell_length_c                    13.871867
_cell_angle_alpha                 90.645983
_cell_angle_beta                  85.198064
_cell_angle_gamma                 90.41327
_cell_volume                      1433.42974215

loop_
_atom_site_label
_atom_site_type_symbol
_atom_type_description
_atom_site_fract_x
_atom_site_fract_y
_atom_site_fract_z
_atom_type_partial_charge
C1    C     C_R   0.500151 0.737462 0.502769 0.811431
C2    C     C_1   0.465423 0.499639 0.785955 -0.152487
C3    C     C_R   0.374421 0.934839 0.520496 0.120227
C4    C     C_R   0.499934 0.870048 0.515018 -0.157070
C5    C     C_R   0.625234 0.935031 0.525512 -0.336457
C6    C     C_R   0.626206 0.064357 0.528416 0.427969
C7    C     C_R   0.500396 0.128529 0.514885 -0.190795
C8    C     C_R   0.374510 0.061624 0.519813 0.066905
C9    C     C_3   0.254099 0.064252 0.457825 -0.469429
C10   C     C_3   0.254046 0.924635 0.459108 -0.434157
C11   C     C_R   0.935868 0.466335 0.418892 0.168926
C12   C     C_R   0.477713 0.500138 0.682900 0.807138
C13   C     C_R   0.917198 0.551392 0.575194 0.500993
C14   C     C_R   0.066549 0.547375 0.575774 -0.194851
C15   C     C_R   0.083143 0.468499 0.418355 0.184197
C16   C     C_3   0.096444 0.349533 0.364337 -0.555927
C17   C     C_3   0.936930 0.344765 0.367742 0.233923
C18   C     C_R   0.499795 0.262028 0.502746 0.813166
C19   C     C_R   0.522441 0.500936 0.317110 0.835519
C20   C     C_1   0.536228 0.506861 0.214196 -0.164206
C21   C     C_2   0.565569 0.519755 0.022996 0.479896
C22   C     C_2   0.450651 0.497958 0.976396 -0.244789
C23   C     C_1   0.457093 0.498947 0.872741 0.070873
C24   C     C_1   0.549654 0.512995 0.127567 -0.185100
Cu1   Cu    Cu3+1 0.359330 0.500020 0.500000 0.934770
Cu2   Cu    Cu3+1 0.640670 0.499980 0.500000 1.005457
H1    H     H_    0.350071 0.478390 0.016018 0.114512
H2    H     H_    0.116335 0.580757 0.638146 0.155101
H3    H     H_    0.149354 0.361050 0.290468 0.216036
H4    H     H_    0.140681 0.277169 0.407572 0.178092
H5    H     H_    0.887084 0.271199 0.414446 0.152616
H6    H     H_    0.723680 0.886567 0.526076 0.174650
H7    H     H_    0.283892 0.102324 0.384817 0.192284
H8    H     H_    0.158997 0.884670 0.499132 0.186282
H9    H     H_    0.283660 0.882034 0.387046 0.196478
N1    N     N_R   0.852140 0.499070 0.499400 -0.251475
N2    N     N_R   0.148050 0.499110 0.499400 -0.196643
O1    O     O_R   0.381190 0.680360 0.500000 -0.581214
O2    O     O_R   0.618770 0.680320 0.499990 -0.575187
O3    O     O_R   0.364410 0.500000 0.637850 -0.594981
O4    O     O_R   0.602000 0.499960 0.637840 -0.505147
O5    O     O_R   0.381230 0.319680 0.500010 -0.581756
O6    O     O_R   0.618810 0.319640 0.500000 -0.538469
O7    O     O_R   0.398000 0.500040 0.362160 -0.578650
O8    O     O_R   0.635590 0.500000 0.362150 -0.548219
O9    O     O_3   0.886992 0.354871 0.275184 -0.550779
C25   C     C_3   0.866302 0.235341 0.237381 0.076598
H10   H     H_    0.778739 0.187714 0.280439 0.150730
H11   H     H_    0.963593 0.179265 0.237432 0.141375
C26   C     C_3   0.827939 0.244300 0.133539 -0.797553
H12   H     H_    0.913230 0.291766 0.088665 0.246725
H13   H     H_    0.813092 0.150406 0.103243 0.199365
H14   H     H_    0.728720 0.296191 0.131104 0.251810
O10   O     O_3   0.693531 0.542642 0.969222 -0.567969
C27   C     C_3   0.800474 0.581508 0.027356 0.083492
H15   H     H_    0.823432 0.508702 0.079448 0.180861
H16   H     H_    0.769819 0.668117 0.067249 0.144183
C28   C     C_3   0.934391 0.606273 0.963090 -0.796480
H17   H     H_    0.917578 0.682330 0.912582 0.244455
H18   H     H_    0.020285 0.633126 0.008433 0.199131
H19   H     H_    0.965989 0.522053 0.920716 0.256998
O11   O     O_3   0.752123 0.127531 0.532114 -0.587122
C29   C     C_3   0.812060 0.103230 0.619632 0.040401
H20   H     H_    0.880008 0.020529 0.610205 0.141178
H21   H     H_    0.731545 0.088563 0.681628 0.139895
C30   C     C_3   0.902319 0.213036 0.645202 -0.760381
H22   H     H_    0.835455 0.295743 0.658807 0.268673
H23   H     H_    0.955541 0.193117 0.711393 0.198312
H24   H     H_    0.983035 0.232666 0.584995 0.227714
H25   H     H_    0.158296 0.103329 0.497120 0.198397
O12   O     O_3   0.835991 0.597091 0.654666 -0.535442
C31   C     C_3   0.875505 0.719160 0.676924 0.055853
H26   H     H_    0.899339 0.775307 0.610639 0.107394
H27   H     H_    0.968479 0.718990 0.719968 0.129588
C32   C     C_3   0.754962 0.779885 0.738081 -0.772204
H28   H     H_    0.728440 0.726148 0.804852 0.276345
H29   H     H_    0.785393 0.874917 0.758625 0.176393
H30   H     H_    0.660631 0.783905 0.696710 0.241630

loop_
_geom_bond_atom_site_label_1
_geom_bond_atom_site_label_2
_ccdc_geom_bond_type
C8    C9    S    
C30   H23   S    
C27   H15   S    
C29   H21   S    
C19   C20   S    
C2    C12   S    
C7    C8    A    
C25   H11   S    
C12   O4    A    
C11   N1    A    
C18   O5    A    
Cu1   O3    S    
C21   O10   S    
Cu2   O2    S    
C30   H24   S    
C16   H4    S    
C15   C16   S    
C15   N2    A    
Cu2   O8    S    
Cu1   N2    S    
O10   C27   S    
C11   C15   A    
C20   C24   T    
C16   C17   S    
C26   H13   S    
C10   H9    S    
C9    C10   S    
C5    H6    S    
C28   H19   S    
C30   H22   S    
C29   C30   S    
C21   C22   D    
C9    H7    S    
C31   C32   S    
Cu1   O7    S    
Cu1   Cu2   S    
Cu2   O6    S    
C25   C26   S    
C26   H14   S    
C9    H25   S    
C13   N1    A    
C31   H27   S    
C3    C8    A    
C4    C5    A    
C13   O12   S    
C28   H17   S    
C12   O3    A    
C32   H28   S    
O11   C29   S    
Cu1   O1    S    
C25   H10   S    
C7    C18   S    
C26   H12   S    
C10   H8    S    
C17   O9    S    
C32   H29   S    
C1    O1    A    
Cu2   N1    S    
C22   H1    S    
C27   H16   S    
C17   H5    S    
C27   C28   S    
C3    C4    A    
C19   O7    A    
O9    C25   S    
C11   C17   S    
C31   H26   S    
Cu1   O5    S    
C19   O8    A    
C6    C7    A    
C1    C4    S    
C6    O11   S    
C16   H3    S    
O12   C31   S    
C3    C10   S    
C18   O6    A    
C14   N2    A    
C5    C6    A    
C32   H30   S    
C1    O2    A    
C29   H20   S    
C21   C24   S    
C2    C23   T    
C22   C23   S    
C14   H2    S    
C13   C14   A    
C28   H18   S    
Cu2   O4    S    
