data_mof_unit_44941.cif
_audit_creation_date              2012-12-10T17:20:23-0500
_audit_creation_method            fapswitch 2.2
_symmetry_space_group_name_H-M    P1
_symmetry_Int_Tables_number       1
_space_group_crystal_system       triclinic
_cell_length_a                    11.696142
_cell_length_b                    10.751119
_cell_length_c                    9.651908
_cell_angle_alpha                 88.85222
_cell_angle_beta                  90.618319
_cell_angle_gamma                 92.65827
_cell_volume                      1212.08635713

loop_
_atom_site_label
_atom_site_type_symbol
_atom_type_description
_atom_site_fract_x
_atom_site_fract_y
_atom_site_fract_z
_atom_type_partial_charge
C1    C     C_R   0.498511 0.262936 0.501139 0.781298
C2    C     C_R   0.185755 0.047366 0.578990 -0.135589
C3    C     C_R   0.185478 0.917890 0.576235 -0.137540
C4    C     C_R   0.286320 0.858512 0.549797 -0.163651
C5    C     C_R   0.389688 0.928420 0.525755 0.098401
C6    C     C_R   0.389941 0.059815 0.528698 0.088106
C7    C     C_R   0.493414 0.128975 0.503335 -0.083730
C8    C     C_R   0.594275 0.070110 0.476552 -0.182556
C9    C     C_R   0.594354 0.941744 0.475443 -0.223305
C10   C     C_R   0.493053 0.870912 0.498057 -0.078246
C11   C     C_R   0.687230 0.625536 0.135591 0.229537
C12   C     C_R   0.284242 0.499092 0.499433 0.790672
C13   C     C_R   0.789753 0.633179 0.061422 -0.191711
C14   C     C_R   0.782554 0.647846 0.919022 -0.249495
C15   C     C_R   0.677188 0.628244 0.854005 -0.120903
C16   C     C_R   0.587019 0.563601 0.924093 0.177136
C17   C     C_R   0.589056 0.563098 0.072939 0.171867
C18   C     C_R   0.416395 0.439449 0.074084 -0.056435
C19   C     C_R   0.416734 0.439012 0.926635 -0.051075
C20   C     C_R   0.498829 0.737154 0.499089 0.761537
C21   C     C_R   0.715723 0.500038 0.500588 0.794466
C22   C     C_1   0.162449 0.499445 0.498585 -0.192780
C23   C     C_1   0.059920 0.499904 0.499301 -0.008405
C24   C     C_1   0.940064 0.500287 0.500736 -0.009433
C25   C     C_1   0.837518 0.500306 0.501438 -0.186406
C26   C     C_R   0.286876 0.118222 0.555336 -0.179201
Cu1   Cu    Cu3+1 0.499990 0.499990 0.640660 0.939656
Cu2   Cu    Cu3+1 0.500010 0.500010 0.359340 0.945983
H1    H     H_    0.673499 0.123975 0.457913 0.138474
H2    H     H_    0.855713 0.684878 0.861142 0.159237
H3    H     H_    0.669233 0.664924 0.750786 0.190524
H4    H     H_    0.348581 0.388221 0.872380 0.138657
H5    H     H_    0.283592 0.218567 0.557848 0.122709
H6    H     H_    0.107285 0.093101 0.599275 0.135957
H7    H     H_    0.106793 0.863221 0.594391 0.133920
H8    H     H_    0.282554 0.757977 0.547993 0.130361
H9    H     H_    0.674301 0.897778 0.459044 0.129594
H10   H     H_    0.347965 0.389187 0.128872 0.140483
H11   H     H_    0.868717 0.665295 0.111791 0.156221
N1    N     N_R   0.501070 0.501210 0.147910 -0.191230
N2    N     N_R   0.501110 0.501290 0.852040 -0.190737
O1    O     O_R   0.499990 0.319640 0.618810 -0.570185
O2    O     O_R   0.500000 0.319660 0.381240 -0.569553
O3    O     O_R   0.337190 0.500000 0.618790 -0.579200
O4    O     O_R   0.337200 0.500030 0.381210 -0.571495
O5    O     O_R   0.500000 0.680340 0.618760 -0.591215
O6    O     O_R   0.500010 0.680360 0.381190 -0.575792
O7    O     O_R   0.662800 0.499970 0.618790 -0.585220
O8    O     O_R   0.662810 0.500000 0.381210 -0.567664
C27   C     C_3   0.675751 0.741513 0.218147 -0.771476
H12   H     H_    0.737544 0.818218 0.185468 0.193084
H13   H     H_    0.591207 0.781432 0.198396 0.243576
H14   H     H_    0.695971 0.723070 0.328497 0.222775

loop_
_geom_bond_atom_site_label_1
_geom_bond_atom_site_label_2
_ccdc_geom_bond_type
Cu1   O7    S    
C27   H13   S    
C23   C24   S    
C4    H8    S    
Cu2   O6    S    
C15   H3    S    
C6    C7    A    
C12   O4    A    
Cu2   O8    S    
Cu1   N2    S    
C26   H5    S    
C3    H7    S    
C21   O7    A    
C2    H6    S    
C21   O8    A    
C2    C3    A    
C18   H10   S    
C19   N2    A    
C5    C10   A    
C2    C26   A    
C11   C27   S    
C13   C14   A    
C11   C13   A    
Cu1   O1    S    
C6    C26   A    
C14   H2    S    
C8    H1    S    
Cu1   O3    S    
Cu1   O5    S    
C9    H9    S    
C27   H12   S    
C22   C23   T    
C5    C6    A    
C20   O5    A    
Cu2   O4    S    
C13   H11   S    
C20   O6    A    
C7    C8    A    
C19   H4    S    
C15   C16   A    
C27   H14   S    
C12   C22   S    
C1    O1    A    
C4    C5    A    
C18   N1    A    
C24   C25   T    
C12   O3    A    
C18   C19   A    
C9    C10   A    
Cu1   Cu2   S    
Cu2   N1    S    
C14   C15   A    
C16   C17   A    
C21   C25   S    
Cu2   O2    S    
C1    C7    S    
C16   N2    A    
C1    O2    A    
C11   C17   A    
C3    C4    A    
C10   C20   S    
C8    C9    A    
C17   N1    A    
