data_mof_unit_48201.cif
_audit_creation_date              2012-12-11T17:08:01-0500
_audit_creation_method            fapswitch 2.2
_symmetry_space_group_name_H-M    P1
_symmetry_Int_Tables_number       1
_space_group_crystal_system       triclinic
_cell_length_a                    17.145797
_cell_length_b                    17.145788
_cell_length_c                    17.319789
_cell_angle_alpha                 89.999629
_cell_angle_beta                  89.999611
_cell_angle_gamma                 89.999301
_cell_volume                      5091.64040184

loop_
_atom_site_label
_atom_site_type_symbol
_atom_type_description
_atom_site_fract_x
_atom_site_fract_y
_atom_site_fract_z
_atom_type_partial_charge
C1    C     C_R   0.423273 0.330326 0.856068 -0.001583
C2    C     C_R   0.698525 0.394350 0.900387 -0.165395
C3    C     C_R   0.576747 0.669692 0.856081 -0.001527
C4    C     C_R   0.301478 0.605643 0.900377 -0.165467
C5    C     C_R   0.394356 0.698523 0.099620 -0.165463
C6    C     C_R   0.669673 0.576727 0.143931 -0.001583
C7    C     C_R   0.605650 0.301475 0.099613 -0.165405
C8    C     C_R   0.330312 0.423258 0.143925 -0.001518
C9    C     C_R   0.894362 0.801478 0.400378 -0.165491
C10   C     C_R   0.169674 0.923269 0.356070 -0.001544
C11   C     C_R   0.105643 0.198522 0.400380 -0.165406
C12   C     C_R   0.830323 0.076736 0.356070 -0.001523
C13   C     C_R   0.923263 0.169677 0.643930 -0.001517
C14   C     C_R   0.198522 0.105638 0.599622 -0.165492
C15   C     C_R   0.076730 0.830327 0.643930 -0.001545
C16   C     C_R   0.801477 0.894354 0.599616 -0.165402
C17   C     C_3   0.887100 0.318157 0.741884 0.196360
C18   C     C_3   0.654357 0.864430 0.696214 0.186297
C19   C     C_3   0.113011 0.681795 0.741740 0.196405
C20   C     C_3   0.345479 0.135501 0.696433 0.186082
C21   C     C_3   0.864499 0.654520 0.303568 0.186083
C22   C     C_3   0.681838 0.112911 0.258130 0.196366
C23   C     C_3   0.135562 0.345638 0.303776 0.186292
C24   C     C_3   0.318205 0.886991 0.258258 0.196407
C25   C     C_3   0.364461 0.845550 0.196335 0.186171
C26   C     C_3   0.181807 0.387084 0.241847 0.196323
C27   C     C_3   0.635594 0.154358 0.196198 0.186357
C28   C     C_3   0.818232 0.613082 0.241654 0.196490
C29   C     C_3   0.386917 0.181767 0.758347 0.196490
C30   C     C_3   0.154452 0.635538 0.803661 0.186165
C31   C     C_3   0.612913 0.818189 0.758147 0.196315
C32   C     C_3   0.845652 0.364400 0.803817 0.186375
C33   C     C_R   0.391869 0.697872 0.898354 -0.124642
C34   C     C_R   0.327866 0.419399 0.856751 -0.072873
C35   C     C_R   0.608132 0.302125 0.898367 -0.124639
C36   C     C_R   0.672155 0.580618 0.856770 -0.072989
C37   C     C_R   0.419387 0.327851 0.143237 -0.072976
C38   C     C_R   0.302127 0.608133 0.101642 -0.124642
C39   C     C_R   0.580600 0.672134 0.143249 -0.072878
C40   C     C_R   0.697875 0.391868 0.101633 -0.124635
C41   C     C_R   0.919395 0.172142 0.356760 -0.073026
C42   C     C_R   0.802128 0.891865 0.398358 -0.124636
C43   C     C_R   0.080607 0.827860 0.356760 -0.072914
C44   C     C_R   0.197872 0.108130 0.398360 -0.124651
C45   C     C_R   0.891869 0.802126 0.601636 -0.124650
C46   C     C_R   0.827858 0.080605 0.643240 -0.073033
C47   C     C_R   0.108135 0.197872 0.601642 -0.124637
C48   C     C_R   0.172140 0.919394 0.643240 -0.072911
C49   C     C_R   0.361589 0.359602 0.813776 0.051709
C50   C     C_R   0.686291 0.316962 0.884221 0.074824
C51   C     C_R   0.638441 0.640423 0.813797 0.051748
C52   C     C_R   0.313712 0.683027 0.884202 0.074807
C53   C     C_R   0.316971 0.686290 0.115794 0.074802
C54   C     C_R   0.640398 0.638411 0.186224 0.051710
C55   C     C_R   0.683037 0.313708 0.115779 0.074821
C56   C     C_R   0.359585 0.361568 0.186213 0.051717
C57   C     C_R   0.816979 0.813710 0.384203 0.074788
C58   C     C_R   0.140402 0.861582 0.313783 0.051712
C59   C     C_R   0.183030 0.186288 0.384211 0.074821
C60   C     C_R   0.859598 0.138424 0.313781 0.051716
C61   C     C_R   0.861575 0.140402 0.686219 0.051714
C62   C     C_R   0.186290 0.183021 0.615797 0.074787
C63   C     C_R   0.138417 0.859600 0.686218 0.051710
C64   C     C_R   0.813710 0.816967 0.615783 0.074820
C65   C     C_R   0.820168 0.288147 0.838300 0.050523
C66   C     C_R   0.639476 0.746081 0.716260 -0.042897
C67   C     C_R   0.179846 0.711797 0.838235 0.050569
C68   C     C_R   0.360487 0.253854 0.716353 -0.042910
C69   C     C_R   0.746146 0.639513 0.283647 -0.042910
C70   C     C_R   0.711847 0.179834 0.161706 0.050529
C71   C     C_R   0.253914 0.360524 0.283736 -0.042876
C72   C     C_R   0.288202 0.820156 0.161763 0.050570
C73   C     C_R   0.246111 0.860508 0.216307 -0.042898
C74   C     C_R   0.211830 0.320173 0.338287 0.050498
C75   C     C_R   0.753929 0.139483 0.216257 -0.042866
C76   C     C_R   0.788245 0.679862 0.338184 0.050589
C77   C     C_R   0.320137 0.211755 0.661817 0.050587
C78   C     C_R   0.139493 0.753889 0.783692 -0.042893
C79   C     C_R   0.679824 0.788160 0.661704 0.050519
C80   C     C_R   0.860519 0.246066 0.783749 -0.042864
C81   C     C_R   0.747130 0.261392 0.863297 0.032609
C82   C     C_R   0.665823 0.672932 0.741077 0.089908
C83   C     C_R   0.252865 0.738580 0.863269 0.032585
C84   C     C_R   0.334198 0.327056 0.741077 0.089923
C85   C     C_R   0.672944 0.665802 0.258923 0.089922
C86   C     C_R   0.738605 0.252869 0.136704 0.032606
C87   C     C_R   0.327074 0.334188 0.258932 0.089899
C88   C     C_R   0.261417 0.747138 0.136726 0.032588
C89   C     C_R   0.172932 0.834194 0.241074 0.089914
C90   C     C_R   0.238597 0.247134 0.363290 0.032626
C91   C     C_R   0.827083 0.165814 0.241065 0.089899
C92   C     C_R   0.761439 0.752859 0.363258 0.032586
C93   C     C_R   0.247141 0.238561 0.636741 0.032587
C94   C     C_R   0.165805 0.827069 0.758926 0.089913
C95   C     C_R   0.752866 0.761398 0.636705 0.032618
C96   C     C_R   0.834185 0.172915 0.758936 0.089898
C97   C     C_R   0.137400 0.773421 0.199353 -0.133871
C98   C     C_R   0.318065 0.229281 0.352489 -0.121396
C99   C     C_R   0.862609 0.226608 0.199368 -0.133900
C100  C     C_R   0.681959 0.770675 0.352509 -0.121364
C101  C     C_R   0.229325 0.318041 0.647490 -0.121366
C102  C     C_R   0.226579 0.862600 0.800645 -0.133868
C103  C     C_R   0.770727 0.681936 0.647516 -0.121397
C104  C     C_R   0.773388 0.137389 0.800630 -0.133899
C105  C     C_R   0.729270 0.181933 0.852482 -0.121335
C106  C     C_R   0.726616 0.637400 0.699377 -0.133915
C107  C     C_R   0.270701 0.818051 0.852488 -0.121366
C108  C     C_R   0.273444 0.362593 0.699333 -0.133893
C109  C     C_R   0.637407 0.726556 0.300667 -0.133892
C110  C     C_R   0.818066 0.270726 0.147515 -0.121332
C111  C     C_R   0.362608 0.273399 0.300636 -0.133908
C112  C     C_R   0.181947 0.729301 0.147507 -0.121369
H1    H     H_    0.464239 0.285931 0.839212 0.102593
H2    H     H_    0.753856 0.422460 0.910289 0.158887
H3    H     H_    0.535778 0.714083 0.839223 0.102729
H4    H     H_    0.246147 0.577532 0.910274 0.158980
H5    H     H_    0.422467 0.753854 0.089723 0.158978
H6    H     H_    0.714069 0.535761 0.160788 0.102594
H7    H     H_    0.577540 0.246144 0.089711 0.158898
H8    H     H_    0.285923 0.464229 0.160784 0.102724
H9    H     H_    0.922478 0.746148 0.410268 0.159031
H10   H     H_    0.214064 0.964238 0.339210 0.102645
H11   H     H_    0.077531 0.253853 0.410280 0.158887
H12   H     H_    0.785938 0.035764 0.339206 0.102742
H13   H     H_    0.964236 0.214062 0.660794 0.102750
H14   H     H_    0.253851 0.077522 0.589732 0.159032
H15   H     H_    0.035760 0.785937 0.660790 0.102644
H16   H     H_    0.746145 0.922466 0.589714 0.158878
H17   H     H_    0.951526 0.325395 0.741678 0.139484
H18   H     H_    0.702760 0.901339 0.718336 0.122416
H19   H     H_    0.048584 0.674485 0.741482 0.139445
H20   H     H_    0.297009 0.098678 0.718542 0.122465
H21   H     H_    0.901322 0.702990 0.281458 0.122464
H22   H     H_    0.674594 0.048485 0.258341 0.139483
H23   H     H_    0.098656 0.297234 0.281651 0.122418
H24   H     H_    0.325513 0.951417 0.258516 0.139448
H25   H     H_    0.401320 0.797107 0.218450 0.122449
H26   H     H_    0.174543 0.451520 0.241634 0.139487
H27   H     H_    0.598678 0.202746 0.218315 0.122421
H28   H     H_    0.825574 0.548662 0.241367 0.139443
H29   H     H_    0.451337 0.174425 0.758633 0.139440
H30   H     H_    0.202896 0.598679 0.781545 0.122451
H31   H     H_    0.548477 0.825451 0.758362 0.139489
H32   H     H_    0.797269 0.401322 0.781699 0.122420
H33   H     H_    0.419101 0.754550 0.902637 0.121378
H34   H     H_    0.278783 0.455599 0.841119 0.117389
H35   H     H_    0.580895 0.245450 0.902655 0.121338
H36   H     H_    0.721238 0.544416 0.841145 0.117338
H37   H     H_    0.455589 0.278769 0.158864 0.117342
H38   H     H_    0.245448 0.580901 0.097358 0.121381
H39   H     H_    0.544401 0.721216 0.158882 0.117388
H40   H     H_    0.754550 0.419104 0.097345 0.121340
H41   H     H_    0.955597 0.221223 0.341132 0.117345
H42   H     H_    0.745447 0.919095 0.402637 0.121404
H43   H     H_    0.044410 0.778775 0.341133 0.117420
H44   H     H_    0.254550 0.080896 0.402646 0.121339
H45   H     H_    0.919104 0.745449 0.597348 0.121337
H46   H     H_    0.778777 0.044402 0.658867 0.117342
H47   H     H_    0.080905 0.254553 0.597363 0.121409
H48   H     H_    0.221225 0.955591 0.658867 0.117420
H49   H     H_    0.078963 0.754008 0.213057 0.144474
H50   H     H_    0.343301 0.176569 0.375973 0.151106
H51   H     H_    0.921033 0.246037 0.213093 0.144481
H52   H     H_    0.656712 0.823360 0.376038 0.151168
H53   H     H_    0.176641 0.343288 0.623961 0.151168
H54   H     H_    0.245992 0.921038 0.786943 0.144473
H55   H     H_    0.823442 0.656703 0.624035 0.151103
H56   H     H_    0.753957 0.078968 0.786901 0.144481
H57   H     H_    0.676554 0.156703 0.875956 0.151145
H58   H     H_    0.746051 0.578978 0.713108 0.144468
H59   H     H_    0.323405 0.843287 0.875983 0.151131
H60   H     H_    0.254049 0.421042 0.713011 0.144485
H61   H     H_    0.578958 0.745952 0.286989 0.144486
H62   H     H_    0.843296 0.323440 0.124038 0.151149
H63   H     H_    0.421037 0.253972 0.286915 0.144468
H64   H     H_    0.156710 0.676598 0.124010 0.151132
N1    N     N_R   0.425360 0.368540 0.922560 -0.047071
N2    N     N_R   0.631460 0.425360 0.922560 -0.049567
N3    N     N_R   0.574640 0.631460 0.922560 -0.047112
N4    N     N_R   0.368540 0.574640 0.922560 -0.049573
N5    N     N_R   0.425360 0.631460 0.077440 -0.049573
N6    N     N_R   0.631460 0.574640 0.077440 -0.047071
N7    N     N_R   0.574640 0.368540 0.077440 -0.049568
N8    N     N_R   0.368540 0.425360 0.077440 -0.047105
N9    N     N_R   0.925360 0.868540 0.422560 -0.049572
N10   N     N_R   0.131460 0.925360 0.422560 -0.047081
N11   N     N_R   0.074640 0.131460 0.422560 -0.049561
N12   N     N_R   0.868540 0.074640 0.422560 -0.047108
N13   N     N_R   0.925360 0.131460 0.577440 -0.047109
N14   N     N_R   0.131460 0.074640 0.577440 -0.049573
N15   N     N_R   0.074640 0.868540 0.577440 -0.047080
N16   N     N_R   0.868540 0.925360 0.577440 -0.049560
N17   N     N_R   0.425340 0.631500 0.922560 -0.053268
N18   N     N_R   0.368500 0.425340 0.922560 -0.046022
N19   N     N_R   0.574660 0.368500 0.922560 -0.053267
N20   N     N_R   0.631500 0.574660 0.922560 -0.046036
N21   N     N_R   0.425340 0.368500 0.077440 -0.046032
N22   N     N_R   0.368500 0.574660 0.077440 -0.053269
N23   N     N_R   0.574660 0.631500 0.077440 -0.046022
N24   N     N_R   0.631500 0.425340 0.077440 -0.053268
N25   N     N_R   0.925340 0.131500 0.422560 -0.046033
N26   N     N_R   0.868500 0.925340 0.422560 -0.053267
N27   N     N_R   0.074660 0.868500 0.422560 -0.046026
N28   N     N_R   0.131500 0.074660 0.422560 -0.053266
N29   N     N_R   0.925340 0.868500 0.577440 -0.053266
N30   N     N_R   0.868500 0.074660 0.577440 -0.046034
N31   N     N_R   0.074660 0.131500 0.577440 -0.053268
N32   N     N_R   0.131500 0.925340 0.577440 -0.046026
Ni1   Ni    Ni4+2 0.500000 0.369720 0.000000 0.255438
Ni2   Ni    Ni4+2 0.630280 0.500000 0.000000 0.255434
Ni3   Ni    Ni4+2 0.500000 0.630280 0.000000 0.255462
Ni4   Ni    Ni4+2 0.369720 0.500000 0.000000 0.255468
Ni5   Ni    Ni4+2 1.000000 0.869720 0.500000 0.255464
Ni6   Ni    Ni4+2 0.130280 0.000000 0.500000 0.255465
Ni7   Ni    Ni4+2 0.000000 0.130280 0.500000 0.255435
Ni8   Ni    Ni4+2 0.869720 0.000000 0.500000 0.255432
Cl1   Cl    Cl    0.841313 0.333034 0.649920 -0.591569
Cl2   Cl    Cl    0.587910 0.914838 0.634273 -0.545339
Cl3   Cl    Cl    0.158891 0.667047 0.649782 -0.591338
Cl4   Cl    Cl    0.411923 0.084936 0.634626 -0.545551
Cl5   Cl    Cl    0.915063 0.588077 0.365374 -0.545546
Cl6   Cl    Cl    0.666973 0.158707 0.350093 -0.591564
Cl7   Cl    Cl    0.085148 0.412079 0.365716 -0.545347
Cl8   Cl    Cl    0.332955 0.841111 0.350215 -0.591339
Cl9   Cl    Cl    0.414961 0.911994 0.134474 -0.545478
Cl10  Cl    Cl    0.166958 0.341268 0.149870 -0.591355
Cl11  Cl    Cl    0.585209 0.087932 0.134252 -0.545437
Cl12  Cl    Cl    0.832907 0.659003 0.149709 -0.591353
Cl13  Cl    Cl    0.340996 0.167093 0.850291 -0.591350
Cl14  Cl    Cl    0.088008 0.585036 0.865522 -0.545485
Cl15  Cl    Cl    0.658732 0.833047 0.850122 -0.591366
Cl16  Cl    Cl    0.912077 0.414774 0.865771 -0.545437

loop_
_geom_bond_atom_site_label_1
_geom_bond_atom_site_label_2
_ccdc_geom_bond_type
C31   C66   S    
C32   Cl16  S    
N21   Ni1   S    
C67   C83   A    
C57   C92   S    
N28   Ni6   S    
C19   C78   S    
C106  H58   S    
N16   N29   A    
C28   C69   S    
C28   H28   S    
C7    C55   A    
C28   Cl12  S    
C47   C62   A    
C2    C50   A    
C8    N8    A    
N12   Ni8   S    
C61   C96   S    
C69   C85   A    
C107  H59   S    
C26   Cl10  S    
C33   C52   A    
C103  H55   S    
C66   C79   A    
C48   H48   S    
C21   C76   S    
N2    Ni2   S    
C41   C60   A    
C105  H57   S    
C20   C77   S    
C22   H22   S    
C111  H63   S    
C49   C84   S    
C5    C53   A    
C10   C58   A    
C4    N4    A    
N19   Ni1   S    
C9    N9    A    
C109  H61   S    
C24   C73   S    
N17   Ni3   S    
C39   C54   A    
C104  H56   S    
C99   H51   S    
C44   C59   A    
C46   H46   S    
C39   H39   S    
N12   N25   A    
N6    Ni2   S    
C13   N13   A    
C40   H40   S    
C69   C76   A    
C23   C26   S    
N1    Ni1   S    
N4    Ni4   S    
C3    N3    A    
N25   Ni7   S    
C15   N15   A    
N13   Ni7   S    
C43   C58   A    
C72   C88   A    
C37   C56   A    
C1    N1    A    
C36   H36   S    
C83   C107  A    
C18   C79   S    
C29   Cl13  S    
C31   Cl15  S    
N27   Ni5   S    
C9    H9    S    
C38   N22   A    
N8    Ni4   S    
C37   N21   A    
C80   C96   A    
N22   Ni4   S    
C9    C57   A    
C30   C67   S    
C35   N19   A    
C20   C29   S    
N20   Ni2   S    
C34   N18   A    
C101  C108  A    
C110  H62   S    
C42   H42   S    
N29   Ni5   S    
C100  C109  A    
C102  H54   S    
C65   C80   A    
C15   H15   S    
C26   C71   S    
C20   Cl4   S    
C12   N12   A    
C8    C56   A    
C67   C78   A    
C1    H1    S    
C22   C75   S    
C6    C54   A    
C11   C59   A    
N5    N22   A    
C42   C57   A    
C5    N5    A    
C104  C105  A    
C98   H50   S    
C95   C103  A    
C4    C52   A    
C41   H41   S    
N3    N20   A    
C24   Cl8   S    
C19   H19   S    
C47   N31   A    
N11   Ni7   S    
C32   H32   S    
N1    N18   A    
C46   C61   A    
C17   H17   S    
C44   H44   S    
C7    H7    S    
C14   N14   A    
C45   H45   S    
C24   C25   S    
C43   H43   S    
C81   C105  A    
C93   C101  A    
C7    N7    A    
C97   C112  A    
C3    C51   A    
N3    Ni3   S    
C47   H47   S    
C40   N24   A    
C10   H10   S    
C99   C110  A    
N18   Ni4   S    
N11   N28   A    
C17   C80   S    
N24   Ni2   S    
C48   C63   A    
C89   C97   A    
C59   C90   S    
C12   C60   A    
N9    N26   A    
C20   H20   S    
C52   C83   S    
C25   H25   S    
C36   N20   A    
C79   C95   A    
C66   C82   A    
C29   C68   S    
C22   Cl6   S    
C65   C81   A    
C12   H12   S    
C38   H38   S    
N13   N30   A    
C40   C55   A    
C29   H29   S    
C48   N32   A    
C35   C50   A    
N31   Ni7   S    
C13   C61   A    
C102  C107  A    
C100  H52   S    
C25   C72   S    
C35   H35   S    
C90   C98   A    
C101  H53   S    
N14   Ni6   S    
C51   C82   S    
C71   C74   A    
C36   C51   A    
C21   Cl5   S    
C76   C92   A    
C71   C87   A    
C112  H64   S    
C21   C28   S    
C23   Cl7   S    
C53   C88   S    
C97   H49   S    
C22   C27   S    
C108  H60   S    
C43   N27   A    
C11   N11   A    
C42   N26   A    
C19   Cl3   S    
C23   C74   S    
C41   N25   A    
C70   C86   A    
C21   H21   S    
C17   Cl1   S    
C92   C100  A    
C50   C81   S    
C60   C91   S    
N30   Ni8   S    
C68   C77   A    
C46   N30   A    
C8    H8    S    
C39   N23   A    
C16   N16   A    
C34   C49   A    
C45   N29   A    
C98   C111  A    
C16   H16   S    
C86   C110  A    
C68   C84   A    
C4    H4    S    
C11   H11   S    
N6    N23   A    
C26   H26   S    
C64   C95   S    
N32   Ni6   S    
C72   C73   A    
C56   C87   S    
C14   H14   S    
C24   H24   S    
C54   C85   S    
C75   C91   A    
N7    Ni1   S    
C2    N2    A    
N2    N19   A    
C45   C64   A    
C85   C109  A    
N7    N24   A    
C30   H30   S    
C23   H23   S    
N5    Ni3   S    
C91   C99   A    
C30   Cl14  S    
C55   C86   S    
C96   C104  A    
C37   H37   S    
C73   C89   A    
C3    H3    S    
N15   Ni5   S    
C2    H2    S    
C27   Cl11  S    
C38   C53   A    
C78   C94   A    
C74   C90   A    
N10   Ni6   S    
C77   C93   A    
C10   N10   A    
N9    Ni5   S    
N10   N27   A    
C103  C106  A    
N23   Ni3   S    
N15   N32   A    
C82   C106  A    
C31   H31   S    
C58   C89   S    
C27   H27   S    
C6    N6    A    
C18   H18   S    
C33   N17   A    
C88   C112  A    
C18   Cl2   S    
N14   N31   A    
C84   C108  A    
C87   C111  A    
C94   C102  A    
N8    N21   A    
C63   C94   S    
C62   C93   S    
C5    H5    S    
C70   C75   A    
C44   N28   A    
C17   C32   S    
C15   C63   A    
C34   H34   S    
C18   C31   S    
C16   C64   A    
N26   Ni8   S    
C19   C30   S    
C1    C49   A    
C13   H13   S    
N16   Ni8   S    
N4    N17   A    
C33   H33   S    
C27   C70   S    
C6    H6    S    
C32   C65   S    
C25   Cl9   S    
C14   C62   A    
