data_mof_unit_44949.cif
_audit_creation_date              2013-03-05T15:58:28-0500
_audit_creation_method            fapswitch 2.2
_symmetry_space_group_name_H-M    P1
_symmetry_Int_Tables_number       1
_space_group_crystal_system       triclinic
_cell_length_a                    11.547047
_cell_length_b                    12.640649
_cell_length_c                    13.124919
_cell_angle_alpha                 82.22993
_cell_angle_beta                  90.597758
_cell_angle_gamma                 102.542191
_cell_volume                      1852.50081166

loop_
_atom_site_label
_atom_site_type_symbol
_atom_site_description
_atom_site_fract_x
_atom_site_fract_y
_atom_site_fract_z
_atom_type_partial_charge
O1    O     O_R   0.471500 0.366730 0.627160 -0.568390
O2    O     O_R   0.509620 0.544830 0.662520 -0.615131
C1    C     C_R   0.483697 0.438358 0.691651 0.949773
O3    O     O_R   0.646490 0.410960 0.482310 -0.611410
O4    O     O_R   0.684610 0.589050 0.517670 -0.618110
C2    C     C_R   0.717781 0.500942 0.500240 0.893439
Zn1   Zn    Zn3+2 0.474550 0.381080 0.476390 1.054511
Zn2   Zn    Zn3+2 0.525450 0.618920 0.523610 0.990598
O5    O     O_R   0.490380 0.455170 0.337480 -0.585287
O6    O     O_R   0.528500 0.633270 0.372840 -0.650049
O7    O     O_R   0.315390 0.410950 0.482330 -0.574023
O8    O     O_R   0.353510 0.589040 0.517690 -0.591466
C3    C     C_R   0.517847 0.561348 0.308104 0.878024
C4    C     C_R   0.282322 0.499397 0.498779 0.949805
C5    C     C_1   0.838908 0.502639 0.500019 -0.116382
C6    C     C_1   0.940995 0.501689 0.499242 0.069981
C7    C     C_1   0.059301 0.499330 0.498245 0.113564
C8    C     C_1   0.161310 0.498113 0.497947 -0.004912
C9    C     C_R   0.495552 0.724001 0.047134 0.329435
C10   C     C_R   0.523341 0.597010 0.196462 -0.172413
C11   C     C_R   0.490313 0.294123 0.841963 0.226393
C12   C     C_R   0.484177 0.260939 0.948636 0.273851
C13   C     C_R   0.467445 0.334881 0.013813 -0.234211
C14   C     C_R   0.456448 0.442067 0.974579 0.044612
C15   C     C_R   0.434165 0.464800 0.869891 -0.082874
C16   C     C_R   0.471746 0.528634 0.034741 0.059652
C17   C     C_R   0.455657 0.633588 0.991740 -0.159799
C18   C     C_R   0.401368 0.643971 0.894790 0.194546
C19   C     C_R   0.382832 0.555680 0.836719 0.244606
C20   C     C_R   0.509572 0.514387 0.135189 -0.151231
C21   C     C_R   0.533694 0.705743 0.149848 0.099241
C22   C     C_R   0.465439 0.396941 0.801974 -0.222432
H1    H     H_    0.528614 0.437965 0.168958 0.179503
H2    H     H_    0.465848 0.306482 0.094989 0.201487
C23   C     C_R   0.312808 0.081346 0.368517 -0.213515
H3    H     H_    0.235308 0.057696 0.323012 0.229070
N1    N     N_R   0.440320 0.222190 0.444690 -0.170477
C24   C     C_R   0.643042 0.800246 0.626323 -0.039477
C25   C     C_R   0.675152 0.905334 0.654188 0.276027
C26   C     C_R   0.619163 0.986007 0.605921 -0.163959
C27   C     C_R   0.532242 0.961831 0.530781 -0.014309
C28   C     C_R   0.502655 0.853513 0.507411 0.186543
C29   C     C_R   0.472965 0.040278 0.478932 -0.012233
C30   C     C_R   0.378396 0.006310 0.411621 -0.014671
C31   C     C_R   0.350255 0.897805 0.390104 0.253048
C32   C     C_R   0.415679 0.824773 0.435430 -0.232946
C33   C     C_R   0.503065 0.151705 0.491842 -0.027866
C34   C     C_R   0.345430 0.189350 0.385230 0.425911
N2    N     N_R   0.559060 0.776980 0.554780 -0.136409
H4    H     H_    0.575050 0.185018 0.538829 0.180047
H5    H     H_    0.684601 0.735910 0.661646 0.181586
H6    H     H_    0.643646 0.065944 0.629633 0.213764
H7    H     H_    0.399826 0.746688 0.409400 0.227293
N3    N     N_2   0.604833 0.793010 0.196488 -0.306065
H8    H     H_    0.663299 0.773026 0.251934 0.250764
C35   C     C_3   0.558507 0.888209 0.207884 -0.533550
H9    H     H_    0.582520 0.914668 0.283975 0.187783
H10   H     H_    0.460728 0.870488 0.201513 0.275720
H11   H     H_    0.599358 0.956577 0.148233 0.302228
N4    N     N_R   0.258530 0.860343 0.319909 0.202511
O9    O     O_R   0.190803 0.763069 0.340600 -0.371716
O10   O     O_R   0.256142 0.913853 0.228214 -0.317393
N5    N     N_R   0.763618 0.929830 0.730764 0.250044
O11   O     O_R   0.814892 0.854260 0.775481 -0.319700
O12   O     O_R   0.793412 0.027706 0.756914 -0.263644
N6    N     N_R   0.354613 0.738353 0.860249 0.269838
O13   O     O_R   0.406711 0.810078 0.784963 -0.284801
O14   O     O_R   0.256202 0.749536 0.900447 -0.251145
N7    N     N_R   0.511933 0.833632 0.995771 0.227572
O15   O     O_R   0.602986 0.874188 0.934315 -0.266342
O16   O     O_R   0.432353 0.890541 0.005348 -0.239239
N8    N     N_R   0.522957 0.224119 0.775221 0.237305
O17   O     O_R   0.452502 0.130693 0.765679 -0.280522
O18   O     O_R   0.628042 0.248900 0.732053 -0.375953
N9    N     N_R   0.504879 0.156205 0.992627 0.247507
O19   O     O_R   0.586208 0.115735 0.953766 -0.243086
O20   O     O_R   0.454367 0.108303 0.079987 -0.343003
N10   N     N_R   0.298236 0.549172 0.754683 0.217603
O21   O     O_R   0.233127 0.454518 0.740794 -0.392278
O22   O     O_R   0.275906 0.636667 0.701232 -0.306809
N11   N     N_R   0.275996 0.264131 0.341754 0.227108
O23   O     O_R   0.167044 0.250694 0.374265 -0.359623
O24   O     O_R   0.307156 0.321203 0.252532 -0.383445

loop_
_geom_bond_atom_site_label_1
_geom_bond_atom_site_label_2
_geom_bond_distance
_ccdc_geom_bond_type
N6    O14   1.300807 A    
N5    O12   1.301680 A    
C31   N4    1.440357 S    
C27   C28   1.412011 A    
C4    C8    1.393835 S    
C23   H3    1.080677 S    
C29   C30   1.426920 A    
C9    C21   1.418552 A    
N11   O23   1.300947 A    
C24   N2    1.356626 A    
C10   C20   1.383888 A    
C31   C32   1.386317 A    
C35   H9    1.109224 S    
Zn1   O7    1.959229 S    
C16   C17   1.419699 A    
C18   C19   1.412509 A    
C14   C16   1.413825 A    
O4    C2    1.302098 A    
O7    C4    1.301844 A    
N10   O22   1.300832 A    
C5    C6    1.181632 T    
C34   N11   1.426796 S    
N4    O10   1.301523 A    
C28   C32   1.395604 A    
N7    O16   1.300625 A    
O5    C3    1.314683 A    
C2    C5    1.394188 S    
C19   N10   1.444771 S    
C6    C7    1.373105 S    
C13   C14   1.414838 A    
N1    C33   1.350443 A    
C9    C17   1.426885 A    
C20   H1    1.073516 S    
C15   C22   1.417331 A    
N6    O13   1.301371 A    
C11   C12   1.404117 A    
C27   C29   1.420393 A    
N7    O15   1.300249 A    
C12   N9    1.439138 S    
O3    Zn1   1.941529 S    
C23   C34   1.381949 A    
N11   O24   1.299554 A    
C33   H4    1.075196 S    
C15   C19   1.419759 A    
C11   C22   1.421852 A    
N3    C35   1.444494 S    
C11   N8    1.433124 S    
C14   C15   1.398097 A    
N8    O18   1.301067 A    
C25   C26   1.400820 A    
N10   O21   1.302115 A    
C24   H5    1.081421 S    
C26   H6    1.075603 S    
N4    O9    1.301445 A    
O1    C1    1.305932 A    
C18   N6    1.431338 S    
N9    O19   1.301139 A    
Zn2   O8    1.941530 S    
C13   H2    1.076315 S    
C7    C8    1.181395 T    
Zn1   N1    2.059377 S    
N1    C34   1.361667 A    
C23   C30   1.396871 A    
N9    O20   1.301668 A    
O3    C2    1.299408 A    
C26   C27   1.414569 A    
O8    C4    1.299452 A    
C16   C20   1.385371 A    
C9    N7    1.430707 S    
C30   C31   1.405635 A    
Zn1   O5    1.924949 S    
N3    H8    1.031150 S    
C3    C10   1.471480 S    
O1    Zn1   1.962548 S    
O2    Zn2   1.924949 S    
N8    O17   1.301076 A    
O6    C3    1.312125 A    
O4    Zn2   1.959230 S    
C25   N5    1.440432 S    
C35   H11   1.109060 S    
O2    C1    1.317361 A    
C24   C25   1.396592 A    
C32   H7    1.065780 S    
C35   H10   1.106884 S    
C21   N3    1.429995 S    
C1    C22   1.472624 S    
C28   N2    1.359860 A    
N5    O11   1.301657 A    
Zn2   O6    1.962546 S    
C17   C18   1.415380 A    
C12   C13   1.393127 A    
C29   C33   1.408574 A    
Zn2   N2    2.047155 S    
C10   C21   1.407301 A    
