data_mof_unit_26771.cif
_audit_creation_date              2013-03-05T16:11:15-0500
_audit_creation_method            fapswitch 2.2
_symmetry_space_group_name_H-M    P1
_symmetry_Int_Tables_number       1
_space_group_crystal_system       triclinic
_cell_length_a                    6.9539
_cell_length_b                    20.538731
_cell_length_c                    24.495918
_cell_angle_alpha                 90.12733
_cell_angle_beta                  90.35628
_cell_angle_gamma                 89.40561
_cell_volume                      3498.34784558

loop_
_atom_site_label
_atom_site_type_symbol
_atom_site_description
_atom_site_fract_x
_atom_site_fract_y
_atom_site_fract_z
_atom_type_partial_charge
O1    O     O_R   0.507280 0.423750 0.460310 -0.577286
O2    O     O_R   0.171030 0.555650 0.437630 -0.581198
O3    O     O_R   0.004080 0.576250 0.539690 -0.601886
C1    C     C_R   0.339124 0.575664 0.421793 0.998981
O4    O     O_R   0.177330 0.422980 0.453960 -0.594888
O5    O     O_R   0.010420 0.442640 0.556140 -0.592500
C2    C     C_R   0.346522 0.398903 0.443561 1.106586
O6    O     O_R   0.500930 0.557360 0.443860 -0.587662
O7    O     O_3   0.340310 0.506600 0.533500 -0.287282
V1    V     V_3+5 0.064140 0.498780 0.493780 1.216883
O8    O     O_R   0.680890 0.444350 0.562370 -0.590023
C3    C     C_R   0.850543 0.424396 0.578101 0.977985
O9    O     O_R   0.674590 0.577020 0.546040 -0.591421
C4    C     C_R   0.842461 0.600877 0.556882 0.966613
V2    V     V_3+5 0.564550 0.501220 0.506220 1.214940
O10   O     O_3   0.838250 0.493400 0.466500 -0.255545
C5    C     C_R   0.973689 0.837665 0.911663 -0.427277
C6    C     C_R   0.844667 0.661477 0.589433 -0.181485
C7    C     C_R   0.994858 0.720175 0.910194 0.774596
C8    C     C_R   0.005526 0.778859 0.938550 0.581028
C9    C     C_R   0.936119 0.837593 0.855300 -0.269165
C10   C     C_R   0.923553 0.778327 0.824875 0.008324
C11   C     C_R   0.951395 0.718869 0.853544 -0.341239
C12   C     C_R   0.882615 0.776503 0.767350 0.070873
C13   C     C_R   0.883919 0.715757 0.738124 -0.042316
C14   C     C_R   0.896300 0.657179 0.769017 0.295822
C15   C     C_R   0.925983 0.659094 0.826311 0.475554
C16   C     C_R   0.834577 0.833748 0.738374 -0.179977
C17   C     C_R   0.791719 0.832623 0.683135 -0.146367
C18   C     C_R   0.804519 0.775086 0.652914 0.035888
C19   C     C_R   0.861249 0.716174 0.679237 0.103499
C20   C     C_R   0.760618 0.776237 0.596476 0.545604
C21   C     C_R   0.775277 0.718708 0.565776 -0.335942
C22   C     C_R   0.894797 0.660891 0.645052 -0.161904
H1    H     H_    0.962649 0.616941 0.659725 0.180599
H2    H     H_    0.734475 0.718631 0.522989 0.125023
H3    H     H_    0.750415 0.878159 0.663892 0.195884
H4    H     H_    0.920149 0.884771 0.836673 0.141297
H5    H     H_    0.820873 0.880698 0.757572 0.134915
C23   C     C_R   0.742293 0.287353 0.742823 -0.254742
H6    H     H_    0.611585 0.315923 0.737502 0.215383
C24   C     C_R   0.894084 0.294962 0.706203 -0.191060
C25   C     C_R   0.062761 0.257775 0.713319 0.600364
C26   C     C_R   0.079869 0.212775 0.756993 0.373534
C27   C     C_R   0.926390 0.205406 0.793868 -0.219392
C28   C     C_R   0.755760 0.243373 0.786558 0.483683
C29   C     C_1   0.876247 0.341037 0.661237 0.247427
C30   C     C_1   0.946563 0.158990 0.838798 0.196008
C31   C     C_1   0.960916 0.120681 0.876417 -0.286916
C32   C     C_1   0.863049 0.379243 0.623526 -0.269851
H7    H     H_    0.678837 0.729516 0.316532 0.187717
C33   C     C_R   0.589178 0.783530 0.244438 0.597301
C34   C     C_R   0.438355 0.795166 0.206868 -0.051032
C35   C     C_R   0.264254 0.761883 0.213147 -0.369650
H8    H     H_    0.146921 0.770341 0.184641 0.225186
C36   C     C_R   0.239383 0.717450 0.256079 0.791425
C37   C     C_R   0.388699 0.705448 0.293732 -0.109688
C38   C     C_R   0.563035 0.738616 0.287641 -0.373385
C39   C     C_1   0.460385 0.841181 0.161807 0.212018
C40   C     C_1   0.364780 0.659275 0.338537 0.190147
C41   C     C_1   0.349227 0.620997 0.376204 -0.259846
C42   C     C_1   0.475164 0.879314 0.124011 -0.239804
C43   C     C_R   0.467584 0.159255 0.092114 -0.348389
C44   C     C_R   0.354345 0.336021 0.414151 -0.573752
C45   C     C_R   0.462527 0.276848 0.096494 0.969885
C46   C     C_R   0.491829 0.219567 0.067328 -0.410046
C47   C     C_R   0.427312 0.156016 0.149018 0.525147
C48   C     C_R   0.423263 0.214770 0.180938 -0.080931
C49   C     C_R   0.420794 0.275071 0.152692 -0.436035
C50   C     C_R   0.415178 0.216255 0.239651 -0.023279
C51   C     C_R   0.372547 0.275726 0.267825 -0.036407
C52   C     C_R   0.320755 0.330935 0.236136 0.407301
C53   C     C_R   0.364282 0.332115 0.180160 0.680166
C54   C     C_R   0.455239 0.160654 0.271237 -0.149981
C55   C     C_R   0.420910 0.159045 0.326999 0.561621
C56   C     C_R   0.379420 0.217181 0.356003 -0.266201
C57   C     C_R   0.374131 0.277014 0.326715 -0.148082
C58   C     C_R   0.355673 0.217156 0.413686 0.540958
C59   C     C_R   0.333128 0.276600 0.442342 0.293627
C60   C     C_R   0.383413 0.335715 0.357541 0.800462
H9    H     H_    0.523194 0.222324 0.024103 0.185127
H10   H     H_    0.514832 0.116789 0.253745 0.209761
O11   O     O_R   0.323320 0.942780 0.056240 -0.577843
O12   O     O_R   0.647300 0.077050 0.046060 -0.590323
O13   O     O_R   0.813840 0.057330 0.943840 -0.597766
C61   C     C_R   0.478034 0.100801 0.056963 0.981291
O14   O     O_R   0.653250 0.944380 0.062400 -0.577386
O15   O     O_R   0.819830 0.923720 0.960300 -0.591735
C62   C     C_R   0.485134 0.924479 0.078310 0.977901
O16   O     O_R   0.317330 0.076390 0.039790 -0.588729
O17   O     O_3   0.483830 0.993470 0.966560 -0.279106
V3    V     V_3+5 0.760140 0.001210 0.006210 1.212220
O18   O     O_R   0.149290 0.922840 0.953850 -0.587252
C63   C     C_R   0.980992 0.899131 0.942972 1.095012
O19   O     O_R   0.143340 0.055500 0.937510 -0.586594
C64   C     C_R   0.973677 0.075490 0.921810 0.961848
V4    V     V_3+5 0.259690 0.998600 0.993650 1.216096
O20   O     O_3   0.986130 0.006520 0.033440 -0.268064
O21   O     O_3   0.922886 0.602629 0.856927 -0.634016
H11   H     H_    0.828344 0.572365 0.840684 0.345784
O22   O     O_3   0.699877 0.833782 0.572380 -0.752336
H12   H     H_    0.675444 0.826134 0.532962 0.326232
O23   O     O_3   0.598869 0.239656 0.820756 -0.691158
H13   H     H_    0.623008 0.206958 0.849610 0.329621
F1    F     F_    0.210012 0.265370 0.677733 -0.686265
O24   O     O_3   0.244284 0.175380 0.764617 -0.696915
H14   H     H_    0.338803 0.185706 0.735903 0.374988
O25   O     O_3   0.759883 0.816400 0.238282 -0.735034
H15   H     H_    0.849442 0.803361 0.268054 0.334351
F2    F     F_    0.069411 0.686103 0.260770 -0.674515
F3    F     F_    0.337379 0.388377 0.151821 -0.589931
F4    F     F_    0.441050 0.392207 0.334291 -0.649934
O26   O     O_3   0.298808 0.274167 0.497998 -0.721083
H16   H     H_    0.280095 0.318311 0.513326 0.329867
O27   O     O_3   0.442700 0.099916 0.352513 -0.683985
H17   H     H_    0.311431 0.087137 0.363609 0.355990
F5    F     F_    0.474027 0.334092 0.069116 -0.586314
O28   O     O_3   0.372115 0.098082 0.172735 -0.768419
H18   H     H_    0.391686 0.061066 0.147459 0.297711
O29   O     O_3   0.212948 0.380621 0.259385 -0.662871
H19   H     H_    0.178541 0.413727 0.231562 0.388594
O30   O     O_3   0.355044 0.158350 0.441252 -0.699706
H20   H     H_    0.348281 0.165277 0.481162 0.382374
F6    F     F_    0.028373 0.664662 0.938905 -0.556649
F7    F     F_    0.045422 0.778237 0.992908 -0.638248
O31   O     O_3   0.860656 0.598221 0.744212 -0.770961
H21   H     H_    0.950161 0.565253 0.759917 0.331954

loop_
_geom_bond_atom_site_label_1
_geom_bond_atom_site_label_2
_geom_bond_distance
_ccdc_geom_bond_type
C13   C19   1.450120 A    
O22   H12   0.991823 S    
O19   C64   1.301322 A    
C4    C6    1.476836 S    
O2    C1    1.304659 A    
C7    C8    1.392186 A    
C1    O6    1.297744 A    
C21   H2    1.084134 S    
V4    O20   2.147372 S    
C34   C39   1.464515 S    
V3    O20   1.707824 S    
C27   C28   1.423656 A    
C36   C37   1.404774 A    
C23   C28   1.404919 A    
C15   O21   1.382908 S    
C14   C15   1.417809 A    
O31   H21   0.991632 S    
C59   O26   1.386641 S    
C16   C17   1.383942 A    
C56   C58   1.423653 A    
O5    C3    1.297233 A    
C18   C19   1.423321 A    
O13   C64   1.297188 A    
C27   C30   1.462806 S    
O24   H14   0.990465 S    
O27   H17   0.992169 S    
C42   C62   1.457896 S    
C5    C8    1.392030 A    
O25   H15   0.991565 S    
C22   H1    1.075712 S    
C25   F1    1.359321 S    
O28   H18   0.988286 S    
O8    V2    1.970880 S    
C9    H4    1.076361 S    
O15   V3    1.988517 S    
C48   C49   1.419928 A    
C50   C54   1.405343 A    
C49   C53   1.403592 A    
C50   C51   1.430883 A    
O1    V2    1.988637 S    
C11   C15   1.408155 A    
O7    V1    2.154788 S    
O16   V4    1.997601 S    
C23   C24   1.399674 A    
C43   C46   1.393004 A    
O9    C4    1.296449 A    
C44   C60   1.402595 A    
C60   F4    1.358909 S    
C54   H10   1.076928 S    
C36   F2    1.357417 S    
O17   V4    1.699995 S    
O13   V3    1.956034 S    
C53   F3    1.360022 S    
C29   C32   1.215834 T    
C35   C36   1.406610 A    
C10   C11   1.420978 A    
O11   C62   1.297798 A    
C43   C47   1.425312 A    
C7    F6    1.358297 S    
C54   C55   1.388631 A    
C47   C48   1.436565 A    
C12   C13   1.437038 A    
C61   O16   1.296929 A    
O17   V3    2.154754 S    
O4    C2    1.297987 A    
C58   C59   1.414733 A    
C37   C40   1.463471 S    
C16   H5    1.075530 S    
C13   C14   1.424332 A    
C34   C35   1.405939 A    
C1    C41   1.458035 S    
C5    C9    1.403570 A    
C40   C41   1.219588 T    
C7    C11   1.418653 A    
C55   C56   1.416108 A    
C17   C18   1.395414 A    
O21   H11   0.990457 S    
C52   O29   1.383693 S    
C19   C22   1.427463 A    
H7    C38   1.083794 S    
C33   C34   1.409911 A    
C56   C57   1.424389 A    
C6    C22   1.404271 A    
O3    C4    1.299787 A    
C33   C38   1.419245 A    
C23   H6    1.084103 S    
C47   O28   1.384205 S    
O6    V2    1.961513 S    
O9    V2    1.992342 S    
C43   C61   1.477310 S    
C44   C59   1.413108 A    
C10   C12   1.436354 A    
C55   O27   1.373621 S    
C24   C25   1.403221 A    
O2    V1    1.961259 S    
O18   V4    1.992432 S    
C51   C57   1.442717 A    
O14   V3    1.961453 S    
O29   H19   0.990350 S    
O26   H16   0.988223 S    
C28   O23   1.382476 S    
C57   C60   1.422998 A    
C35   H8    1.083512 S    
C30   C31   1.216018 T    
C39   C42   1.219533 T    
C45   F5    1.358165 S    
O1    C2    1.297557 A    
C26   C27   1.412041 A    
C12   C16   1.410803 A    
O12   C61   1.298527 A    
C52   C53   1.406344 A    
O5    V1    1.956112 S    
C3    C32   1.451696 S    
O8    C3    1.301268 A    
O19   V4    1.971099 S    
C26   O24   1.382653 S    
O18   C63   1.298136 A    
C20   C21   1.402349 A    
O14   C62   1.304584 A    
O7    V2    1.702755 S    
C8    F7    1.358503 S    
O3    V1    1.988715 S    
V1    O10   1.707762 S    
C46   H9    1.084123 S    
C18   C20   1.414163 A    
C37   C38   1.405662 A    
C25   C26   1.418959 A    
C45   C49   1.409260 A    
C24   C29   1.457612 S    
C31   C64   1.451703 S    
C58   O30   1.385112 S    
C6    C21   1.392148 A    
C2    C44   1.478136 S    
O4    V1    1.993015 S    
C51   C52   1.417753 A    
C33   O25   1.380917 S    
C48   C50   1.439942 A    
C45   C46   1.388948 A    
O11   V4    1.962075 S    
C17   H3    1.083559 S    
O23   H13   0.988480 S    
O15   C63   1.297844 A    
C14   O31   1.377688 S    
C20   O22   1.383233 S    
C5    C63   1.476858 S    
O12   V3    1.993067 S    
O30   H20   0.988959 S    
C9    C10   1.429035 A    
V2    O10   2.147313 S    
