data_mof_unit_44427.cif
_audit_creation_date              2012-12-10T20:46:18-0500
_audit_creation_method            fapswitch 2.2
_symmetry_space_group_name_H-M    P1
_symmetry_Int_Tables_number       1
_space_group_crystal_system       triclinic
_cell_length_a                    8.606329
_cell_length_b                    8.921539
_cell_length_c                    8.120503
_cell_angle_alpha                 90.264447
_cell_angle_beta                  98.035939
_cell_angle_gamma                 89.983686
_cell_volume                      617.37693756

loop_
_atom_site_label
_atom_site_type_symbol
_atom_type_description
_atom_site_fract_x
_atom_site_fract_y
_atom_site_fract_z
_atom_type_partial_charge
C1    C     C_R   0.498917 0.218059 0.499586 0.910254
C2    C     C_3   0.073161 0.729741 0.091983 -0.375178
C3    C     C_3   0.097880 0.689207 0.915007 -0.858633
C4    C     C_3   0.026821 0.221848 0.594209 0.064034
C5    C     C_3   0.934345 0.110789 0.685487 -0.340189
C6    C     C_3   0.922126 0.957957 0.599152 -0.910687
C7    C     C_R   0.499353 0.781947 0.500142 0.935710
C8    C     C_R   0.200955 0.506091 0.457673 0.878602
C9    C     C_R   0.798972 0.497473 0.541827 0.921814
C10   C     C_2   0.037395 0.529986 0.439204 0.119836
C11   C     C_2   0.960922 0.471030 0.556895 0.187630
C12   C     C_1   0.498185 0.065219 0.499355 -0.206847
C13   C     C_1   0.498332 0.934774 0.500087 -0.196419
C14   C     C_3   0.974798 0.610946 0.165724 0.163209
H1    H     H_    0.852861 0.616864 0.099639 0.165309
H2    H     H_    0.993033 0.097518 0.815494 0.227652
H3    H     H_    0.814355 0.155180 0.689322 0.230573
H4    H     H_    0.861848 0.968435 0.469525 0.275122
H5    H     H_    0.852738 0.880755 0.667124 0.260072
H6    H     H_    0.040737 0.909499 0.597004 0.269644
H7    H     H_    0.017411 0.495737 0.141702 0.137094
H8    H     H_    0.012673 0.839902 0.091438 0.214893
H9    H     H_    0.189437 0.741292 0.169614 0.249994
H10   H     H_    0.162204 0.581410 0.913742 0.296559
H11   H     H_    0.167922 0.778022 0.864405 0.255768
H12   H     H_    0.983037 0.678987 0.834713 0.260037
H13   H     H_    0.150447 0.183008 0.603597 0.167382
H14   H     H_    0.978008 0.220667 0.459036 0.098226
N1    N     N_1   0.500020 0.500000 0.073650 -0.044964
N2    N     N_1   0.499980 0.500000 0.926350 -0.042671
O1    O     O_R   0.499990 0.285340 0.636850 -0.617708
O2    O     O_3   0.026006 0.364919 0.671500 -0.645754
O3    O     O_R   0.500010 0.714660 0.363150 -0.615066
O4    O     O_R   0.500010 0.285340 0.363150 -0.615607
O5    O     O_R   0.499990 0.714660 0.636850 -0.624670
O6    O     O_R   0.271740 0.500000 0.604850 -0.588602
O7    O     O_R   0.728260 0.500000 0.395150 -0.615685
O8    O     O_R   0.271760 0.500000 0.331110 -0.644110
O9    O     O_R   0.728240 0.500000 0.668890 -0.625906
O10   O     O_3   0.970162 0.644111 0.335672 -0.666976
Zn1   Zn    Zn3+2 0.499990 0.500000 0.682780 0.976590
Zn2   Zn    Zn3+2 0.500010 0.500000 0.317220 0.969672

loop_
_geom_bond_atom_site_label_1
_geom_bond_atom_site_label_2
_ccdc_geom_bond_type
C2    H8    S    
N2    Zn1   S    
O5    Zn1   S    
N1    N2    T    
N1    Zn2   S    
C9    C11   S    
O4    Zn2   S    
C7    C13   S    
C2    H9    S    
C9    O7    A    
C2    C3    S    
C3    H10   S    
O9    Zn1   S    
C12   C13   T    
C6    H5    S    
C7    O3    A    
O6    Zn1   S    
C4    O2    S    
C1    C12   S    
C8    O8    A    
C6    H4    S    
O3    Zn2   S    
C14   H7    S    
C10   O10   S    
C4    H14   S    
C11   O2    S    
O8    Zn2   S    
C3    H12   S    
C1    O1    A    
C5    C6    S    
C2    C14   S    
C5    H3    S    
C10   C11   D    
C14   O10   S    
C3    H11   S    
C4    H13   S    
C6    H6    S    
C1    O4    A    
C8    C10   S    
C8    O6    A    
O7    Zn2   S    
C14   H1    S    
C5    H2    S    
O1    Zn1   S    
C7    O5    A    
C9    O9    A    
C4    C5    S    
