data_mof_unit_54967.cif
_audit_creation_date              2012-12-10T16:58:26-0500
_audit_creation_method            fapswitch 2.2
_symmetry_space_group_name_H-M    P1
_symmetry_Int_Tables_number       1
_space_group_crystal_system       triclinic
_cell_length_a                    7.737283
_cell_length_b                    8.621258
_cell_length_c                    23.403868
_cell_angle_alpha                 91.094129
_cell_angle_beta                  85.923909
_cell_angle_gamma                 93.578884
_cell_volume                      1554.00341966

loop_
_atom_site_label
_atom_site_type_symbol
_atom_type_description
_atom_site_fract_x
_atom_site_fract_y
_atom_site_fract_z
_atom_type_partial_charge
C1    C     C_R   0.545445 0.794428 0.498524 0.888107
C2    C     C_R   0.454555 0.205572 0.501476 0.888107
C3    C     C_R   0.670430 0.492662 0.757004 -0.086241
C4    C     C_R   0.329561 0.507235 0.242995 -0.086230
C5    C     C_R   0.666695 0.494446 0.697789 -0.193147
C6    C     C_R   0.333298 0.505464 0.302210 -0.193151
C7    C     C_R   0.507243 0.497971 0.672784 -0.035130
C8    C     C_R   0.492756 0.502022 0.327216 -0.035127
C9    C     C_R   0.351948 0.499298 0.707627 -0.189133
C10   C     C_R   0.648055 0.500769 0.292374 -0.189140
C11   C     C_R   0.356177 0.497087 0.766711 -0.087269
C12   C     C_R   0.643825 0.502967 0.233290 -0.087259
C13   C     C_R   0.515156 0.493868 0.791259 0.292784
C14   C     C_R   0.484839 0.506100 0.208741 0.292767
C15   C     C_2   0.569870 0.956746 0.497764 0.275835
C16   C     C_2   0.430129 0.043254 0.502236 0.275836
C17   C     C_R   0.502316 0.499797 0.610665 0.862721
C18   C     C_R   0.497684 0.500203 0.389335 0.862721
C19   C     C_R   0.437410 0.370715 0.120302 0.568001
C20   C     C_R   0.562590 0.629250 0.879698 0.568002
C21   C     C_R   0.531043 0.640528 0.119646 0.555414
C22   C     C_R   0.468950 0.359438 0.880354 0.555419
C23   C     C_R   0.539524 0.641577 0.059690 -0.145071
C24   C     C_R   0.460471 0.358389 0.940309 -0.145073
C25   C     C_R   0.495638 0.501819 0.030106 -0.097332
C26   C     C_R   0.504359 0.498146 0.969893 -0.097333
C27   C     C_R   0.443317 0.365503 0.060601 -0.083744
C28   C     C_R   0.556682 0.634462 0.939398 -0.083746
C29   C     C_R   0.591629 0.776884 0.028584 0.662519
C30   C     C_R   0.408366 0.223082 0.971416 0.662518
C31   C     C_R   0.599993 0.772737 0.969027 -0.167374
C32   C     C_R   0.400005 0.227227 0.030972 -0.167372
H1    H     H_    0.640507 0.878518 0.946230 0.237545
H2    H     H_    0.359492 0.121447 0.053769 0.237546
H3    H     H_    0.793323 0.490368 0.776335 0.140493
H4    H     H_    0.206664 0.509465 0.223663 0.140500
H5    H     H_    0.788097 0.493583 0.671743 0.164130
H6    H     H_    0.211894 0.506269 0.328256 0.164121
H7    H     H_    0.227409 0.501733 0.689357 0.165899
H8    H     H_    0.772600 0.498403 0.310645 0.165898
H9    H     H_    0.236306 0.498444 0.793553 0.143097
H10   H     H_    0.763701 0.501670 0.206449 0.143102
H11   H     H_    0.014309 0.382961 0.456937 0.214900
H12   H     H_    0.985691 0.617039 0.543063 0.214902
N1    N     N_R   0.481867 0.506357 0.148138 -0.375021
N2    N     N_R   0.518130 0.493609 0.851862 -0.375024
N3    N     N_2   0.950330 0.457950 0.484560 -0.149545
N4    N     N_2   0.049670 0.542050 0.515440 -0.149545
O1    O     O_R   0.389250 0.738570 0.503790 -0.570433
O2    O     O_R   0.610750 0.261430 0.496210 -0.570434
O3    O     O_R   0.678390 0.711620 0.493890 -0.582805
O4    O     O_R   0.321610 0.288380 0.506110 -0.582806
O5    O     O_R   0.355400 0.513520 0.588790 -0.622950
O6    O     O_R   0.644600 0.486480 0.411210 -0.622949
O7    O     O_R   0.644550 0.486570 0.578900 -0.633438
O8    O     O_R   0.355450 0.513430 0.421100 -0.633436
O9    O     O_2   0.389816 0.241200 0.150479 -0.503340
O10   O     O_2   0.610190 0.758763 0.849520 -0.503339
O11   O     O_2   0.571763 0.771535 0.149547 -0.445377
O12   O     O_2   0.428221 0.228434 0.850452 -0.445375
Zn1   Zn    Zn3+2 0.306930 0.518000 0.506610 1.025863
Zn2   Zn    Zn3+2 0.693070 0.482000 0.493390 1.025863
F1    F     F_    0.635439 0.913535 0.055227 -0.610077
F2    F     F_    0.364556 0.086430 0.944772 -0.610078
F3    F     F_    0.737571 0.016890 0.492496 -0.619884
F4    F     F_    0.262429 0.983110 0.507504 -0.619884

loop_
_geom_bond_atom_site_label_1
_geom_bond_atom_site_label_2
_ccdc_geom_bond_type
C8    C18   S    
C6    C8    A    
C31   H1    S    
C21   O11   S    
C1    C15   S    
C5    H5    S    
C2    C16   S    
C25   C27   A    
C19   C27   A    
C17   O7    A    
C26   C28   A    
N3    N4    D    
C3    C13   A    
C3    H3    S    
C9    C11   A    
C22   O12   S    
N3    Zn2   S    
C19   N1    A    
C27   C32   A    
C17   O5    A    
C5    C7    A    
C29   C31   A    
C19   O9    S    
C30   C32   A    
C18   O8    A    
C11   C13   A    
C32   H2    S    
N4    Zn1   S    
O3    Zn2   S    
C2    O4    A    
C10   C12   A    
C4    C6    A    
C29   F1    S    
C22   N2    A    
C12   C14   A    
C11   H9    S    
C14   N1    S    
C21   N1    A    
O4    Zn1   S    
C23   C25   A    
C2    O2    A    
C4    C14   A    
C13   N2    S    
O2    Zn2   S    
C22   C24   A    
C24   C30   A    
C16   F4    S    
C18   O6    A    
C20   O10   S    
C15   C16   D    
C15   F3    S    
O7    Zn2   S    
C23   C29   A    
C9    H7    S    
O1    Zn1   S    
C4    H4    S    
C10   H8    S    
C30   F2    S    
C6    H6    S    
C28   C31   A    
C7    C9    A    
O8    Zn1   S    
O6    Zn2   S    
C12   H10   S    
C1    O3    A    
C20   C28   A    
C3    C5    A    
C25   C26   A    
O5    Zn1   S    
C21   C23   A    
C8    C10   A    
C20   N2    A    
H12   N4    S    
C24   C26   A    
H11   N3    S    
C7    C17   S    
C1    O1    A    
