data_mof_unit_41053.cif
_audit_creation_date              2013-03-05T16:45:26-0500
_audit_creation_method            fapswitch 2.2
_symmetry_space_group_name_H-M    P1
_symmetry_Int_Tables_number       1
_space_group_crystal_system       triclinic
_cell_length_a                    18.457299
_cell_length_b                    18.376794
_cell_length_c                    18.427729
_cell_angle_alpha                 120.090125
_cell_angle_beta                  90.294766
_cell_angle_gamma                 119.451694
_cell_volume                      4438.74952915

loop_
_atom_site_label
_atom_site_type_symbol
_atom_site_description
_atom_site_fract_x
_atom_site_fract_y
_atom_site_fract_z
_atom_type_partial_charge
Zn1   Zn    Zn3+2 0.543620 0.414150 0.457300 0.992387
Zn2   Zn    Zn3+2 0.542680 0.585840 0.456390 1.028168
Zn3   Zn    Zn3+2 0.543620 0.585850 0.629000 1.013219
Zn4   Zn    Zn3+2 0.370090 0.414160 0.457300 0.996227
O1    O     O_3   0.500000 0.500000 0.500000 -0.505950
O2    O     O_R   0.323160 0.439910 0.385120 -0.639905
O3    O     O_R   0.616440 0.439920 0.555110 -0.644867
O4    O     O_R   0.614860 0.560070 0.384480 -0.581269
O5    O     O_R   0.445540 0.560090 0.675280 -0.616586
O6    O     O_R   0.614860 0.729170 0.553580 -0.616137
O7    O     O_R   0.324090 0.270830 0.386020 -0.591248
O8    O     O_R   0.615510 0.729180 0.674390 -0.656523
O9    O     O_R   0.445540 0.270830 0.386020 -0.661682
O10   O     O_R   0.615510 0.439910 0.385120 -0.647801
O11   O     O_R   0.324090 0.439920 0.555110 -0.652520
O12   O     O_R   0.443960 0.560080 0.384480 -0.642564
O13   O     O_R   0.616440 0.560090 0.675280 -0.606301
C1    C     C_R   0.360098 0.501438 0.361323 0.789354
C2    C     C_R   0.638078 0.497999 0.639457 0.922432
C3    C     C_R   0.640387 0.500433 0.361623 0.833892
C4    C     C_R   0.361294 0.501693 0.639566 0.834366
C5    C     C_R   0.640052 0.778318 0.639128 0.798908
C6    C     C_R   0.362037 0.223704 0.359671 0.766561
C7    C     C_2   0.278464 0.945728 0.216009 0.310574
C8    C     C_2   0.189367 0.891165 0.195392 0.250815
C9    C     C_2   0.331219 0.056323 0.284808 -0.330762
C10   C     C_2   0.313287 0.118290 0.283317 0.250665
H1    H     H_    0.381765 0.085904 0.341631 0.164993
C11   C     C_2   0.756557 0.540564 0.838788 -0.229895
C12   C     C_2   0.790640 0.486165 0.806383 -0.364749
H2    H     H_    0.775692 0.594686 0.910107 0.201403
H3    H     H_    0.766385 0.425589 0.736083 0.157934
C13   C     C_2   0.688913 0.524135 0.778973 0.348027
C14   C     C_2   0.691845 0.498350 0.696631 -0.435973
H4    H     H_    0.740695 0.485862 0.672566 0.137681
C15   C     C_2   0.276386 0.556289 0.835677 -0.255592
C16   C     C_2   0.188632 0.484544 0.804400 0.359649
H5    H     H_    0.308756 0.619808 0.905686 0.174772
C17   C     C_2   0.334154 0.551741 0.781147 -0.141387
C18   C     C_2   0.305636 0.509685 0.694245 -0.263685
H6    H     H_    0.402440 0.586410 0.814377 0.199587
H7    H     H_    0.239805 0.481369 0.661034 0.205847
H8    H     H_    0.678950 0.861271 0.362149 0.145235
C19   C     C_R   0.568501 0.814106 0.408011 -0.117251
H9    H     H_    0.602290 0.885790 0.473432 0.141881
C20   C     C_R   0.481212 0.735997 0.385904 -0.073885
H10   H     H_    0.447832 0.748344 0.434533 0.137378
C21   C     C_R   0.436564 0.643250 0.300575 0.137286
C22   C     C_R   0.480177 0.630016 0.237623 -0.163300
H11   H     H_    0.446083 0.559804 0.171006 0.136297
C23   C     C_R   0.567487 0.708394 0.260009 -0.065146
H12   H     H_    0.600828 0.698112 0.211228 0.148193
C24   C     C_R   0.611545 0.800450 0.345085 -0.041404
C25   C     C_R   0.283952 0.559235 0.218216 -0.265577
H13   H     H_    0.311895 0.605138 0.192534 0.191213
C26   C     C_R   0.192537 0.498900 0.198678 -0.050231
C27   C     C_R   0.157689 0.442736 0.235786 0.095076
C28   C     C_R   0.214733 0.444745 0.287243 -0.280557
H14   H     H_    0.187012 0.400261 0.314278 0.173555
C29   C     C_R   0.305695 0.504814 0.306801 -0.055516
C30   C     C_R   0.341247 0.565883 0.274116 -0.004480
C31   C     C_R   0.046502 0.428144 0.310480 -0.353430
H15   H     H_    0.097659 0.503388 0.368858 0.175073
C32   C     C_R   0.966532 0.368758 0.317839 0.516526
C33   C     C_R   0.898995 0.274348 0.241753 -0.379372
H16   H     H_    0.836103 0.230796 0.247534 0.204852
C34   C     C_R   0.914170 0.232422 0.160483 0.224208
C35   C     C_R   0.999443 0.286911 0.156461 0.442188
C36   C     C_R   0.064505 0.387391 0.231189 -0.071619
C37   C     C_R   0.618225 0.855907 0.928590 -0.200561
H17   H     H_    0.566188 0.852020 0.956757 0.148246
C38   C     C_R   0.636942 0.895185 0.877824 -0.132812
H18   H     H_    0.600093 0.922718 0.868451 0.162676
C39   C     C_R   0.703631 0.900031 0.840218 0.171120
C40   C     C_R   0.749803 0.862505 0.851740 -0.129651
H19   H     H_    0.800944 0.865035 0.822395 0.135721
C41   C     C_R   0.731288 0.823659 0.902976 -0.153041
H20   H     H_    0.767907 0.795980 0.912495 0.150510
C42   C     C_R   0.667817 0.823705 0.944426 0.600908
C43   C     C_R   0.778929 0.055057 0.843384 -0.173102
H21   H     H_    0.801631 0.097236 0.915081 0.231458
C44   C     C_R   0.800410 0.108169 0.804369 -0.060425
C45   C     C_R   0.766381 0.051450 0.710215 0.080394
C46   C     C_R   0.716948 0.944588 0.658432 -0.184733
H22   H     H_    0.692177 0.902603 0.586759 0.168891
C47   C     C_R   0.696283 0.891556 0.697620 -0.075402
C48   C     C_R   0.726880 0.948157 0.791834 -0.006482
C49   C     C_R   0.704054 0.103923 0.637872 0.248820
C50   C     C_R   0.713443 0.147645 0.591176 -0.282853
H23   H     H_    0.661448 0.152661 0.571850 0.200632
C51   C     C_R   0.790721 0.188575 0.571601 0.502822
C52   C     C_R   0.858129 0.181234 0.594580 -0.223548
H24   H     H_    0.917219 0.210512 0.577706 0.154688
C53   C     C_R   0.849375 0.136317 0.639559 -0.220232
H25   H     H_    0.902077 0.131259 0.656980 0.151603
C54   C     C_R   0.773666 0.099388 0.663235 0.015783
H26   H     H_    0.547186 0.086214 0.262750 0.189829
C55   C     C_R   0.670289 0.226689 0.305511 -0.152518
H27   H     H_    0.708298 0.215800 0.339049 0.152532
C56   C     C_R   0.712210 0.313810 0.305196 -0.131720
H28   H     H_    0.782747 0.370067 0.338834 0.164107
C57   C     C_R   0.663116 0.328290 0.261821 0.162679
C58   C     C_R   0.571884 0.253882 0.217681 -0.113446
H29   H     H_    0.533338 0.263555 0.183254 0.126341
C59   C     C_R   0.530161 0.166953 0.218399 -0.083205
H30   H     H_    0.459788 0.109941 0.184732 0.182619
C60   C     C_R   0.579347 0.153484 0.262345 -0.074402
C61   C     C_R   0.762120 0.423457 0.208542 -0.223421
H31   H     H_    0.768232 0.359757 0.171653 0.190587
C62   C     C_R   0.804825 0.504861 0.200408 -0.101976
C63   C     C_R   0.797187 0.588247 0.249285 -0.143191
C64   C     C_R   0.749075 0.589466 0.307774 0.278742
C65   C     C_R   0.699979 0.502864 0.309504 -0.177544
C66   C     C_R   0.708314 0.419978 0.260591 -0.047146
C67   C     C_R   0.906213 0.772708 0.310022 -0.081471
H32   H     H_    0.941919 0.783953 0.365603 0.136179
C68   C     C_R   0.927481 0.857841 0.311560 -0.137140
H33   H     H_    0.981091 0.933975 0.366669 0.139981
C69   C     C_R   0.879007 0.844851 0.242392 -0.167233
H34   H     H_    0.895613 0.910934 0.243904 0.140295
C70   C     C_R   0.810228 0.746580 0.170785 -0.150584
H35   H     H_    0.772925 0.736302 0.116981 0.157929
C71   C     C_R   0.787706 0.661497 0.169821 -0.043255
H36   H     H_    0.731252 0.586309 0.116434 0.128761
C72   C     C_R   0.834923 0.674106 0.239961 0.177931
Zn5   Zn    Zn3+2 0.953650 0.585790 0.045310 0.961154
Zn6   Zn    Zn3+2 0.953650 0.414090 0.873610 0.970145
Zn7   Zn    Zn3+2 0.954590 0.414100 0.046220 1.008089
Zn8   Zn    Zn3+2 0.127180 0.585790 0.045310 1.020665
O14   O     O_3   0.997270 0.499940 0.002610 -0.492542
O15   O     O_R   0.173180 0.560020 0.947500 -0.639448
O16   O     O_R   0.881750 0.560030 0.117490 -0.653837
O17   O     O_R   0.880830 0.439850 0.827330 -0.660979
O18   O     O_R   0.053310 0.439870 0.118130 -0.619336
O19   O     O_R   0.881750 0.270770 0.828220 -0.644086
O20   O     O_R   0.173180 0.729110 0.116590 -0.586457
O21   O     O_R   0.882410 0.270770 0.949030 -0.622770
O22   O     O_R   0.051730 0.729120 0.116590 -0.662865
O23   O     O_R   0.880830 0.560020 0.947500 -0.646555
O24   O     O_R   0.174110 0.560030 0.117490 -0.645968
O25   O     O_R   0.051730 0.439850 0.827330 -0.635482
O26   O     O_R   0.882410 0.439870 0.118130 -0.641581
C73   C     C_R   0.135876 0.497751 0.862713 0.730003
C74   C     C_R   0.858555 0.501262 0.142632 0.826131
C75   C     C_R   0.855418 0.498345 0.863279 0.900558
C76   C     C_R   0.137365 0.499758 0.142381 0.805865
C77   C     C_R   0.856780 0.221559 0.863336 0.816851
C78   C     C_R   0.135845 0.777761 0.139467 0.730612
N1    N     N_R   0.324452 0.900172 0.174977 0.203789
O27   O     O_R   0.393064 0.922840 0.224232 -0.420158
O28   O     O_R   0.309085 0.853689 0.089626 -0.373495
O29   O     O_3   0.145919 0.399229 0.716444 -0.658883
C79   C     C_3   0.118991 0.309497 0.711048 0.096965
H37   H     H_    0.058160 0.244608 0.652186 0.160009
H38   H     H_    0.101480 0.311285 0.769511 0.111624
C80   C     C_3   0.190127 0.288389 0.697264 -0.346999
H39   H     H_    0.206571 0.286071 0.638511 0.240675
H40   H     H_    0.250778 0.350974 0.756735 0.234669
C81   C     C_3   0.158999 0.186667 0.682392 -0.929077
H41   H     H_    0.143345 0.187803 0.740933 0.261708
H42   H     H_    0.212009 0.173742 0.672925 0.280967
H43   H     H_    0.099376 0.122450 0.622065 0.263275
O30   O     O_3   0.153912 0.946768 0.240976 -0.666511
C82   C     C_3   0.067909 0.908504 0.195397 0.145964
H44   H     H_    0.056351 0.968516 0.236837 0.151814
H45   H     H_    0.017288 0.842308 0.194696 0.189605
C83   C     C_3   0.054191 0.887554 0.102424 -0.296599
H46   H     H_    0.091317 0.960912 0.109199 0.273670
H47   H     H_    0.077399 0.840504 0.060253 0.228456
C84   C     C_3   0.956871 0.831991 0.054144 -0.977619
H48   H     H_    0.916890 0.757460 0.045525 0.289842
H49   H     H_    0.948356 0.817287 0.987408 0.268196
H50   H     H_    0.932638 0.879604 0.092464 0.252458
O31   O     O_3   0.954087 0.400300 0.399558 -0.650431
C85   C     C_3   0.010938 0.402249 0.453864 0.078396
H51   H     H_    0.011917 0.445601 0.522977 0.167270
H52   H     H_    0.080769 0.444416 0.456850 0.134198
C86   C     C_3   0.978111 0.293820 0.424766 -0.404831
H53   H     H_    0.909533 0.253906 0.425228 0.261443
H54   H     H_    0.977955 0.249125 0.356038 0.218231
C87   C     C_3   0.037402 0.297095 0.486070 -0.909542
H55   H     H_    0.105320 0.332376 0.482929 0.274613
H56   H     H_    0.010809 0.217943 0.464684 0.261307
H57   H     H_    0.040221 0.342140 0.555876 0.274843
N2    N     N_R   0.843958 0.132952 0.084590 0.205700
O32   O     O_R   0.861037 0.074275 0.021843 -0.453015
O33   O     O_R   0.762191 0.097261 0.080945 -0.439077
O34   O     O_3   0.017930 0.244793 0.078784 -0.602455
C88   C     C_3   0.063861 0.203725 0.084776 0.119028
H58   H     H_    0.016503 0.119632 0.049523 0.189108
H59   H     H_    0.097090 0.235604 0.154287 0.120377
C89   C     C_3   0.133356 0.223753 0.039372 -0.386116
H60   H     H_    0.100164 0.184291 0.967812 0.230267
H61   H     H_    0.178277 0.307314 0.070454 0.231235
C90   C     C_3   0.187985 0.185617 0.047504 -0.849093
H62   H     H_    0.224801 0.227716 0.118616 0.290970
H63   H     H_    0.236318 0.199154 0.012131 0.259979
H64   H     H_    0.144594 0.102194 0.017445 0.274378
O35   O     O_3   0.651557 0.786269 0.995850 -0.617814
C91   C     C_3   0.678096 0.866331 0.086339 0.100467
H65   H     H_    0.645391 0.830192 0.120614 0.173431
H66   H     H_    0.656026 0.916086 0.095623 0.154529
C92   C     C_3   0.778391 0.931093 0.130900 -0.370889
H67   H     H_    0.799105 0.880129 0.120130 0.215936
H68   H     H_    0.812727 0.971692 0.100461 0.256434
C93   C     C_3   0.806431 0.010200 0.230590 -0.941920
H69   H     H_    0.788089 0.063570 0.242687 0.277908
H70   H     H_    0.879107 0.055135 0.260589 0.256511
H71   H     H_    0.774455 0.971623 0.263282 0.266984
N3    N     N_R   0.623795 0.064368 0.658015 0.204704
O36   O     O_R   0.550726 0.033226 0.608053 -0.393062
O37   O     O_R   0.624338 0.067671 0.730218 -0.393537
O38   O     O_3   0.798193 0.233227 0.527602 -0.655907
C94   C     C_3   0.854866 0.340950 0.589079 0.059477
H72   H     H_    0.924539 0.366427 0.596561 0.156592
H73   H     H_    0.847300 0.367977 0.655977 0.158650
C95   C     C_3   0.833205 0.390524 0.554462 -0.338275
H74   H     H_    0.840565 0.365605 0.487920 0.259487
H75   H     H_    0.763394 0.364615 0.547039 0.229336
C96   C     C_3   0.893253 0.507363 0.617642 -0.936575
H76   H     H_    0.888120 0.534074 0.685146 0.255172
H77   H     H_    0.873464 0.540594 0.592128 0.274191
H78   H     H_    0.963082 0.535788 0.622915 0.265356
N4    N     N_R   0.261198 0.089594 0.203267 0.198606
O39   O     O_R   0.231031 0.142273 0.208451 -0.434740
O40   O     O_R   0.259642 0.026289 0.125744 -0.423534
N5    N     N_R   0.753198 0.680978 0.368136 0.219282
O41   O     O_R   0.720220 0.712822 0.338137 -0.407076
O42   O     O_R   0.790432 0.732737 0.453398 -0.411605
N6    N     N_R   0.621027 0.535173 0.810221 0.232167
O43   O     O_R   0.637040 0.594664 0.895111 -0.383464
O44   O     O_R   0.539425 0.470539 0.757274 -0.387058

loop_
_geom_bond_atom_site_label_1
_geom_bond_atom_site_label_2
_geom_bond_distance
_ccdc_geom_bond_type
O16   C74   1.270194 A    
C92   H67   1.108696 S    
C49   C54   1.419297 A    
C68   H33   1.082331 S    
C5    C47   1.478139 S    
C11   C13   1.465061 S    
C57   C58   1.404723 A    
C25   H13   1.084682 S    
C63   C64   1.398558 A    
C93   H71   1.110988 S    
C40   H19   1.082997 S    
N4    O39   1.301605 A    
C96   H77   1.110361 S    
C86   H53   1.110675 S    
C27   C28   1.387612 A    
C71   H36   1.083217 S    
C85   H52   1.113153 S    
C41   H20   1.082885 S    
C26   C27   1.416320 A    
C95   C96   1.527734 S    
Zn8   O15   1.936254 S    
C92   H68   1.109609 S    
C10   N4    1.444065 S    
O4    C3    1.283530 A    
C15   C17   1.472447 S    
C45   C46   1.396253 A    
Zn1   O1    1.940910 S    
C15   C16   1.349940 D    
O7    C6    1.286336 A    
C46   C47   1.399902 A    
C65   C66   1.418232 A    
C43   C48   1.395713 A    
C68   C69   1.398301 A    
C3    C65   1.462807 S    
C94   H73   1.114433 S    
N2    O33   1.301446 A    
C57   C66   1.480435 S    
C33   C34   1.405142 A    
C84   H48   1.110160 S    
Zn5   O14   1.940913 S    
C28   C29   1.392675 A    
C67   H32   1.083039 S    
C55   H27   1.082488 S    
O8    C5    1.277492 A    
C61   H31   1.085302 S    
O9    C6    1.272499 A    
C14   H4    1.080654 S    
Zn6   O25   1.951043 S    
C61   C66   1.385338 A    
C88   H59   1.116364 S    
N5    O41   1.299915 A    
O31   C85   1.421315 S    
C52   H24   1.081598 S    
C31   C32   1.398006 A    
Zn3   O8    1.934043 S    
O13   C2    1.262070 A    
C62   C63   1.417417 A    
C19   C24   1.397324 A    
H8    C24   1.082624 S    
O23   C75   1.272475 A    
O30   C82   1.419893 S    
O22   C78   1.279761 A    
C91   H65   1.111165 S    
C67   C68   1.397839 A    
Zn7   O26   1.940227 S    
C63   C72   1.482064 S    
C35   C36   1.414465 A    
C81   H42   1.110345 S    
C37   H17   1.082528 S    
H26   C60   1.080898 S    
C6    C10   1.442852 S    
C39   C48   1.477405 S    
C50   C51   1.397374 A    
Zn2   O12   1.948865 S    
C38   H18   1.083164 S    
C90   H64   1.111324 S    
C49   C50   1.404958 A    
C69   C70   1.397476 A    
O35   C91   1.417043 S    
C64   N5    1.438310 S    
C49   N3    1.441490 S    
C83   H47   1.108543 S    
N1    O28   1.301496 A    
C82   H44   1.110609 S    
C53   H25   1.083295 S    
O18   C76   1.280044 A    
C52   C53   1.396701 A    
C96   H76   1.109956 S    
C19   C20   1.398136 A    
C44   C77   1.480279 S    
C85   C86   1.537224 S    
C25   C26   1.399888 A    
C41   C42   1.401921 A    
O2    C1    1.295290 A    
C92   C93   1.525929 S    
C20   C21   1.405242 A    
Zn5   O23   1.942349 S    
C42   O35   1.383822 S    
C39   C40   1.403482 A    
C17   C18   1.337575 D    
C23   H12   1.082682 S    
C89   C90   1.526072 S    
O10   C3    1.272042 A    
C7    C8    1.357999 D    
C17   H6    1.086566 S    
C7    N1    1.436573 S    
C87   H56   1.110457 S    
O24   C76   1.292702 A    
C51   C52   1.400834 A    
C47   C48   1.420050 A    
Zn4   O1    1.968080 S    
C22   C23   1.398752 A    
C95   H74   1.109771 S    
C87   H55   1.110997 S    
C44   C45   1.422286 A    
O6    C5    1.291869 A    
C55   C60   1.397393 A    
C34   C35   1.418167 A    
C31   C36   1.399543 A    
N4    O40   1.302042 A    
O34   C88   1.418540 S    
C23   C24   1.398450 A    
O25   C73   1.279947 A    
C89   H61   1.111167 S    
C88   C89   1.528531 S    
N6    O44   1.301865 A    
Zn7   O21   1.927353 S    
C11   C12   1.332457 D    
Zn3   O5    1.951040 S    
Zn7   O18   1.948762 S    
Zn8   O20   1.924449 S    
C59   C60   1.398426 A    
O17   C75   1.264639 A    
C18   H7    1.083032 S    
C81   H41   1.110961 S    
O38   C94   1.413914 S    
Zn4   O7    1.924599 S    
C31   H15   1.083922 S    
C56   C57   1.404874 A    
C13   C14   1.354629 D    
C9    C10   1.344978 D    
C81   H43   1.111027 S    
C58   C59   1.398809 A    
C46   H22   1.083429 S    
C79   C80   1.531138 S    
C53   C54   1.405057 A    
C40   C41   1.398976 A    
C70   H35   1.081693 S    
O20   C78   1.297242 A    
C83   C84   1.526357 S    
C96   H78   1.108694 S    
O19   C77   1.276316 A    
C38   C39   1.402186 A    
C21   C22   1.404333 A    
N5    O42   1.301225 A    
C33   H16   1.082855 S    
O3    C2    1.274966 A    
C22   H11   1.083127 S    
O26   C74   1.284627 A    
Zn4   O2    1.940560 S    
C79   H38   1.115665 S    
C62   C74   1.458135 S    
C16   O29   1.389233 S    
C32   O31   1.384098 S    
C13   N6    1.443234 S    
Zn2   O6    1.927352 S    
C83   H46   1.106534 S    
C70   C71   1.396696 A    
O15   C73   1.282992 A    
C19   H9    1.081482 S    
C12   C75   1.437882 S    
Zn8   O14   1.968078 S    
C87   H57   1.109903 S    
C1    C29   1.461142 S    
C20   H10   1.083220 S    
C80   H39   1.111759 S    
C16   C73   1.464047 S    
C37   C42   1.405794 A    
Zn1   O3    1.942351 S    
O21   C77   1.294206 A    
C80   C81   1.525804 S    
Zn2   O4    1.940227 S    
Zn6   O17   1.943357 S    
Zn6   O19   1.933895 S    
C43   H21   1.081671 S    
Zn3   O1    1.938768 S    
C2    C14   1.439111 S    
Zn7   O14   1.952034 S    
C94   C95   1.528065 S    
C86   H54   1.110513 S    
C69   H34   1.081412 S    
C25   C30   1.389226 A    
C95   H75   1.111438 S    
C59   H30   1.082330 S    
C9    H1    1.087573 S    
C67   C72   1.404877 A    
C32   C33   1.394943 A    
N3    O37   1.300934 A    
Zn4   O11   1.936256 S    
C82   H45   1.104244 S    
C28   H14   1.085322 S    
Zn6   O14   1.938768 S    
N6    O43   1.300895 A    
C11   H2    1.086403 S    
C85   H51   1.106919 S    
N1    O27   1.300536 A    
C89   H60   1.111781 S    
C15   H5    1.086324 S    
C12   H3    1.084336 S    
C7    C9    1.464095 S    
O5    C4    1.281790 A    
N2    O32   1.298800 A    
Zn8   O24   1.940711 S    
C84   H49   1.110469 S    
C8    O30   1.407302 S    
C91   C92   1.534740 S    
C45   C54   1.480917 S    
C94   H72   1.110556 S    
C80   H40   1.111023 S    
C56   H28   1.083314 S    
Zn5   O22   1.938447 S    
C43   C44   1.397412 A    
C61   C62   1.395744 A    
Zn3   O13   1.943356 S    
C8    C78   1.480703 S    
C64   C65   1.409943 A    
C82   C83   1.544648 S    
C26   C76   1.461091 S    
C88   H58   1.110573 S    
C55   C56   1.397539 A    
C93   H69   1.110975 S    
C86   C87   1.527017 S    
C71   C72   1.404735 A    
Zn5   O16   1.945814 S    
C90   H62   1.111209 S    
Zn2   O1    1.952036 S    
O11   C4    1.277989 A    
Zn1   O9    1.938343 S    
O29   C79   1.416054 S    
C35   O34   1.385002 S    
O12   C1    1.277138 A    
N3    O36   1.301522 A    
C21   C30   1.480051 S    
C58   H29   1.083080 S    
C29   C30   1.417920 A    
C37   C38   1.396671 A    
Zn1   O10   1.945709 S    
C27   C36   1.480418 S    
C79   H37   1.110424 S    
C50   H23   1.082948 S    
C93   H70   1.110051 S    
C51   O38   1.380857 S    
C91   H66   1.114169 S    
C34   N2    1.437054 S    
C90   H63   1.110388 S    
C84   H50   1.110324 S    
C4    C18   1.450106 S    
