data_mof_unit_45766.cif
_audit_creation_date              2012-12-11T14:08:47-0500
_audit_creation_method            fapswitch 2.2
_symmetry_space_group_name_H-M    P1
_symmetry_Int_Tables_number       1
_space_group_crystal_system       triclinic
_cell_length_a                    28.193227
_cell_length_b                    7.190184
_cell_length_c                    17.261468
_cell_angle_alpha                 90.081887
_cell_angle_beta                  101.807923
_cell_angle_gamma                 89.985912
_cell_volume                      3425.10102264

loop_
_atom_site_label
_atom_site_type_symbol
_atom_type_description
_atom_site_fract_x
_atom_site_fract_y
_atom_site_fract_z
_atom_type_partial_charge
O1    O     O_R   0.000700 0.436510 0.857920 -0.512216
O2    O     O_R   0.999300 0.563490 0.142080 -0.524007
O3    O     O_R   0.999300 0.936510 0.642080 -0.512274
O4    O     O_R   0.000700 0.063490 0.357920 -0.524211
O5    O     O_R   0.930080 0.766380 0.721890 -0.539545
O6    O     O_R   0.069920 0.233620 0.278110 -0.536852
O7    O     O_R   0.069920 0.266380 0.778110 -0.539726
O8    O     O_R   0.930080 0.733620 0.221890 -0.536770
C1    C     C_R   0.910585 0.597651 0.708690 0.705460
C2    C     C_R   0.089435 0.402398 0.290953 0.691637
C3    C     C_R   0.089416 0.097682 0.791292 0.705514
C4    C     C_R   0.910564 0.902368 0.209064 0.691816
O9    O     O_R   0.996180 0.766230 0.862310 -0.546562
O10   O     O_R   0.003820 0.233770 0.137690 -0.549003
O11   O     O_R   0.003820 0.266230 0.637690 -0.546426
O12   O     O_R   0.996180 0.733770 0.362310 -0.548626
O13   O     O_R   0.065870 0.936460 0.783500 -0.543812
O14   O     O_R   0.934130 0.063540 0.216500 -0.544787
O15   O     O_R   0.934130 0.436460 0.716500 -0.544072
O16   O     O_R   0.065870 0.563540 0.283500 -0.544772
C5    C     C_R   0.997686 0.595999 0.894219 0.698806
C6    C     C_R   0.001962 0.404002 0.105777 0.704009
C7    C     C_R   0.002328 0.095880 0.605821 0.700416
C8    C     C_R   0.998005 0.904141 0.394177 0.705389
O17   O     O_3   0.022790 0.603020 0.723980 -0.374771
O18   O     O_3   0.977210 0.396980 0.276020 -0.383236
O19   O     O_3   0.977210 0.103020 0.776020 -0.375071
O20   O     O_3   0.022790 0.896980 0.223980 -0.383570
V1    V     V_3+5 0.995770 0.877900 0.754830 1.461461
V2    V     V_3+5 0.004230 0.122100 0.245170 1.404116
V3    V     V_3+5 0.004230 0.377900 0.745170 1.461362
V4    V     V_3+5 0.995770 0.622100 0.254830 1.404875
C9    C     C_2   0.007984 0.077755 0.522023 0.153574
C10   C     C_2   0.991954 0.922634 0.477591 0.188219
C11   C     C_2   0.992024 0.577824 0.978053 0.153623
C12   C     C_2   0.007973 0.422439 0.022304 0.187736
C13   C     C_R   0.681329 0.867787 0.036050 0.583224
C14   C     C_R   0.318567 0.132773 0.966021 0.576221
C15   C     C_R   0.315787 0.520387 0.467050 0.581567
C16   C     C_R   0.684375 0.479025 0.531023 0.574496
O21   O     O_2   0.708855 0.783420 0.990975 -0.510544
O22   O     O_2   0.291043 0.216958 0.011147 -0.517598
O23   O     O_2   0.285645 0.580183 0.513312 -0.512163
O24   O     O_2   0.714528 0.418241 0.484964 -0.519447
N1    N     N_R   0.702778 0.943066 0.107655 -0.558425
N2    N     N_R   0.297108 0.057353 0.894448 -0.558260
N3    N     N_R   0.297066 0.444121 0.394404 -0.558764
N4    N     N_R   0.703084 0.556346 0.603454 -0.558684
C17   C     C_R   0.675478 0.030935 0.153912 0.573613
C18   C     C_R   0.324418 0.969613 0.848162 0.578655
C19   C     C_R   0.327100 0.380105 0.347066 0.574433
C20   C     C_R   0.673052 0.621225 0.650624 0.579735
C21   C     C_R   0.777923 0.759529 0.149541 -0.081785
C22   C     C_R   0.221921 0.240897 0.852945 -0.080405
C23   C     C_R   0.221891 0.259791 0.354279 -0.080168
C24   C     C_R   0.778317 0.740595 0.642853 -0.081804
C25   C     C_R   0.828379 0.749396 0.174179 -0.187715
C26   C     C_R   0.171494 0.250935 0.827874 -0.196849
C27   C     C_R   0.171470 0.249395 0.329077 -0.187657
C28   C     C_R   0.828707 0.750883 0.668504 -0.197251
C29   C     C_R   0.833254 0.085281 0.168481 -0.197290
C30   C     C_R   0.166700 0.914897 0.832478 -0.198673
C31   C     C_R   0.166844 0.585810 0.329029 -0.197105
C32   C     C_R   0.833166 0.414410 0.670363 -0.198360
C33   C     C_R   0.782859 0.094982 0.143849 -0.082878
C34   C     C_R   0.217064 0.905292 0.857592 -0.085390
C35   C     C_R   0.217202 0.595777 0.354123 -0.084665
C36   C     C_R   0.782840 0.404557 0.644779 -0.084450
C37   C     C_R   0.754781 0.932356 0.134045 0.374355
C38   C     C_R   0.245100 0.068025 0.868041 0.374887
C39   C     C_R   0.245127 0.433035 0.367238 0.375507
C40   C     C_R   0.755014 0.567374 0.630659 0.376650
C41   C     C_R   0.602090 0.970580 0.054938 -0.044052
C42   C     C_R   0.397819 0.030306 0.947046 -0.044130
C43   C     C_R   0.397819 0.470942 0.446453 -0.043728
C44   C     C_R   0.602339 0.529199 0.551485 -0.043658
C45   C     C_R   0.630767 0.879820 0.008581 -0.033990
C46   C     C_R   0.369142 0.121074 0.993403 -0.030627
C47   C     C_R   0.366306 0.535604 0.494175 -0.034914
C48   C     C_R   0.633856 0.463708 0.503923 -0.031485
C49   C     C_R   0.608540 0.804050 0.935632 -0.124637
C50   C     C_R   0.391388 0.197282 0.066250 -0.126213
C51   C     C_R   0.385753 0.613832 0.567936 -0.124941
C52   C     C_R   0.614415 0.384389 0.430384 -0.126789
C53   C     C_R   0.624839 0.046591 0.128391 -0.028893
C54   C     C_R   0.375063 0.954113 0.873640 -0.031366
C55   C     C_R   0.377849 0.391932 0.372241 -0.028786
C56   C     C_R   0.622304 0.609150 0.625507 -0.031157
C57   C     C_R   0.856805 0.912261 0.183853 -0.050472
C58   C     C_R   0.143134 0.087921 0.817249 -0.057946
C59   C     C_R   0.143181 0.412411 0.316352 -0.050332
C60   C     C_R   0.856883 0.587773 0.682544 -0.057184
H1    H     H_    0.853692 0.213828 0.175084 0.136789
H2    H     H_    0.146303 0.786248 0.825291 0.132852
H3    H     H_    0.146529 0.714504 0.319796 0.136149
H4    H     H_    0.853406 0.285662 0.680473 0.133218
H5    H     H_    0.765608 0.229404 0.131795 0.126635
H6    H     H_    0.234328 0.770824 0.869400 0.125246
H7    H     H_    0.234580 0.730584 0.363461 0.123973
H8    H     H_    0.765403 0.269789 0.635961 0.123560
H9    H     H_    0.629689 0.733502 0.898680 0.177594
H10   H     H_    0.370246 0.268035 0.103155 0.177018
H11   H     H_    0.362383 0.664452 0.605987 0.176319
H12   H     H_    0.637790 0.332822 0.392526 0.175444
C61   C     C_R   0.477379 0.923064 0.926327 0.038499
C62   C     C_R   0.522539 0.078043 0.075596 0.038551
C63   C     C_R   0.519817 0.581219 0.574197 0.038932
C64   C     C_R   0.480341 0.419053 0.423724 0.038959
C65   C     C_R   0.471339 0.093303 0.048483 0.037866
C66   C     C_R   0.528585 0.907959 0.953406 0.037643
C67   C     C_R   0.531616 0.433462 0.450098 0.037172
C68   C     C_R   0.468546 0.566087 0.547966 0.036992
C69   C     C_R   0.449075 0.015542 0.974060 0.062020
C70   C     C_R   0.550842 0.985537 0.027873 0.062100
C71   C     C_R   0.551030 0.514600 0.525138 0.062376
C72   C     C_R   0.449130 0.485396 0.472836 0.062476
C73   C     C_R   0.453143 0.848707 0.852719 -0.173451
C74   C     C_R   0.546764 0.152190 0.149249 -0.173434
C75   C     C_R   0.541297 0.661150 0.648205 -0.173200
C76   C     C_R   0.458855 0.340267 0.349490 -0.173143
C77   C     C_R   0.403208 0.864129 0.827164 -0.132721
C78   C     C_R   0.596692 0.136596 0.174855 -0.133457
C79   C     C_R   0.591326 0.674471 0.673097 -0.133147
C80   C     C_R   0.408825 0.327322 0.324516 -0.133826
O25   O     O_2   0.302734 0.898566 0.777352 -0.516216
O26   O     O_2   0.697168 0.101999 0.224715 -0.520865
O27   O     O_2   0.692161 0.695345 0.722057 -0.513787
O28   O     O_2   0.307992 0.307068 0.275421 -0.518247
C81   C     C_R   0.558684 0.817504 0.908547 -0.176608
C82   C     C_R   0.441253 0.184082 0.093270 -0.177116
C83   C     C_R   0.435627 0.628902 0.594360 -0.174217
C84   C     C_R   0.564541 0.369384 0.403956 -0.174533
H13   H     H_    0.154824 0.386635 0.816960 0.133603
H14   H     H_    0.845023 0.613733 0.185419 0.134527
H15   H     H_    0.845519 0.886810 0.676849 0.131998
H16   H     H_    0.154722 0.113433 0.320114 0.134053
H17   H     H_    0.243032 0.367862 0.860501 0.128972
H18   H     H_    0.756766 0.632678 0.142532 0.128392
H19   H     H_    0.757384 0.867616 0.631878 0.125977
H20   H     H_    0.242896 0.132799 0.364402 0.126478
H21   H     H_    0.386703 0.804365 0.770370 0.160911
H22   H     H_    0.613189 0.196223 0.231680 0.159833
H23   H     H_    0.605645 0.736686 0.730321 0.161292
H24   H     H_    0.394502 0.265945 0.267129 0.160269
H25   H     H_    0.471519 0.776903 0.812733 0.109866
H26   H     H_    0.528381 0.223900 0.189242 0.109297
H27   H     H_    0.520622 0.715677 0.689003 0.110220
H28   H     H_    0.479527 0.286703 0.308511 0.109534
H29   H     H_    0.545111 0.754817 0.851733 0.114150
H30   H     H_    0.454847 0.247294 0.149959 0.113832
H31   H     H_    0.446944 0.690871 0.651923 0.113654
H32   H     H_    0.553232 0.306094 0.346665 0.113411
O29   O     O_3   0.038375 0.201810 0.494318 -0.574361
C85   C     C_3   0.015742 0.376509 0.479410 -0.089734
H33   H     H_    0.023134 0.464188 0.533426 0.172292
H34   H     H_    0.976020 0.366708 0.454886 0.112161
H35   H     H_    0.032397 0.447855 0.434833 0.166924
O30   O     O_3   0.968439 0.780724 0.508998 -0.564335
C86   C     C_3   0.918255 0.794401 0.478043 -0.273088
H36   H     H_    0.903887 0.932914 0.490860 0.121753
H37   H     H_    0.899395 0.687959 0.507131 0.168668
H38   H     H_    0.909616 0.765897 0.413316 0.135381
O31   O     O_3   0.961606 0.701776 0.005888 -0.574125
C87   C     C_3   0.984109 0.876774 0.020674 -0.090923
H39   H     H_    0.976615 0.963973 0.966626 0.171921
H40   H     H_    0.023844 0.867487 0.045151 0.111855
H41   H     H_    0.967421 0.948298 0.065245 0.166752
O32   O     O_3   0.031424 0.280384 0.990711 -0.564541
C88   C     C_3   0.081617 0.293819 0.021648 -0.270981
H42   H     H_    0.096032 0.432248 0.008990 0.121024
H43   H     H_    0.100429 0.187261 0.992414 0.168152
H44   H     H_    0.090263 0.265300 0.086339 0.135103

loop_
_geom_bond_atom_site_label_1
_geom_bond_atom_site_label_2
_ccdc_geom_bond_type
O17   V3    S    
C61   C66   A    
O1    C5    A    
C34   H6    S    
C23   C27   A    
O19   V1    S    
O13   V1    S    
C88   H42   S    
C64   C76   A    
O3    C7    A    
C11   C12   D    
C12   O32   S    
C48   C52   A    
C21   C37   A    
O4    V2    S    
C49   H9    S    
C33   C37   A    
O7    C3    A    
C17   O26   S    
C79   H23   S    
C51   H11   S    
C62   C70   A    
C19   O28   S    
C32   C36   A    
C73   H25   S    
C87   H39   S    
N4    C40   S    
C14   O22   S    
N4    C20   A    
C74   C78   A    
C55   C80   A    
O4    C8    A    
C29   H1    S    
C22   H17   S    
C75   H27   S    
C31   H3    S    
C27   H16   S    
O1    V3    S    
C44   C71   A    
C66   C81   A    
O2    V4    S    
C63   C68   A    
O3    V1    S    
C73   C77   A    
C83   H31   S    
C1    O15   A    
C82   H30   S    
O31   C87   S    
C2    O16   A    
C24   C40   A    
O2    C6    A    
C16   C48   A    
O14   V2    S    
N1    C17   A    
C50   C82   A    
C44   C56   A    
C85   H34   S    
O16   V4    S    
C65   C69   A    
O11   C7    A    
O15   V3    S    
O12   C8    A    
C62   C74   A    
C88   H43   S    
C61   C73   A    
O10   V2    S    
C56   C79   A    
C1    C60   S    
C63   C75   A    
C20   O27   S    
C29   C57   A    
O5    V1    S    
C28   C60   A    
C26   H13   S    
C31   C35   A    
O7    V3    S    
C30   C34   A    
N1    C37   S    
C21   H18   S    
O8    V4    S    
C17   C53   A    
C4    C57   S    
C20   C56   A    
C32   H4    S    
C85   H35   S    
C19   C55   A    
C24   H19   S    
C21   C25   A    
O18   V4    S    
C74   H26   S    
N3    C19   A    
C14   C46   A    
C7    C9    S    
C42   C69   A    
C13   C45   A    
C52   C84   A    
C11   O31   S    
C23   H20   S    
C24   C28   A    
C36   C40   A    
C15   C47   A    
C18   C54   A    
C36   H8    S    
O5    C1    A    
C77   H21   S    
C46   C50   A    
C49   C81   A    
C86   H36   S    
C22   C38   A    
C45   C49   A    
O8    C4    A    
N3    C39   S    
C54   C77   A    
C86   H37   S    
C9    C10   D    
C50   H10   S    
C86   H38   S    
O9    C5    A    
C53   C78   A    
C18   O25   S    
C27   C59   A    
C42   C54   A    
C26   C58   A    
C28   H15   S    
C41   C53   A    
C85   H33   S    
C25   C57   A    
C10   O30   S    
C43   C55   A    
O32   C88   S    
O6    V2    S    
C2    C59   S    
C76   H28   S    
C75   C79   A    
C30   H2    S    
O30   C86   S    
C52   H12   S    
C88   H44   S    
C25   H14   S    
C78   H22   S    
C13   N1    A    
C68   C72   A    
N2    C38   S    
C15   N3    A    
C22   C26   A    
O9    V1    S    
C16   N4    A    
C66   C70   A    
C3    O13   A    
C87   H41   S    
C44   C48   A    
C61   C69   A    
O6    C2    A    
C15   O23   S    
O11   V3    S    
C5    C11   S    
C35   H7    S    
O12   V4    S    
C6    C12   S    
N2    C18   A    
C64   C67   A    
C64   C72   A    
C87   H40   S    
C51   C83   A    
O29   C85   S    
C9    O29   S    
C33   H5    S    
C47   C51   A    
C3    C58   S    
O10   C6    A    
C34   C38   A    
C84   H32   S    
C30   C58   A    
O20   V2    S    
C63   C71   A    
C35   C39   A    
C68   C83   A    
C13   O21   S    
C8    C10   S    
C14   N2    A    
C41   C70   A    
C29   C33   A    
C67   C84   A    
C16   O24   S    
C31   C59   A    
C42   C46   A    
C4    O14   A    
C65   C82   A    
C41   C45   A    
C80   H24   S    
C67   C71   A    
C43   C72   A    
C32   C60   A    
C81   H29   S    
C43   C47   A    
C23   C39   A    
C76   C80   A    
C62   C65   A    
