data_mof_unit_63155.cif
_audit_creation_date              2012-12-10T19:37:09-0500
_audit_creation_method            fapswitch 2.2
_symmetry_space_group_name_H-M    P1
_symmetry_Int_Tables_number       1
_space_group_crystal_system       triclinic
_cell_length_a                    14.348103
_cell_length_b                    15.895883
_cell_length_c                    17.031887
_cell_angle_alpha                 96.039569
_cell_angle_beta                  90.932851
_cell_angle_gamma                 92.813362
_cell_volume                      3857.44391508

loop_
_atom_site_label
_atom_site_type_symbol
_atom_type_description
_atom_site_fract_x
_atom_site_fract_y
_atom_site_fract_z
_atom_type_partial_charge
C1    C     C_R   0.499448 0.490045 0.348949 0.947745
C2    C     C_R   0.500144 0.510040 0.651404 0.924246
C3    C     C_R   0.586800 0.502577 0.144064 0.171817
C4    C     C_R   0.408033 0.551546 0.857178 0.140559
C5    C     C_R   0.585090 0.491913 0.224787 0.169092
C6    C     C_R   0.424056 0.559721 0.777246 0.190787
C7    C     C_R   0.455444 0.749085 0.458478 -0.028259
C8    C     C_R   0.545684 0.250796 0.540568 -0.028919
C9    C     C_R   0.460137 0.837331 0.455258 0.154902
C10   C     C_R   0.541097 0.162578 0.543921 0.158148
C11   C     C_R   0.521588 0.890238 0.507419 0.219892
C12   C     C_R   0.478752 0.109669 0.492568 0.213121
C13   C     C_R   0.576734 0.850589 0.560672 0.034745
C14   C     C_R   0.422690 0.149334 0.439986 0.034261
C15   C     C_R   0.570884 0.761609 0.560353 0.423723
C16   C     C_R   0.428381 0.238342 0.440333 0.408778
C17   C     C_R   0.331006 0.499800 0.500065 0.852058
C18   C     C_R   0.669003 0.500230 0.500397 0.858832
C19   C     C_1   0.228697 0.499483 0.500127 -0.081650
C20   C     C_1   0.771324 0.500568 0.500549 -0.079307
C21   C     C_1   0.143315 0.499564 0.500182 0.061330
C22   C     C_1   0.856710 0.500501 0.500518 0.061571
C23   C     C_1   0.042702 0.499879 0.500285 0.060744
C24   C     C_1   0.957322 0.500195 0.500395 0.060233
C25   C     C_R   0.499616 0.487191 0.263214 -0.248190
C26   C     C_R   0.493449 0.513060 0.737430 -0.257452
C27   C     C_R   0.415386 0.494513 0.222080 0.168736
C28   C     C_R   0.547926 0.459675 0.778362 0.168698
C29   C     C_R   0.416163 0.506724 0.141595 0.238015
C30   C     C_R   0.528918 0.448838 0.857140 0.233292
C31   C     C_R   0.502503 0.509235 0.101701 0.158519
C32   C     C_R   0.459991 0.495502 0.896895 0.160886
Cu1   Cu    Cu3+1 0.495850 0.415220 0.496180 1.033868
Cu2   Cu    Cu3+1 0.504150 0.584780 0.503820 1.042968
H1    H     H_    0.592894 0.290479 0.580235 0.220137
H2    H     H_    0.409278 0.709248 0.417833 0.199565
N1    N     N_2   0.509437 0.520347 0.020175 -0.197786
N2    N     N_2   0.443850 0.486675 0.977317 -0.131773
N3    N     N_R   0.510380 0.712130 0.509560 -0.232411
N4    N     N_R   0.489620 0.287870 0.490440 -0.240884
N5    N     N_2   0.536296 0.980332 0.504731 -0.155403
N6    N     N_2   0.464199 0.019555 0.495293 -0.152013
O1    O     O_R   0.496120 0.420530 0.382500 -0.529281
O2    O     O_R   0.503880 0.579470 0.617500 -0.518187
O3    O     O_R   0.503120 0.563720 0.388950 -0.574538
O4    O     O_R   0.496880 0.436280 0.611050 -0.570263
O5    O     O_R   0.372550 0.428390 0.496770 -0.535630
O6    O     O_R   0.627450 0.571610 0.503230 -0.530525
O7    O     O_R   0.379550 0.571580 0.503220 -0.557631
O8    O     O_R   0.620450 0.428420 0.496780 -0.565953
Br1   Br    Br    0.650553 0.403058 0.727691 -0.397267
Br2   Br    Br    0.299319 0.492982 0.278180 -0.376839
Br3   Br    Br    0.592157 0.365718 0.909648 -0.384986
Br4   Br    Br    0.299458 0.529076 0.091746 -0.389261
N7    N     N_2   0.674383 0.511029 0.106301 -0.389889
H3    H     H_    0.677235 0.548923 0.060743 0.279617
C33   C     C_3   0.726954 0.435374 0.093236 -0.443140
H4    H     H_    0.738455 0.419872 0.029208 0.238680
H5    H     H_    0.690555 0.379789 0.116040 0.234525
H6    H     H_    0.796218 0.447141 0.123365 0.251028
N8    N     N_2   0.336884 0.597790 0.896340 -0.369995
H7    H     H_    0.295383 0.562813 0.930962 0.307484
C34   C     C_3   0.368848 0.679294 0.935905 -0.497075
H8    H     H_    0.418365 0.671068 0.985028 0.227399
H9    H     H_    0.308215 0.713114 0.960564 0.240500
H10   H     H_    0.403689 0.718569 0.893592 0.240599
Br5   Br    Br    0.700685 0.491202 0.284346 -0.486884
Br6   Br    Br    0.343794 0.629261 0.722376 -0.442453
Br7   Br    Br    0.615975 0.122374 0.624654 -0.452817
Br8   Br    Br    0.386852 0.877723 0.373646 -0.489700
N9    N     N_2   0.639568 0.899599 0.614854 -0.387762
H11   H     H_    0.673860 0.949917 0.592339 0.310897
C35   C     C_3   0.601054 0.921734 0.691866 -0.473955
H12   H     H_    0.578376 0.863866 0.719130 0.236975
H13   H     H_    0.540189 0.961595 0.686848 0.241869
H14   H     H_    0.655069 0.957595 0.731150 0.247399
N10   N     N_2   0.359169 0.100285 0.386404 -0.384649
H15   H     H_    0.325747 0.049609 0.409053 0.312006
C36   C     C_3   0.396294 0.078803 0.308745 -0.480523
H16   H     H_    0.417623 0.136939 0.281368 0.237246
H17   H     H_    0.341900 0.042595 0.270112 0.247442
H18   H     H_    0.457821 0.039530 0.312694 0.239362
Br9   Br    Br    0.654718 0.712361 0.630006 -0.416132
Br10  Br    Br    0.343672 0.287466 0.371430 -0.384914

loop_
_geom_bond_atom_site_label_1
_geom_bond_atom_site_label_2
_ccdc_geom_bond_type
N7    H3    S    
C34   H9    S    
C27   C29   A    
N5    N6    D    
C5    Br5   S    
N10   H15   S    
C2    O4    A    
C19   C21   T    
C28   Br1   S    
C33   H5    S    
C29   Br4   S    
C16   Br10  S    
C7    H2    S    
C14   N10   S    
N8    C34   S    
C12   N6    S    
C3    N7    S    
C1    O1    A    
C2    O2    A    
C23   C24   T    
C32   N2    S    
C18   C20   S    
C6    Br6   S    
C34   H10   S    
C1    C25   S    
Cu1   O4    S    
C35   H13   S    
N10   C36   S    
C21   C23   S    
C30   Br3   S    
Cu1   N4    S    
Cu2   N3    S    
Cu1   O1    S    
Cu2   O2    S    
C9    Br8   S    
C4    C6    A    
C17   O7    A    
C36   H17   S    
C33   H6    S    
C15   Br9   S    
C13   N9    S    
Cu1   O8    S    
C4    N8    S    
C31   N1    S    
C8    H1    S    
N1    N2    D    
Cu1   Cu2   S    
C2    C26   S    
Cu2   O3    S    
C3    C31   A    
C9    C11   A    
C15   N3    A    
C4    C32   A    
C10   C12   A    
C16   N4    A    
C5    C25   A    
C12   C14   A    
N7    C33   S    
Cu1   O5    S    
C35   H14   S    
C14   C16   A    
Cu2   O6    S    
C35   H12   S    
C27   Br2   S    
C18   O8    A    
N9    C35   S    
C7    C9    A    
Cu2   O7    S    
C17   O5    A    
C20   C22   T    
C34   H8    S    
C3    C5    A    
C18   O6    A    
C36   H18   S    
C25   C27   A    
C26   C28   A    
C13   C15   A    
N9    H11   S    
C29   C31   A    
C30   C32   A    
C11   C13   A    
C1    O3    A    
C33   H4    S    
C6    C26   A    
C28   C30   A    
C17   C19   S    
C11   N5    S    
C22   C24   S    
N8    H7    S    
C36   H16   S    
C10   Br7   S    
C8    C10   A    
C7    N3    A    
C8    N4    A    
