data_mof_unit_66760.cif
_audit_creation_date              2012-12-11T14:19:31-0500
_audit_creation_method            fapswitch 2.2
_symmetry_space_group_name_H-M    P1
_symmetry_Int_Tables_number       1
_space_group_crystal_system       triclinic
_cell_length_a                    8.447834
_cell_length_b                    12.830886
_cell_length_c                    15.098659
_cell_angle_alpha                 95.984927
_cell_angle_beta                  99.288095
_cell_angle_gamma                 98.113936
_cell_volume                      1585.38994189

loop_
_atom_site_label
_atom_site_type_symbol
_atom_type_description
_atom_site_fract_x
_atom_site_fract_y
_atom_site_fract_z
_atom_type_partial_charge
Ba1   Ba    Ba6+2 0.153570 0.551840 0.456200 1.642684
Ba2   Ba    Ba6+2 0.656590 0.448150 0.543720 1.641770
C1    C     C_3   0.290493 0.751994 0.102648 -0.193619
C2    C     C_R   0.729524 0.815419 0.465631 -0.218552
C3    C     C_R   0.696125 0.992732 0.430486 -0.109366
C4    C     C_3   0.874469 0.817031 0.249035 0.376210
C5    C     C_R   0.632638 0.884246 0.425264 -0.011169
C6    C     C_R   0.888761 0.851122 0.512860 0.047609
C7    C     C_R   0.954640 0.962957 0.516744 -0.045579
C8    C     C_R   0.855496 0.035381 0.476872 -0.046743
C9    C     C_R   0.919368 0.148127 0.485495 0.064565
C10   C     C_R   0.180671 0.113074 0.563786 0.004894
C11   C     C_R   0.117464 0.004508 0.557218 -0.114078
C12   C     C_3   0.368846 0.749929 0.201045 0.289267
C13   C     C_R   0.237225 0.479345 0.767498 -0.224996
C14   C     C_R   0.141680 0.443244 0.827548 0.029439
C15   C     C_R   0.206172 0.451117 0.919888 -0.090100
C16   C     C_3   0.847140 0.916305 0.207340 -0.044171
C17   C     C_R   0.370309 0.495193 0.954245 0.042025
C18   C     C_R   0.463234 0.536233 0.891243 -0.156327
C19   C     C_R   0.395957 0.528252 0.799262 0.046459
C20   C     C_R   0.605133 0.546476 0.087180 -0.149850
C21   C     C_R   0.670503 0.557661 0.178934 0.022319
C22   C     C_R   0.416109 0.474023 0.211350 0.024459
C23   C     C_3   0.700971 0.770188 0.739211 0.356718
C24   C     C_R   0.348433 0.462732 0.118567 -0.075673
C25   C     C_R   0.441061 0.501536 0.054175 0.044994
C26   C     C_R   0.575370 0.525204 0.241102 -0.287893
C27   C     C_3   0.650785 0.261960 0.267114 0.521733
C28   C     C_3   0.696409 0.303871 0.182349 -0.360282
C29   C     C_3   0.186166 0.788284 0.738363 0.475907
C30   C     C_3   0.220684 0.904341 0.781244 -0.368858
C31   C     C_3   0.233283 0.236481 0.357332 0.277588
C32   C     C_3   0.184043 0.116266 0.342148 -0.410958
C33   C     C_3   0.082252 0.698391 0.860728 -0.184527
C34   C     C_3   0.727183 0.890137 0.741098 -0.105646
C35   C     C_3   0.501599 0.892372 0.618687 -0.120585
C36   C     C_2   0.388937 0.828558 0.055797 0.468260
C37   C     C_3   0.134959 0.201863 0.755462 -0.229943
C38   C     C_3   0.948407 0.236894 0.018011 -0.160372
C39   C     C_2   0.409807 0.191873 0.929327 0.422955
C40   C     C_3   0.977587 0.054069 0.133659 -0.267163
C41   C     C_3   0.508902 0.092512 0.173610 -0.210040
C42   C     C_3   0.872657 0.175179 0.801521 0.495988
C43   C     C_3   0.935428 0.112208 0.878716 -0.012714
C44   C     C_3   0.506255 0.238628 0.786415 0.280712
C45   C     C_3   0.552570 0.220101 0.885516 -0.224814
C46   C     C_R   0.078868 0.183367 0.531759 -0.240051
H1    H     H_    0.296080 0.681411 0.223056 0.096396
H2    H     H_    0.347746 0.255461 0.407696 0.076740
H3    H     H_    0.164966 0.770085 0.099451 0.137331
H4    H     H_    0.226153 0.080414 0.282309 0.177029
H5    H     H_    0.050399 0.095272 0.332949 0.111220
H6    H     H_    0.240449 0.080653 0.400404 0.104360
H7    H     H_    0.496112 0.735512 0.204048 -0.068842
H8    H     H_    0.279375 0.671322 0.065154 -0.004262
H9    H     H_    0.779344 0.751507 0.799646 -0.005823
H10   H     H_    0.733318 0.734973 0.675521 0.075687
H11   H     H_    0.665371 0.927731 0.792698 0.092030
H12   H     H_    0.742446 0.242180 0.142202 0.095328
H13   H     H_    0.859516 0.918353 0.759893 0.047127
H14   H     H_    0.743554 0.896526 0.149843 0.074174
H15   H     H_    0.748572 0.135289 0.771506 0.028836
H16   H     H_    0.833136 0.062672 0.900029 0.020157
H17   H     H_    0.009931 0.055590 0.853195 0.028674
H18   H     H_    0.418800 0.294554 0.782952 -0.026004
H19   H     H_    0.609988 0.282792 0.763897 0.132630
H20   H     H_    0.628522 0.293591 0.924290 0.113324
H21   H     H_    0.977299 0.837584 0.307319 0.084174
H22   H     H_    0.621802 0.153812 0.890472 0.059713
H23   H     H_    0.589842 0.326208 0.140328 0.124294
H24   H     H_    0.618483 0.043128 0.398917 0.087058
H25   H     H_    0.197630 0.953034 0.583110 0.073748
H26   H     H_    0.127918 0.267034 0.539474 0.050991
H27   H     H_    0.678065 0.732651 0.462230 0.057677
H28   H     H_    0.686681 0.573956 0.043724 0.074861
H29   H     H_    0.125115 0.423844 0.963233 0.080062
H30   H     H_    0.225190 0.422395 0.098924 0.082678
H31   H     H_    0.586099 0.577194 0.910912 0.066540
H32   H     H_    0.628588 0.534666 0.312216 0.073086
H33   H     H_    0.761578 0.787276 0.273799 -0.114672
H34   H     H_    0.795170 0.373075 0.201609 0.096811
H35   H     H_    0.184899 0.474232 0.696518 0.068144
H36   H     H_    0.817241 0.974386 0.259432 0.044481
H37   H     H_    0.618618 0.329589 0.309028 -0.000161
H38   H     H_    0.324761 0.738726 0.849676 0.187655
H39   H     H_    0.121710 0.650892 0.914880 0.083602
H40   H     H_    0.974584 0.650768 0.815712 0.157895
H41   H     H_    0.050901 0.772456 0.893187 0.110483
H42   H     H_    0.712458 0.998303 0.648292 0.211521
H43   H     H_    0.470323 0.931023 0.558383 0.136146
H44   H     H_    0.433226 0.922233 0.669439 0.093339
H45   H     H_    0.274204 0.774691 0.694342 0.076176
H46   H     H_    0.469294 0.805542 0.598297 0.130859
H47   H     H_    0.512375 0.818335 0.048757 -0.022224
H48   H     H_    0.932762 0.105528 0.681531 0.149751
H49   H     H_    0.190041 0.129376 0.756179 0.108701
H50   H     H_    0.168754 0.246586 0.823972 0.121782
H51   H     H_    0.176045 0.254378 0.707572 0.077387
H52   H     H_    0.117469 0.141550 0.991263 0.225888
H53   H     H_    0.832102 0.187703 0.022275 0.070538
H54   H     H_    0.922111 0.313007 0.996240 0.144331
H55   H     H_    0.024991 0.257364 0.086360 0.100137
H56   H     H_    0.189500 0.955974 0.729570 0.065751
H57   H     H_    0.330799 0.116228 0.907675 0.039394
H58   H     H_    0.042601 0.907035 0.138279 0.254413
H59   H     H_    0.100746 0.091385 0.126804 0.150220
H60   H     H_    0.925659 0.112078 0.175689 0.146637
H61   H     H_    0.899157 0.031618 0.066016 0.109551
H62   H     H_    0.487984 0.146700 0.303368 0.186498
H63   H     H_    0.488669 0.122018 0.107018 0.156586
H64   H     H_    0.623609 0.059647 0.182761 0.098279
H65   H     H_    0.406653 0.028232 0.174141 0.162777
H66   H     H_    0.350960 0.927407 0.812546 0.108564
H67   H     H_    0.147251 0.917512 0.834468 0.128827
H68   H     H_    0.137308 0.273474 0.384372 0.033039
N1    N     N_2   0.211000 0.720863 0.809506 -0.442914
N2    N     N_2   0.672550 0.920270 0.653022 -0.464777
N3    N     N_2   0.964273 0.171584 0.729067 -0.438334
N4    N     N_2   0.033857 0.180787 0.956974 -0.384670
N5    N     N_2   0.992011 0.960357 0.176169 -0.417074
N6    N     N_2   0.512363 0.176833 0.245781 -0.418667
O1    O     O_2   0.168170 0.764170 0.543850 -0.512411
O2    O     O_2   0.830459 0.466874 0.820043 -0.500603
O3    O     O_3   0.865401 0.279236 0.839708 -0.624568
O4    O     O_3   0.898670 0.629780 0.545890 -0.460599
O5    O     O_3   0.409490 0.443300 0.392340 -0.504043
O6    O     O_2   0.674250 0.555830 0.719690 -0.464425
O7    O     O_3   0.539262 0.732445 0.743312 -0.690147
O8    O     O_2   0.519654 0.120522 0.564146 -0.489667
O9    O     O_3   0.453454 0.141310 0.728531 -0.645229
O10   O     O_3   0.365980 0.695510 0.380810 -0.482381
O11   O     O_2   0.293361 0.884682 0.415723 -0.497784
O12   O     O_3   0.255736 0.273494 0.275365 -0.616038
O13   O     O_3   0.024827 0.763974 0.690801 -0.654780
O14   O     O_3   0.364697 0.845851 0.255199 -0.607835
O15   O     O_2   0.136040 0.444100 0.280280 -0.450108
O16   O     O_3   0.934510 0.640480 0.335500 -0.482057
O17   O     O_2   0.004577 0.559279 0.177366 -0.497743
O18   O     O_2   0.328650 0.899842 0.021926 -0.621030
O19   O     O_2   0.384187 0.252417 0.991269 -0.614149
O20   O     O_3   0.912222 0.743468 0.183086 -0.620186
O21   O     O_2   0.642110 0.235770 0.456130 -0.493664
O22   O     O_3   0.911620 0.370210 0.454030 -0.479507
O23   O     O_3   0.444310 0.304480 0.619110 -0.490190
O24   O     O_3   0.784908 0.223376 0.311063 -0.656577
O25   O     O_3   0.400800 0.556680 0.607590 -0.464459
O26   O     O_3   0.875770 0.359510 0.664420 -0.454198
P1    P     P_3+3 0.998660 0.747790 0.570900 0.965773
P2    P     P_3+3 0.306970 0.411860 0.294270 0.985139
P3    P     P_3+3 0.881462 0.619135 0.218473 0.954368
P4    P     P_3+3 0.811620 0.252200 0.429030 0.968528
P5    P     P_3+3 0.930036 0.386042 0.783838 0.964801
P6    P     P_3+3 0.417114 0.829814 0.370231 0.931220
P7    P     P_3+3 0.504334 0.593844 0.720057 0.932346
P8    P     P_3+3 0.397603 0.167389 0.616347 0.906057

loop_
_geom_bond_atom_site_label_1
_geom_bond_atom_site_label_2
_ccdc_geom_bond_type
C4    H21   S    
O1    P1    D    
Ba2   O22   S    
H48   N3    S    
C17   C18   A    
C20   H28   S    
C10   C46   A    
C34   H11   S    
C23   O7    S    
C28   H23   S    
Ba2   O23   S    
C24   C25   A    
C24   H30   S    
C39   H57   S    
H42   N2    S    
O9    P8    S    
C40   H61   S    
C22   C24   A    
C44   H18   S    
C3    H24   S    
O5    P2    S    
O4    P1    S    
C37   H49   S    
C12   H1    S    
Ba2   O26   S    
C13   C14   A    
O12   P2    S    
Ba1   Ba2   S    
C1    H8    S    
C7    C11   A    
C41   H64   S    
C29   N1    S    
C2    H27   S    
O6    P7    D    
C38   H53   S    
O23   P8    S    
C33   H39   S    
C31   O12   S    
C35   N2    S    
C1    C36   S    
C6    C7    A    
C28   H12   S    
C36   H47   S    
O10   P6    S    
C30   H56   S    
Ba1   P1    S    
H52   N4    S    
C4    O20   S    
O25   P7    S    
C7    C8    A    
C27   H37   S    
C35   H44   S    
C2    C6    A    
Ba2   O5    S    
Ba1   O10   S    
C12   H7    S    
C4    H33   S    
O2    P5    D    
Ba2   O21   S    
C9    C46   A    
C41   H63   S    
C10   P8    S    
C2    C5    A    
C3    C8    A    
C17   C25   S    
C39   C45   S    
O3    P5    S    
C42   H15   S    
Ba2   P4    S    
C4    C16   S    
C42   O3    S    
C35   H43   S    
O11   P6    D    
C23   H9    S    
C46   H26   S    
Ba1   O4    S    
C29   O13   S    
C27   O24   S    
C3    C5    A    
C1    H3    S    
C14   C15   A    
C37   H50   S    
C13   H35   S    
C23   C34   S    
C42   N3    S    
C31   H2    S    
C29   H45   S    
O20   P3    S    
C28   H34   S    
Ba1   O1    S    
C45   H22   S    
C39   O19   D    
C27   C28   S    
O14   P6    S    
C33   H40   S    
C16   H36   S    
C29   C30   S    
C27   N6    S    
C15   H29   S    
C31   C32   S    
C19   P7    S    
Ba1   P2    S    
C21   C26   A    
C10   C11   A    
C41   N6    S    
C1    C12   S    
C22   P2    S    
O24   P4    S    
Ba2   O4    S    
C43   N4    S    
O21   P4    D    
C38   N4    S    
C11   H25   S    
C32   H6    S    
C20   C25   A    
C43   H17   S    
O15   P2    D    
Ba1   O25   S    
O26   P5    S    
C34   H13   S    
C33   H41   S    
C45   H20   S    
C44   O9    S    
Ba1   O15   S    
C42   C43   S    
C22   C26   A    
O7    P7    S    
C40   H59   S    
C21   P3    S    
C44   C45   S    
C31   H68   S    
C18   H31   S    
C16   H14   S    
Ba1   O5    S    
C37   H51   S    
O16   P3    S    
C43   H16   S    
C32   H4    S    
C6    P1    S    
Ba2   O25   S    
C44   H19   S    
O22   P4    S    
Ba1   O22   S    
O13   P1    S    
H62   N6    S    
C38   H55   S    
C5    P6    S    
C12   O14   S    
C37   N3    S    
H58   N5    S    
O17   P3    D    
C15   C17   A    
C35   H46   S    
H38   N1    S    
C30   H67   S    
C26   H32   S    
C33   N1    S    
C8    C9    A    
C16   N5    S    
C38   H54   S    
C9    P4    S    
C13   C19   A    
C18   C19   A    
C32   H5    S    
C23   H10   S    
C14   P5    S    
C36   O18   D    
C20   C21   A    
O8    P8    D    
C34   N2    S    
C30   H66   S    
C40   H60   S    
C41   H65   S    
Ba1   O16   S    
C40   N5    S    
Ba2   O6    S    
