data_mof_unit_57562.cif
_audit_creation_date              2012-10-26T19:58:20-0400
_audit_creation_method            fapswitch 2.2
_symmetry_space_group_name_H-M    P1
_symmetry_Int_Tables_number       1
_space_group_crystal_system       triclinic
_cell_length_a                    7.421952
_cell_length_b                    8.694557
_cell_length_c                    13.399062
_cell_angle_alpha                 94.027803
_cell_angle_beta                  77.068185
_cell_angle_gamma                 103.186932
_cell_volume                      820.3298316

loop_
_atom_site_label
_atom_site_type_symbol
_atom_type_description
_atom_site_fract_x
_atom_site_fract_y
_atom_site_fract_z
_atom_type_partial_charge
C1    C     C_R   0.545395 0.800238 0.502972 0.543152
C2    C     C_R   0.334868 0.492406 0.807059 -0.008704
C3    C     C_2   0.570990 0.968102 0.504408 -0.150868
C4    C     C_R   0.398761 0.497291 0.694609 0.526565
C5    C     C_2   0.429196 0.031874 0.495241 -0.154448
C6    C     C_R   0.454681 0.199760 0.496897 0.549919
C7    C     C_R   0.603381 0.512667 0.305425 0.549270
C8    C     C_R   0.878697 0.684712 0.049303 -0.125600
C9    C     C_R   0.668422 0.539358 0.194113 -0.034520
C10   C     C_R   0.152048 0.407322 0.848958 -0.136656
C11   C     C_R   0.100038 0.372304 0.952329 -0.140395
C12   C     C_R   0.416800 0.504179 0.975544 0.042297
C13   C     C_R   0.231434 0.415537 0.014497 -0.107001
C14   C     C_2   0.008260 0.678703 0.202149 0.582687
C15   C     C_R   0.462115 0.553752 0.872425 0.027465
C16   C     C_R   0.558872 0.545716 0.035044 0.028864
C17   C     C_R   0.735883 0.645247 0.993231 0.021772
C18   C     C_R   0.768741 0.706644 0.895994 -0.135508
C19   C     C_R   0.633013 0.663879 0.837179 -0.118184
C20   C     C_R   0.531013 0.491447 0.134727 -0.136844
C21   C     C_R   0.848678 0.631423 0.148975 0.038559
Cu1   Cu    Cu3+1 0.321300 0.483160 0.488710 0.982541
Cu2   Cu    Cu3+1 0.678700 0.516840 0.511290 0.984128
H1    H     H_    0.011029 0.618008 0.579044 0.232125
H2    H     H_    0.217721 0.853213 0.236043 0.340718
H3    H     H_    0.292592 0.960406 0.486505 0.136517
H4    H     H_    0.900630 0.788091 0.864937 0.108308
H5    H     H_    0.988788 0.381697 0.421160 0.260566
H6    H     H_    0.015006 0.757813 0.015002 0.142474
H7    H     H_    0.400473 0.413545 0.169565 0.146330
H8    H     H_    0.051194 0.362327 0.800960 0.138732
H9    H     H_    0.181701 0.379767 0.092936 0.145972
H10   H     H_    0.958607 0.305936 0.983863 0.131761
H11   H     H_    0.663043 0.720582 0.764227 0.135325
H12   H     H_    0.707620 0.039562 0.513093 0.135570
N1    N     N_2   0.947230 0.542220 0.528320 -0.251358
N2    N     N_2   0.052770 0.457780 0.471680 -0.231667
O1    O     O_R   0.383920 0.714220 0.492660 -0.504233
O2    O     O_R   0.109365 0.835687 0.199007 -0.706811
O3    O     O_R   0.685730 0.742660 0.511730 -0.501261
O4    O     O_R   0.275440 0.478800 0.636790 -0.512681
O5    O     O_R   0.577250 0.507240 0.655860 -0.507307
O6    O     O_R   0.314270 0.257340 0.488270 -0.499151
O7    O     O_R   0.616080 0.285780 0.507340 -0.507128
O8    O     O_R   0.422750 0.492760 0.344140 -0.482711
O9    O     O_R   0.724560 0.521200 0.363210 -0.458339
O10   O     O_2   0.058362 0.579730 0.243648 -0.520238

loop_
_geom_bond_atom_site_label_1
_geom_bond_atom_site_label_2
_ccdc_geom_bond_type
C2    C4    S    
C14   O10   D    
Cu2   N1    S    
C5    H3    S    
C13   H9    S    
C8    C17   A    
C12   C15   A    
C3    H12   S    
C16   C20   A    
C8    C21   A    
Cu2   O9    S    
C6    O7    A    
H2    O2    S    
C15   C19   A    
C2    C15   A    
C11   C13   A    
C9    C21   A    
H1    N1    S    
Cu2   O5    S    
C4    O5    A    
C1    O1    A    
C8    H6    S    
C7    O8    A    
C14   C21   S    
N1    N2    D    
C17   C18   A    
C6    O6    A    
C5    C6    S    
Cu1   O4    S    
C10   C11   A    
Cu2   O7    S    
Cu2   O3    S    
Cu1   O1    S    
C7    O9    A    
C12   C16   A    
C11   H10   S    
Cu1   O8    S    
C12   C13   A    
C18   C19   A    
C4    O4    A    
C7    C9    S    
Cu1   Cu2   S    
C20   H7    S    
C9    C20   A    
C1    O3    A    
C3    C5    D    
C14   O2    S    
Cu1   N2    S    
C10   H8    S    
C18   H4    S    
Cu1   O6    S    
H5    N2    S    
C16   C17   A    
C1    C3    S    
C19   H11   S    
C2    C10   A    
