data_mof_unit_55909.cif
_audit_creation_date              2012-12-11T14:33:03-0500
_audit_creation_method            fapswitch 2.2
_symmetry_space_group_name_H-M    P1
_symmetry_Int_Tables_number       1
_space_group_crystal_system       triclinic
_cell_length_a                    6.974492
_cell_length_b                    14.022224
_cell_length_c                    17.946076
_cell_angle_alpha                 113.044659
_cell_angle_beta                  95.417846
_cell_angle_gamma                 90.854791
_cell_volume                      1605.2371581

loop_
_atom_site_label
_atom_site_type_symbol
_atom_type_description
_atom_site_fract_x
_atom_site_fract_y
_atom_site_fract_z
_atom_type_partial_charge
O1    O     O_R   0.484560 0.544530 0.414330 -0.536963
O2    O     O_R   0.197040 0.638810 0.585080 -0.540335
O3    O     O_R   0.026800 0.455470 0.585670 -0.541698
C1    C     C_R   0.375500 0.681767 0.604996 0.676530
O4    O     O_R   0.155000 0.556150 0.414940 -0.543623
O5    O     O_R   0.984450 0.372220 0.414320 -0.535573
C2    C     C_R   0.318205 0.564763 0.386644 0.752962
O6    O     O_R   0.526900 0.627780 0.585680 -0.545794
O7    O     O_3   0.339170 0.439750 0.499990 -0.378626
V1    V     V_3+5 0.064350 0.511180 0.500000 1.367688
O8    O     O_R   0.654880 0.361190 0.414920 -0.541480
C3    C     C_R   0.816597 0.324616 0.386254 0.761579
O9    O     O_R   0.696930 0.443850 0.585060 -0.552975
C4    C     C_R   0.871521 0.428488 0.609301 0.674777
V2    V     V_3+5 0.564340 0.488820 0.500000 1.362534
O10   O     O_3   0.839390 0.560250 0.500010 -0.373501
C5    C     C_R   0.045118 0.871201 0.828520 -0.055248
C6    C     C_R   0.897713 0.393020 0.677195 -0.039089
C7    C     C_R   0.947909 0.834101 0.686974 -0.124207
C8    C     C_R   0.993962 0.800498 0.749022 -0.172623
C9    C     C_R   0.035072 0.978412 0.845910 -0.221614
C10   C     C_R   0.002961 0.016810 0.782833 0.088210
C11   C     C_R   0.952431 0.940088 0.702680 0.135711
C12   C     C_R   0.007264 0.125993 0.794779 0.016281
C13   C     C_R   0.949173 0.151254 0.724847 0.045075
C14   C     C_R   0.892106 0.070403 0.648876 -0.163248
C15   C     C_R   0.897702 0.967861 0.637949 -0.222695
C16   C     C_R   0.066860 0.211957 0.871056 0.134655
C17   C     C_R   0.044803 0.313618 0.877085 -0.241571
C18   C     C_R   0.990044 0.336556 0.809986 0.090562
C19   C     C_R   0.947647 0.256919 0.732059 0.100389
C20   C     C_R   0.981433 0.440675 0.821116 -0.130663
C21   C     C_R   0.923940 0.467767 0.756161 -0.160180
C22   C     C_R   0.908735 0.287500 0.664683 -0.204151
H1    H     H_    0.854165 0.908961 0.577628 0.115784
H2    H     H_    0.891022 0.232475 0.602270 0.087548
H3    H     H_    0.904658 0.548382 0.767303 0.087667
H4    H     H_    0.084967 0.377686 0.935342 0.128797
H5    H     H_    0.903303 0.776456 0.626305 0.132839
H6    H     H_    0.973496 0.719012 0.735684 0.096011
H7    H     H_    0.033083 0.027411 0.908743 0.122363
H8    H     H_    0.839261 0.083713 0.595678 0.122919
H9    H     H_    0.017065 0.501540 0.880965 0.141726
H10   H     H_    0.112781 0.225011 0.308018 0.154350
H11   H     H_    0.834504 0.035360 0.192063 0.151936
C23   C     C_2   0.135536 0.038175 0.183462 -0.347096
C24   C     C_2   0.972623 0.078684 0.215892 -0.114745
H12   H     H_    0.674625 0.177599 0.293756 0.125560
C25   C     C_2   0.812344 0.221277 0.317722 -0.342186
C26   C     C_2   0.974821 0.181447 0.284472 -0.121341
H13   H     H_    0.273372 0.081672 0.207615 0.125889
C27   C     C_R   0.420184 0.789604 0.670746 -0.045038
C28   C     C_R   0.530410 0.469181 0.829643 -0.073335
C29   C     C_R   0.574961 0.890463 0.806780 -0.089132
C30   C     C_R   0.538881 0.798019 0.739884 -0.176844
C31   C     C_R   0.381919 0.884000 0.661891 -0.199877
C32   C     C_R   0.447023 0.983471 0.726126 0.086083
C33   C     C_R   0.526948 0.984331 0.802276 0.061294
C34   C     C_R   0.437897 0.081238 0.717796 0.068260
C35   C     C_R   0.501783 0.177064 0.785662 0.040097
C36   C     C_R   0.573675 0.171944 0.859494 -0.253013
C37   C     C_R   0.574745 0.078613 0.870415 -0.059014
C38   C     C_R   0.374365 0.085894 0.642773 -0.172365
C39   C     C_R   0.366599 0.179846 0.634481 -0.206894
C40   C     C_R   0.420694 0.273363 0.700469 0.099516
C41   C     C_R   0.489575 0.275420 0.777777 0.108906
C42   C     C_R   0.405436 0.364999 0.688349 -0.155661
C43   C     C_R   0.458794 0.460964 0.751262 0.136984
C44   C     C_R   0.541572 0.375772 0.842882 -0.254518
H14   H     H_    0.590405 0.384299 0.904012 0.101968
H15   H     H_    0.315462 0.179292 0.575333 0.117019
H16   H     H_    0.659567 0.888126 0.859338 0.168493
H17   H     H_    0.609394 0.732564 0.742208 0.119913
H18   H     H_    0.306067 0.877593 0.604823 0.092399
H19   H     H_    0.622579 0.241396 0.911571 0.162949
H20   H     H_    0.330782 0.017612 0.588661 0.120523
H21   H     H_    0.352408 0.361806 0.628571 0.134457
H22   H     H_    0.334382 0.666378 0.194895 0.153092
H23   H     H_    0.614425 0.590676 0.307116 0.155430
C45   C     C_2   0.315527 0.601652 0.319115 -0.345385
C46   C     C_2   0.476627 0.610491 0.284977 -0.124711
H24   H     H_    0.770906 0.636477 0.205838 0.127847
C47   C     C_2   0.633430 0.655962 0.183147 -0.339280
C48   C     C_2   0.472247 0.646694 0.217086 -0.128298
H25   H     H_    0.178129 0.621241 0.296445 0.126960
O11   O     O_R   0.421600 0.630430 0.917010 -0.534277
O12   O     O_R   0.793840 0.702190 0.087630 -0.546567
O13   O     O_R   0.964010 0.886170 0.088190 -0.537187
C49   C     C_R   0.630676 0.693278 0.115851 0.738526
O14   O     O_R   0.751460 0.619510 0.917500 -0.548437
O15   O     O_R   0.921330 0.802900 0.916840 -0.546286
C50   C     C_R   0.573215 0.576565 0.897267 0.693663
O16   O     O_R   0.464290 0.713700 0.088350 -0.541575
O17   O     O_3   0.609200 0.818520 0.002630 -0.354022
V3    V     V_3+5 0.884140 0.747190 0.002530 1.377616
O18   O     O_R   0.251150 0.814630 0.917340 -0.517166
C51   C     C_R   0.075513 0.830901 0.893778 0.700018
O19   O     O_R   0.293530 0.897310 0.087470 -0.542544
C52   C     C_R   0.131649 0.934198 0.115742 0.759001
V4    V     V_3+5 0.384070 0.769710 0.002370 1.417259
O20   O     O_3   0.109180 0.698190 0.002460 -0.383903
C53   C     C_2   0.601599 0.084519 0.956091 0.682354
O21   O     O_2   0.667604 0.164663 0.011805 -0.578783
O22   O     O_R   0.529044 0.004215 0.974927 -0.656270
H26   H     H_    0.547117 0.020726 0.035524 0.300365
C54   C     C_3   0.453512 0.554486 0.731967 -0.356879
C55   C     C_3   0.274301 0.613385 0.757088 -0.716718
H27   H     H_    0.164596 0.590680 0.704569 0.222457
H28   H     H_    0.210925 0.599423 0.805680 0.235536
H29   H     H_    0.307076 0.696959 0.779421 0.222250
H30   H     H_    0.586504 0.601880 0.763405 0.141756
H31   H     H_    0.455384 0.532871 0.666271 0.224807
C56   C     C_3   0.187563 0.208002 0.944819 -0.364053
C57   C     C_3   0.081311 0.236083 0.020671 -0.676378
H32   H     H_    0.968343 0.291625 0.022289 0.242569
H33   H     H_    0.017338 0.165392 0.023908 0.244477
H34   H     H_    0.185633 0.272744 0.076077 0.211889
H35   H     H_    0.257113 0.135037 0.931951 0.191061
H36   H     H_    0.311282 0.266043 0.961434 0.187496

loop_
_geom_bond_atom_site_label_1
_geom_bond_atom_site_label_2
_ccdc_geom_bond_type
C33   C37   A    
C23   C52   S    
C13   C19   A    
C4    C6    S    
O2    C1    A    
C7    C8    A    
C42   H21   S    
C1    O6    A    
C28   C44   A    
C3    C25   S    
O14   V3    S    
C54   H31   S    
C36   H19   S    
C14   C15   A    
C17   C18   A    
C1    C27   S    
C16   C17   A    
O5    C3    A    
C18   C19   A    
C8    H6    S    
C32   C34   A    
C41   C44   A    
C38   H20   S    
V2    O10   S    
O19   C52   A    
C5    C8    A    
C31   C32   A    
C23   C24   D    
C39   H15   S    
C28   C43   A    
C56   H36   S    
O8    V2    S    
C40   C42   A    
O12   V3    S    
C17   H4    S    
V3    O20   S    
C55   H27   S    
O1    V2    S    
C11   C15   A    
O11   V4    S    
O7    V1    S    
C36   C37   A    
C27   C30   A    
O13   V3    S    
C35   C41   A    
C34   C35   A    
O9    C4    A    
C55   H28   S    
O17   V3    S    
C43   C54   S    
O22   H26   S    
C57   H32   S    
C24   C26   S    
C54   H30   S    
H11   C24   S    
C47   C49   S    
C31   H18   S    
C53   O21   D    
O13   C52   A    
C12   C13   A    
H23   C46   S    
C15   H1    S    
C13   C14   A    
C38   C39   A    
C23   H13   S    
C21   H3    S    
C42   C43   A    
C35   C36   A    
C7    C11   A    
C45   H25   S    
O14   C50   A    
C47   C48   D    
O17   V4    S    
O18   C51   A    
C28   C50   S    
C19   C22   A    
O15   C51   A    
C53   O22   S    
C6    C22   A    
O16   V4    S    
O3    C4    A    
C7    H5    S    
C9    H7    S    
H12   C25   S    
H24   C47   S    
O6    V2    S    
O19   V4    S    
O12   C49   A    
C55   H29   S    
C10   C12   A    
O2    V1    S    
C46   C48   S    
C14   H8    S    
O4    C2    A    
C56   C57   S    
C29   C33   A    
H10   C26   S    
C29   C30   A    
O1    C2    A    
C12   C16   A    
C45   C46   D    
O5    V1    S    
C57   H33   S    
O8    C3    A    
C34   C38   A    
C20   C21   A    
O9    V2    S    
O7    V2    S    
O4    V1    S    
O3    V1    S    
V1    O10   S    
C39   C40   A    
C18   C20   A    
C32   C33   A    
O18   V4    S    
V4    O20   S    
C20   H9    S    
C22   H2    S    
C40   C41   A    
C49   O16   A    
C44   H14   S    
C6    C21   A    
C5    C9    A    
C57   H34   S    
C16   C56   S    
O15   V3    S    
C56   H35   S    
C30   H17   S    
H22   C48   S    
C29   H16   S    
C25   C26   D    
C54   C55   S    
C10   C11   A    
O11   C50   A    
C9    C10   A    
C5    C51   S    
C27   C31   A    
C2    C45   S    
C37   C53   S    
