data_mof_unit_51247.cif
_audit_creation_date              2012-12-11T16:33:21-0500
_audit_creation_method            fapswitch 2.2
_symmetry_space_group_name_H-M    P1
_symmetry_Int_Tables_number       1
_space_group_crystal_system       triclinic
_cell_length_a                    6.977067
_cell_length_b                    17.99191
_cell_length_c                    20.439727
_cell_angle_alpha                 68.423338
_cell_angle_beta                  90.521832
_cell_angle_gamma                 90.70109
_cell_volume                      2385.81060389

loop_
_atom_site_label
_atom_site_type_symbol
_atom_type_description
_atom_site_fract_x
_atom_site_fract_y
_atom_site_fract_z
_atom_type_partial_charge
O1    O     O_R   0.488960 0.443750 0.941980 -0.513083
O2    O     O_R   0.823890 0.406510 0.087590 -0.549149
O3    O     O_R   0.999680 0.556250 0.058020 -0.538235
C1    C     C_R   0.654202 0.379413 0.112078 0.667780
O4    O     O_R   0.818360 0.434410 0.944340 -0.530881
O5    O     O_R   0.994110 0.584350 0.913750 -0.528381
C2    C     C_R   0.649471 0.422910 0.921929 0.729094
O6    O     O_R   0.494530 0.415650 0.086250 -0.549140
O7    O     O_3   0.662590 0.549160 0.990130 -0.373536
V1    V     V_3+5 0.935320 0.490880 0.001830 1.529066
O8    O     O_R   0.324180 0.593490 0.912410 -0.522315
C3    C     C_R   0.155249 0.617681 0.885958 0.977217
O9    O     O_R   0.329720 0.565590 0.055660 -0.538435
C4    C     C_R   0.162113 0.579774 0.075993 0.791283
V2    V     V_3+5 0.435990 0.509120 0.998170 1.536609
O10   O     O_3   0.158850 0.450840 0.009870 -0.370331
C5    C     C_3   0.014038 0.718722 0.299301 0.141291
C6    C     C_3   0.196180 0.679904 0.283230 -0.227052
H1    H     H_    0.246080 0.618394 0.313706 0.168303
H2    H     H_    0.455035 0.761802 0.294701 0.172133
C7    C     C_1   0.155520 0.626848 0.120364 -0.142627
C8    C     C_1   0.110603 0.879090 0.374771 -0.110599
C9    C     C_3   0.959276 0.750789 0.220534 -0.060198
C10   C     C_3   0.140325 0.712858 0.204062 -0.060870
C11   C     C_3   0.073107 0.828111 0.210251 0.650629
C12   C     C_3   0.127776 0.796132 0.288750 -0.053105
C13   C     C_3   0.253294 0.790355 0.193547 0.605434
C14   C     C_3   0.311118 0.758488 0.272475 -0.322129
C15   C     C_1   0.149039 0.665899 0.157783 0.045810
C16   C     C_1   0.118347 0.841972 0.335844 0.110215
C17   C     C_R   0.123150 0.784605 0.871858 0.491379
C18   C     C_R   0.104262 0.864183 0.866384 -0.034299
C19   C     C_R   0.089705 0.924572 0.800084 0.574949
C20   C     C_R   0.094804 0.906011 0.739902 -0.281829
C21   C     C_R   0.113817 0.826167 0.743392 -0.070134
C22   C     C_R   0.127634 0.763961 0.810764 -0.086784
C23   C     C_R   0.118390 0.809061 0.680613 -0.025643
C24   C     C_R   0.134738 0.726924 0.685036 -0.032824
C25   C     C_R   0.151943 0.664948 0.753602 -0.192448
C26   C     C_R   0.146289 0.683523 0.815699 -0.114157
C27   C     C_R   0.133673 0.702905 0.624500 0.057625
C28   C     C_R   0.158694 0.621262 0.633285 0.008338
C29   C     C_R   0.179369 0.563847 0.700402 0.559378
C30   C     C_R   0.174337 0.584310 0.759012 0.448719
H3    H     H_    0.082880 0.955911 0.690381 0.160042
C31   C     C_R   0.618925 0.085243 0.261832 0.458950
C32   C     C_R   0.626514 0.064771 0.203062 0.646543
C33   C     C_R   0.638570 0.123027 0.137086 -0.244208
C34   C     C_R   0.642940 0.204189 0.127424 0.036504
C35   C     C_R   0.638475 0.228739 0.187275 -0.010366
C36   C     C_R   0.626350 0.167077 0.256170 -0.175264
C37   C     C_R   0.643306 0.310950 0.181393 -0.055227
C38   C     C_R   0.633718 0.330319 0.242833 0.009953
C39   C     C_R   0.624739 0.269551 0.311679 -0.034659
C40   C     C_R   0.620832 0.187096 0.317793 -0.098090
C41   C     C_R   0.633165 0.411845 0.235529 -0.274339
C42   C     C_R   0.619730 0.435199 0.292679 0.077175
C43   C     C_R   0.614136 0.377477 0.360001 0.683839
C44   C     C_R   0.620602 0.295428 0.370953 -0.017299
H4    H     H_    0.642931 0.103904 0.092644 0.202581
H5    H     H_    0.641302 0.459889 0.184681 0.151652
O11   O     O_R   0.770540 0.084530 0.414050 -0.524812
O12   O     O_R   0.445710 0.065660 0.555720 -0.545312
O13   O     O_R   0.270420 0.915650 0.586190 -0.541298
C45   C     C_R   0.614485 0.077600 0.577973 0.698153
O14   O     O_R   0.441140 0.093540 0.412470 -0.529909
O15   O     O_R   0.265820 0.943740 0.441930 -0.515930
C46   C     C_R   0.610627 0.119914 0.387460 0.845982
O16   O     O_R   0.775150 0.056440 0.558310 -0.541571
O17   O     O_3   0.602370 0.950960 0.510050 -0.356982
V3    V     V_3+5 0.329450 0.009140 0.498150 1.490872
O18   O     O_R   0.935790 0.934280 0.444060 -0.519121
C47   C     C_R   0.103211 0.923519 0.421232 0.743528
O19   O     O_R   0.940370 0.906390 0.587310 -0.546162
C48   C     C_R   0.109590 0.879536 0.612272 0.675539
V4    V     V_3+5 0.828810 0.990710 0.501460 1.504545
O20   O     O_3   0.105780 0.049100 0.489960 -0.380406
C49   C     C_3   0.664795 0.328177 0.710903 0.101298
C50   C     C_3   0.492272 0.278921 0.699549 -0.156662
H6    H     H_    0.384527 0.302788 0.657052 0.155181
C51   C     C_1   0.623685 0.123726 0.622989 -0.153880
C52   C     C_1   0.639940 0.377594 0.876260 -0.097432
C53   C     C_3   0.802119 0.259031 0.717394 0.053733
C54   C     C_3   0.630893 0.209570 0.706747 0.018578
C55   C     C_3   0.768200 0.224113 0.797888 0.613885
C56   C     C_3   0.632426 0.293303 0.791221 -0.004592
C57   C     C_3   0.598486 0.174471 0.786975 0.058952
C58   C     C_3   0.462832 0.243639 0.780591 -0.001741
C59   C     C_1   0.628078 0.162447 0.660640 0.045326
C60   C     C_1   0.635392 0.339658 0.837966 0.083143
F1    F     F_    0.070366 0.002154 0.793104 -0.700172
C61   C     C_3   0.104779 0.762103 0.550654 -0.722286
H7    H     H_    0.965997 0.792466 0.547111 0.202272
H8    H     H_    0.229460 0.803315 0.536580 0.195525
H9    H     H_    0.095906 0.736681 0.509123 0.195084
C62   C     C_3   0.163887 0.593442 0.571680 -0.680153
H10   H     H_    0.191640 0.528553 0.587678 0.253422
H11   H     H_    0.023533 0.604711 0.543905 0.197860
H12   H     H_    0.280479 0.625104 0.535021 0.202471
F2    F     F_    0.193382 0.522237 0.821365 -0.666807
F3    F     F_    0.603900 0.401802 0.415519 -0.703431
F4    F     F_    0.602365 0.022511 0.323864 -0.654713
F5    F     F_    0.620238 0.986706 0.210234 -0.590705
C63   C     C_3   0.650048 0.260060 0.051903 -0.695144
H13   H     H_    0.647387 0.228429 0.014315 0.208405
H14   H     H_    0.521534 0.298358 0.039531 0.192591
H15   H     H_    0.786278 0.294417 0.042158 0.207858
C64   C     C_3   0.879327 0.677521 0.360244 -0.720587
H16   H     H_    0.818760 0.622634 0.355266 0.220329
H17   H     H_    0.959533 0.661178 0.410619 0.204675
H18   H     H_    0.761415 0.718439 0.359920 0.208149
C65   C     C_3   0.614884 0.522939 0.280164 -0.740176
H19   H     H_    0.591918 0.534288 0.329275 0.252061
H20   H     H_    0.753009 0.551078 0.256703 0.204772
H21   H     H_    0.496211 0.551670 0.243265 0.195976
C66   C     C_3   0.625101 0.239452 0.446680 -0.719893
H22   H     H_    0.634183 0.270017 0.484860 0.256376
H23   H     H_    0.490295 0.204212 0.458918 0.192239
H24   H     H_    0.755015 0.202094 0.456590 0.183690
C67   C     C_3   0.701250 0.416086 0.667515 -0.685275
H25   H     H_    0.720152 0.424239 0.611436 0.221317
H26   H     H_    0.577600 0.451936 0.672300 0.243869
H27   H     H_    0.832736 0.436830 0.686873 0.242304
C68   C     C_3   0.277289 0.231095 0.820411 -0.551647
H28   H     H_    0.194472 0.184664 0.808601 0.266769
H29   H     H_    0.307233 0.209512 0.877776 0.218948
H30   H     H_    0.197555 0.288042 0.804459 0.248240
C69   C     C_3   0.562840 0.086507 0.830516 -0.626953
H31   H     H_    0.543897 0.078414 0.886580 0.230139
H32   H     H_    0.431628 0.065490 0.811227 0.232194
H33   H     H_    0.686901 0.050844 0.825733 0.245613
F6    F     F_    0.893687 0.193023 0.853497 -0.690497
C70   C     C_3   0.989179 0.270692 0.677568 -0.743848
H34   H     H_    0.076368 0.316642 0.688549 0.233934
H35   H     H_    0.067046 0.213315 0.693513 0.231830
H36   H     H_    0.959127 0.292038 0.620226 0.223300
F7    F     F_    0.370187 0.829422 0.136768 -0.644599
F8    F     F_    0.010948 0.904713 0.172202 -0.599597
C71   C     C_3   0.761356 0.751344 0.189393 -0.568913
H37   H     H_    0.693105 0.691563 0.212432 0.185595
H38   H     H_    0.674567 0.795696 0.201374 0.277219
H39   H     H_    0.771544 0.769090 0.131474 0.234993
F9    F     F_    0.203040 0.485555 0.710152 -0.684426
F10   F     F_    0.137912 0.728503 0.937744 -0.724101
C72   C     C_3   0.100156 0.883429 0.932123 -0.515698
H40   H     H_    0.084774 0.948407 0.920394 0.241987
H41   H     H_    0.977537 0.851799 0.965457 0.215753
H42   H     H_    0.235405 0.863518 0.962252 0.234101

loop_
_geom_bond_atom_site_label_1
_geom_bond_atom_site_label_2
_ccdc_geom_bond_type
O14   C46   A    
C57   C58   S    
O12   C45   A    
C50   C58   S    
C71   H38   S    
C27   C28   A    
C29   F9    S    
C21   C22   A    
C54   C57   S    
C1    O6    A    
C69   H31   S    
C34   C63   S    
C63   H14   S    
C40   C46   S    
C55   C56   S    
C41   C42   A    
C31   F4    S    
C13   F7    S    
O19   V4    S    
C1    C37   S    
C28   C62   S    
C5    C12   S    
C4    C7    S    
C9    C71   S    
C21   C23   A    
C6    H1    S    
C19   F1    S    
C55   F6    S    
C72   H40   S    
C50   C54   S    
C71   H39   S    
C56   C58   S    
C42   C65   S    
V2    O10   S    
C62   H12   S    
C64   H16   S    
O16   V4    S    
C20   C21   A    
O13   V3    S    
C17   F10   S    
C10   C15   S    
C63   H13   S    
C31   C32   A    
O8    V2    S    
C49   C53   S    
C32   C33   A    
C66   H23   S    
C44   C66   S    
C62   H11   S    
C70   H36   S    
C35   C37   A    
C9    C10   S    
C10   C13   S    
O17   V3    S    
O15   C47   A    
O7    V1    S    
C17   C22   A    
C36   C40   A    
C67   H27   S    
C58   C68   S    
C51   C59   T    
C49   C56   S    
C23   C48   S    
O9    C4    A    
C65   H19   S    
O11   V4    S    
C65   H20   S    
C57   C69   S    
C72   H41   S    
C67   H26   S    
C33   H4    S    
C39   C44   A    
C55   C57   S    
C19   C20   A    
C32   F5    S    
O19   C48   A    
C22   C26   A    
C6    C14   S    
V4    O20   S    
C24   C27   A    
C56   C60   S    
C5    C64   S    
C25   C26   A    
O4    C2    A    
C49   C50   S    
C18   C72   S    
H2    C14   S    
C35   C36   A    
C11   C12   S    
C38   C39   A    
C7    C15   T    
C31   C36   A    
C61   H9    S    
C3    C26   S    
O2    C1    A    
C29   C30   A    
O14   V3    S    
C23   C24   A    
C45   C51   S    
C53   C54   S    
C71   H37   S    
C62   H10   S    
C2    C52   S    
C61   H8    S    
C5    C6    S    
O18   V4    S    
C41   H5    S    
C43   F3    S    
C5    C9    S    
C63   H15   S    
O3    C4    A    
C20   H3    S    
C68   H30   S    
O1    V2    S    
C33   C34   A    
C53   C55   S    
O12   V3    S    
C12   C16   S    
O6    V2    S    
O9    V2    S    
O17   V4    S    
C70   H34   S    
C6    C10   S    
C28   C29   A    
O2    V1    S    
C69   H33   S    
V3    O20   S    
C72   H42   S    
C37   C38   A    
C68   H29   S    
C38   C41   A    
C49   C67   S    
C39   C40   A    
C8    C16   T    
O1    C2    A    
C17   C18   A    
O18   C47   A    
C69   H32   S    
O5    V1    S    
O8    C3    A    
C64   H18   S    
C25   C30   A    
C11   C13   S    
C12   C14   S    
C52   C60   T    
C66   H24   S    
O11   C46   A    
C18   C19   A    
C11   F8    S    
C43   C44   A    
O4    V1    S    
O3    V1    S    
V1    O10   S    
O5    C3    A    
C30   F2    S    
C42   C43   A    
C24   C25   A    
C45   O16   A    
C61   H7    S    
O13   C48   A    
C64   H17   S    
C66   H22   S    
O15   V3    S    
C9    C11   S    
O7    V2    S    
C53   C70   S    
C50   H6    S    
C27   C61   S    
C34   C35   A    
C54   C59   S    
C13   C14   S    
C70   H35   S    
C67   H25   S    
C8    C47   S    
C65   H21   S    
C68   H28   S    
