data_mof_unit_44080.cif
_audit_creation_date              2012-12-10T18:31:07-0500
_audit_creation_method            fapswitch 2.2
_symmetry_space_group_name_H-M    P1
_symmetry_Int_Tables_number       1
_space_group_crystal_system       triclinic
_cell_length_a                    13.581436
_cell_length_b                    14.936988
_cell_length_c                    15.444088
_cell_angle_alpha                 97.424631
_cell_angle_beta                  91.090341
_cell_angle_gamma                 96.588825
_cell_volume                      3084.46444291

loop_
_atom_site_label
_atom_site_type_symbol
_atom_type_description
_atom_site_fract_x
_atom_site_fract_y
_atom_site_fract_z
_atom_type_partial_charge
C1    C     C_R   0.516076 0.556300 0.662803 0.912483
C2    C     C_R   0.474056 0.445445 0.338670 0.938319
C3    C     C_R   0.481897 0.569718 0.905927 -0.087713
C4    C     C_R   0.414010 0.472036 0.108227 -0.144569
C5    C     C_R   0.537662 0.654438 0.938120 -0.169590
C6    C     C_R   0.363797 0.386830 0.072625 -0.096361
C7    C     C_R   0.428055 0.517688 0.963838 0.132913
C8    C     C_R   0.449821 0.536997 0.053589 0.057065
C9    C     C_R   0.513706 0.616195 0.085171 -0.193408
C10   C     C_R   0.352553 0.446522 0.934616 -0.259439
C11   C     C_R   0.553083 0.677256 0.029877 0.002882
C12   C     C_R   0.320471 0.380363 0.987431 -0.023140
C13   C     C_R   0.319630 0.150271 0.577741 0.332687
C14   C     C_R   0.670887 0.838291 0.392592 0.380736
C15   C     C_R   0.347134 0.241143 0.564065 0.472880
C16   C     C_R   0.628195 0.746811 0.390524 0.449914
C17   C     C_R   0.517423 0.215920 0.558991 -0.008806
C18   C     C_R   0.509274 0.795757 0.492440 0.096829
C19   C     C_R   0.490159 0.121515 0.561236 -0.061082
C20   C     C_R   0.558831 0.885738 0.506680 -0.067782
C21   C     C_R   0.394518 0.095369 0.587833 -0.082144
C22   C     C_R   0.646302 0.903161 0.460757 -0.120403
C23   C     C_R   0.318630 0.514757 0.496401 0.886350
C24   C     C_R   0.681450 0.484969 0.502356 0.856447
C25   C     C_R   0.551458 0.051218 0.537000 -0.026973
C26   C     C_R   0.518089 0.960956 0.554821 0.003002
C27   C     C_R   0.442545 0.948820 0.616685 0.441031
C28   C     C_R   0.639130 0.064403 0.488719 0.370099
C29   C     C_R   0.376934 0.017261 0.630108 -0.039715
C30   C     C_R   0.695027 0.991931 0.468795 -0.025394
C31   C     C_1   0.781496 0.471769 0.494906 -0.193217
C32   C     C_1   0.217901 0.525317 0.491976 -0.166732
C33   C     C_2   0.970174 0.458983 0.476194 0.401129
C34   C     C_2   0.028241 0.538687 0.485817 0.394089
C35   C     C_1   0.132394 0.533945 0.488419 -0.099449
C36   C     C_1   0.866518 0.462769 0.486246 -0.090934
C37   C     C_R   0.526716 0.590359 0.757121 -0.351386
C38   C     C_R   0.432407 0.420051 0.248407 -0.327946
C39   C     C_R   0.577167 0.711339 0.876991 0.325965
C40   C     C_R   0.356281 0.314263 0.124949 0.411222
C41   C     C_R   0.572454 0.678813 0.787259 0.318780
C42   C     C_R   0.391071 0.331037 0.214001 0.291855
C43   C     C_R   0.489676 0.533800 0.817792 0.347390
C44   C     C_R   0.424437 0.491085 0.198548 0.372874
H1    H     H_    0.538071 0.630039 0.152987 0.251907
H2    H     H_    0.317805 0.442187 0.870286 0.176438
N1    N     N_R   0.445040 0.272490 0.551770 -0.213754
N2    N     N_R   0.554960 0.727510 0.448230 -0.198428
O1    O     O_R   0.527700 0.614770 0.606110 -0.581986
O2    O     O_R   0.472300 0.385230 0.393890 -0.580970
O3    O     O_R   0.492440 0.468680 0.639380 -0.593730
O4    O     O_R   0.507560 0.531320 0.360620 -0.543302
O5    O     O_R   0.379820 0.583550 0.480950 -0.665124
O6    O     O_R   0.620180 0.416450 0.519050 -0.654966
O7    O     O_R   0.344560 0.437460 0.514220 -0.530596
O8    O     O_R   0.655440 0.562540 0.485780 -0.643306
Zn1   Zn    Zn3+2 0.523550 0.597550 0.477790 0.965282
Zn2   Zn    Zn3+2 0.476450 0.402450 0.522210 0.973257
O9    O     O_3   0.986594 0.620715 0.500484 -0.638030
C45   C     C_3   0.054013 0.696229 0.485524 0.071730
H3    H     H_    0.082229 0.686121 0.418098 0.151143
H4    H     H_    0.117269 0.707489 0.534169 0.154635
C46   C     C_3   0.001414 0.781329 0.495173 -0.737377
H5    H     H_    0.980639 0.798028 0.563991 0.241308
H6    H     H_    0.051451 0.839524 0.476787 0.235175
H7    H     H_    0.933547 0.770402 0.452196 0.255191
O10   O     O_3   0.012298 0.377170 0.464517 -0.613016
C47   C     C_3   0.946050 0.305137 0.420368 0.079309
H8    H     H_    0.912801 0.325435 0.360368 0.134457
H9    H     H_    0.886558 0.283444 0.464448 0.165632
C48   C     C_3   0.002220 0.224411 0.392261 -0.731343
H10   H     H_    0.032223 0.198917 0.450444 0.254616
H11   H     H_    0.951450 0.168839 0.354461 0.187352
H12   H     H_    0.064404 0.244799 0.350528 0.279523
O11   O     O_3   0.224787 0.105698 0.555829 -0.598647
C49   C     C_3   0.150889 0.140358 0.608812 0.108376
H13   H     H_    0.125444 0.199452 0.582452 0.209234
H14   H     H_    0.176290 0.158573 0.678412 0.159953
C50   C     C_3   0.061161 0.068591 0.604374 -0.809937
H15   H     H_    0.081150 0.006794 0.630003 0.248776
H16   H     H_    0.001192 0.095819 0.643961 0.217791
H17   H     H_    0.033276 0.049756 0.535615 0.283412
O12   O     O_3   0.706017 0.873019 0.317966 -0.575051
C51   C     C_3   0.788429 0.833462 0.283702 0.216377
H18   H     H_    0.761487 0.779996 0.229604 0.203317
H19   H     H_    0.832500 0.806068 0.333563 0.128870
C52   C     C_3   0.855953 0.904130 0.243129 -0.838004
H20   H     H_    0.885507 0.961246 0.293346 0.269445
H21   H     H_    0.919229 0.872330 0.212946 0.206958
H22   H     H_    0.814161 0.931261 0.191764 0.259598
O13   O     O_3   0.446234 0.876210 0.666197 -0.606622
C53   C     C_3   0.353869 0.841444 0.697212 0.051437
H23   H     H_    0.293214 0.837056 0.646775 0.129925
H24   H     H_    0.337704 0.883050 0.758987 0.161495
C54   C     C_3   0.357367 0.746256 0.721410 -0.828326
H25   H     H_    0.393399 0.703488 0.670778 0.274882
H26   H     H_    0.397952 0.749694 0.784801 0.231660
H27   H     H_    0.280785 0.713627 0.728549 0.199170
O14   O     O_3   0.670122 0.146778 0.460075 -0.672662
C55   C     C_3   0.662261 0.138370 0.367843 0.079172
H28   H     H_    0.591837 0.097631 0.341489 0.163496
H29   H     H_    0.725387 0.105853 0.338146 0.159069
C56   C     C_3   0.665470 0.232711 0.340158 -0.875907
H30   H     H_    0.735197 0.274903 0.364955 0.241063
H31   H     H_    0.661583 0.227586 0.267794 0.207604
H32   H     H_    0.602084 0.266475 0.367137 0.279801
C57   C     C_2   0.618564 0.758243 0.071413 0.417130
H33   H     H_    0.688643 0.779468 0.043480 0.110464
O15   O     O_2   0.595222 0.801169 0.139119 -0.541001
C58   C     C_2   0.237537 0.311233 0.952089 0.467560
H34   H     H_    0.230015 0.289164 0.882231 0.036702
O16   O     O_2   0.173483 0.282794 0.999371 -0.510823
O17   O     O_3   0.413329 0.577545 0.239841 -0.558639
C59   C     C_3   0.314142 0.594988 0.227448 0.096279
H35   H     H_    0.260105 0.537108 0.241853 0.135299
H36   H     H_    0.300679 0.608335 0.159252 0.155002
C60   C     C_3   0.295313 0.678779 0.288727 -0.714610
H37   H     H_    0.220131 0.697006 0.274870 0.186884
H38   H     H_    0.299450 0.664337 0.357198 0.259494
H39   H     H_    0.351315 0.736929 0.279942 0.285932
O18   O     O_3   0.461705 0.442189 0.790833 -0.634972
C61   C     C_3   0.537092 0.391169 0.814258 0.113485
H40   H     H_    0.565891 0.412266 0.882801 0.126224
H41   H     H_    0.599727 0.398436 0.769363 0.178753
C62   C     C_3   0.494462 0.291579 0.806500 -0.724508
H42   H     H_    0.467615 0.266717 0.738481 0.253870
H43   H     H_    0.551984 0.249993 0.825525 0.237540
H44   H     H_    0.430914 0.283368 0.849826 0.221923
O19   O     O_3   0.361141 0.271312 0.273071 -0.552054
C63   C     C_3   0.398972 0.187104 0.254539 0.141883
H45   H     H_    0.477602 0.195378 0.234886 0.102058
H46   H     H_    0.352298 0.141880 0.203465 0.200284
C64   C     C_3   0.392544 0.139485 0.335826 -0.775396
H47   H     H_    0.315344 0.133729 0.358825 0.279736
H48   H     H_    0.415006 0.070118 0.321148 0.205494
H49   H     H_    0.442244 0.178865 0.388248 0.253908
O20   O     O_3   0.608921 0.736273 0.728891 -0.546944
C65   C     C_3   0.710123 0.726887 0.716840 0.161241
H50   H     H_    0.721809 0.654507 0.696874 0.108574
H51   H     H_    0.754653 0.753657 0.777871 0.157174
C66   C     C_3   0.747230 0.781255 0.644802 -0.735256
H52   H     H_    0.827629 0.777196 0.637006 0.200175
H53   H     H_    0.707290 0.753121 0.582085 0.247487
H54   H     H_    0.734970 0.853643 0.661451 0.259649
O21   O     O_3   0.624356 0.797834 0.903622 -0.630766
C67   C     C_3   0.555406 0.861326 0.900562 0.129936
H55   H     H_    0.488109 0.843075 0.937812 0.132443
H56   H     H_    0.533328 0.866076 0.831774 0.222804
C68   C     C_3   0.603797 0.954536 0.941168 -0.805645
H57   H     H_    0.671348 0.974622 0.905512 0.266177
H58   H     H_    0.551363 0.005747 0.937333 0.204674
H59   H     H_    0.624668 0.953088 0.010815 0.261130
O22   O     O_3   0.314497 0.227873 0.090635 -0.558353
C69   C     C_3   0.383746 0.185264 0.037019 0.041042
H60   H     H_    0.450637 0.175807 0.075958 0.103000
H61   H     H_    0.408113 0.225182 0.983787 0.140558
C70   C     C_3   0.335516 0.092445 0.995138 -0.718692
H62   H     H_    0.268105 0.100088 0.956202 0.285920
H63   H     H_    0.388053 0.059150 0.951119 0.210287
H64   H     H_    0.314466 0.048747 0.046372 0.232699
C71   C     C_2   0.300722 0.019228 0.697415 0.383046
H65   H     H_    0.233614 0.971791 0.689060 0.053604
O23   O     O_2   0.312005 0.076124 0.762187 -0.619732
C72   C     C_2   0.803505 0.010513 0.457406 0.419759
H66   H     H_    0.837203 0.078598 0.450798 0.078845
O24   O     O_2   0.857426 0.951024 0.461144 -0.619472
C73   C     C_2   0.400488 0.780619 0.497763 0.445290
H67   H     H_    0.365282 0.730424 0.534403 0.098980
O25   O     O_2   0.348370 0.826850 0.461332 -0.625594
C74   C     C_2   0.617209 0.254656 0.595123 0.540861
H68   H     H_    0.670853 0.288999 0.556584 0.136411
O26   O     O_2   0.644263 0.240162 0.667270 -0.628719
O27   O     O_3   0.638502 0.685013 0.316496 -0.578666
C75   C     C_3   0.715326 0.630252 0.328255 0.145824
H69   H     H_    0.681168 0.563095 0.340929 0.208700
H70   H     H_    0.770326 0.659529 0.381997 0.122367
C76   C     C_3   0.769638 0.608459 0.243600 -0.965199
H71   H     H_    0.837073 0.657262 0.240815 0.226182
H72   H     H_    0.795103 0.540044 0.240746 0.232182
H73   H     H_    0.719967 0.608506 0.185644 0.272702
O28   O     O_3   0.275000 0.299304 0.570840 -0.573297
C77   C     C_3   0.273993 0.340504 0.658960 0.090626
H74   H     H_    0.334851 0.396273 0.671458 0.241359
H75   H     H_    0.282241 0.292297 0.707323 0.104359
C78   C     C_3   0.177688 0.381983 0.676217 -0.839263
H76   H     H_    0.113964 0.328384 0.675209 0.240385
H77   H     H_    0.183075 0.423260 0.741674 0.201890
H78   H     H_    0.163779 0.426596 0.626507 0.285849

loop_
_geom_bond_atom_site_label_1
_geom_bond_atom_site_label_2
_ccdc_geom_bond_type
C16   O27   S    
C7    C10   A    
C52   H20   S    
C46   H6    S    
C9    H1    S    
C70   H62   S    
C64   H47   S    
C27   C29   A    
C54   H25   S    
C51   C52   S    
C30   C72   S    
C4    C8    A    
C16   N2    A    
C50   H17   S    
C12   C58   S    
C59   H35   S    
C54   H27   S    
N2    Zn1   S    
C39   C41   A    
O27   C75   S    
C25   C28   A    
C3    C43   A    
C26   C27   A    
C74   O26   D    
C45   C46   S    
C72   H66   S    
C19   C21   A    
C49   H14   S    
O17   C59   S    
C3    C7    A    
C68   H58   S    
C6    C12   A    
C78   H77   S    
C74   H68   S    
C24   O6    A    
C33   C36   S    
O1    Zn1   S    
O8    Zn1   S    
C18   C20   A    
C45   H4    S    
C34   C35   S    
C75   H69   S    
C53   H23   S    
C2    O2    A    
C58   O16   D    
C58   H34   S    
C13   O11   S    
C8    C9    A    
C76   H72   S    
C10   H2    S    
C62   H44   S    
C57   H33   S    
C49   C50   S    
C60   H38   S    
C27   O13   S    
C15   N1    A    
C56   H32   S    
C43   O18   S    
C69   H61   S    
C52   H22   S    
C1    C37   S    
C40   C42   A    
C46   H7    S    
O9    C45   S    
C70   H63   S    
C60   H39   S    
C64   H48   S    
C57   O15   D    
C14   O12   S    
C10   C12   A    
C53   H24   S    
C71   O23   D    
C23   O5    A    
C67   H56   S    
C67   H55   S    
O10   C47   S    
O2    Zn2   S    
C32   C35   T    
C29   C71   S    
C7    C8    A    
C49   H13   S    
C69   C70   S    
C4    C6    A    
O4    Zn1   S    
C66   H54   S    
C73   H67   S    
C48   H11   S    
O5    Zn1   S    
C17   C74   S    
C47   H8    S    
C78   H78   S    
C4    C44   A    
C25   C26   A    
O28   C77   S    
C21   C29   A    
C55   C56   S    
C46   H5    S    
C73   O25   D    
C45   H3    S    
C66   H53   S    
C37   C43   A    
C63   H46   S    
O11   C49   S    
C38   C44   A    
C64   H49   S    
C67   C68   S    
C9    C11   A    
C2    C38   S    
O12   C51   S    
C76   H73   S    
C39   O21   S    
C55   H29   S    
C33   C34   D    
C69   H60   S    
C13   C21   A    
C56   H31   S    
O3    Zn2   S    
C51   H18   S    
C23   O7    A    
C1    O3    A    
C75   C76   S    
O18   C61   S    
C2    O4    A    
C28   O14   S    
C20   C22   A    
C44   O17   S    
C70   H64   S    
C13   C15   A    
C11   C57   S    
C34   O9    S    
C14   C16   A    
C40   O22   S    
C68   H59   S    
C63   C64   S    
C61   H41   S    
O21   C67   S    
O13   C53   S    
C33   O10   S    
C50   H16   S    
O19   C63   S    
O6    Zn2   S    
C5    C39   A    
C22   C30   A    
C41   O20   S    
C17   N1    A    
C51   H19   S    
C3    C5    A    
C65   C66   S    
C18   N2    A    
C48   H12   S    
C59   H36   S    
C18   C73   S    
C54   H26   S    
C5    C11   A    
C65   H51   S    
C24   O8    A    
O20   C65   S    
C60   H37   S    
O14   C55   S    
C23   C32   S    
C14   C22   A    
C61   C62   S    
C72   O24   D    
C63   H45   S    
C61   H40   S    
C24   C31   S    
C48   H10   S    
C71   H65   S    
C66   H52   S    
N1    Zn2   S    
C78   H76   S    
C62   H42   S    
C20   C26   A    
C47   C48   S    
C15   O28   S    
C28   C30   A    
C55   H28   S    
C17   C19   A    
C75   H70   S    
C42   O19   S    
C6    C40   A    
C53   C54   S    
C37   C41   A    
C19   C25   A    
C77   H75   S    
C59   C60   S    
C65   H50   S    
C50   H15   S    
C38   C42   A    
C47   H9    S    
C76   H71   S    
O7    Zn2   S    
C56   H30   S    
C62   H43   S    
C52   H21   S    
C31   C36   T    
O22   C69   S    
C68   H57   S    
C1    O1    A    
C77   C78   S    
C77   H74   S    
