data_mof_unit_39631.cif
_audit_creation_date              2012-10-26T19:56:47-0400
_audit_creation_method            fapswitch 2.2
_symmetry_space_group_name_H-M    P1
_symmetry_Int_Tables_number       1
_space_group_crystal_system       triclinic
_cell_length_a                    15.90945
_cell_length_b                    15.252059
_cell_length_c                    9.877398
_cell_angle_alpha                 89.093694
_cell_angle_beta                  60.940635
_cell_angle_gamma                 89.251488
_cell_volume                      2094.75462201

loop_
_atom_site_label
_atom_site_type_symbol
_atom_type_description
_atom_site_fract_x
_atom_site_fract_y
_atom_site_fract_z
_atom_type_partial_charge
C1    C     C_R   0.368466 0.115031 0.561255 0.565633
C2    C     C_2   0.489588 0.991379 0.084656 0.348257
C3    C     C_2   0.010809 0.489394 0.915036 0.349855
C4    C     C_2   0.989566 0.489715 0.084595 0.342248
C5    C     C_2   0.302268 0.809748 0.596752 0.003041
C6    C     C_2   0.702250 0.183443 0.401313 0.016403
C7    C     C_2   0.691218 0.802719 0.408511 -0.044540
C8    C     C_2   0.285934 0.172821 0.593508 -0.010389
C9    C     C_2   0.792973 0.320441 0.606489 -0.010084
C10   C     C_2   0.209960 0.676109 0.408766 -0.010400
C11   C     C_2   0.197421 0.309787 0.408539 0.004092
C12   C     C_R   0.624195 0.877729 0.441145 0.528972
C13   C     C_2   0.786371 0.673653 0.592898 -0.007165
C14   C     C_2   0.319090 0.746606 0.490386 0.186534
C15   C     C_2   0.702550 0.229712 0.516052 0.224830
C16   C     C_2   0.671641 0.737751 0.516252 0.191990
C17   C     C_2   0.249703 0.175949 0.494074 0.187241
C18   C     C_2   0.792608 0.269054 0.496556 0.228609
C19   C     C_2   0.244609 0.680901 0.510544 0.186430
C20   C     C_2   0.176218 0.242520 0.511246 0.185891
C21   C     C_2   0.746184 0.672494 0.499244 0.250437
C22   C     C_R   0.768911 0.203197 0.235194 0.074989
C23   C     C_R   0.626688 0.119119 0.438707 0.538555
C24   C     C_R   0.822237 0.136405 0.131749 -0.069627
C25   C     C_R   0.875785 0.154341 0.973103 -0.130484
C26   C     C_R   0.875871 0.238997 0.917236 -0.063094
C27   C     C_R   0.824947 0.306036 0.019742 -0.092846
C28   C     C_R   0.771688 0.288492 0.178136 -0.061808
C29   C     C_R   0.216804 0.812434 0.755436 -0.001954
C30   C     C_R   0.195591 0.742232 0.861339 -0.056160
C31   C     C_R   0.124781 0.750822 0.016112 -0.084708
C32   C     C_R   0.080738 0.831912 0.070773 -0.093623
C33   C     C_R   0.105328 0.903660 0.969415 -0.123257
C34   C     C_R   0.374248 0.879382 0.560577 0.566715
C35   C     C_R   0.169906 0.893314 0.811926 -0.094250
C36   C     C_R   0.232338 0.211317 0.749602 0.027670
C37   C     C_R   0.153177 0.165905 0.865589 -0.073592
C38   C     C_R   0.101567 0.200181 0.014128 -0.099643
C39   C     C_R   0.130178 0.278807 0.048925 -0.089661
C40   C     C_R   0.211158 0.322714 0.935787 -0.121053
C41   C     C_R   0.262163 0.289342 0.785736 -0.088159
C42   C     C_R   0.777504 0.801756 0.250815 0.006900
C43   C     C_R   0.796356 0.731422 0.148993 -0.058214
C44   C     C_R   0.869754 0.737020 0.995136 -0.087307
C45   C     C_R   0.868768 0.615489 0.561055 0.545774
C46   C     C_R   0.919259 0.815459 0.937355 -0.090400
C47   C     C_R   0.897155 0.887349 0.034828 -0.118966
C48   C     C_R   0.830262 0.879237 0.191960 -0.092122
C49   C     C_R   0.263002 0.714940 0.252797 0.024722
C50   C     C_R   0.335873 0.665165 0.135342 -0.092940
C51   C     C_R   0.388786 0.700026 0.986742 -0.109280
C52   C     C_R   0.367667 0.784091 0.954154 -0.071765
C53   C     C_R   0.291746 0.832221 0.068693 -0.107160
C54   C     C_R   0.239951 0.798303 0.219123 -0.085425
C55   C     C_R   0.718409 0.316473 0.774236 0.046166
C56   C     C_R   0.125942 0.379649 0.440655 0.574253
C57   C     C_R   0.695229 0.236157 0.856201 -0.109717
C58   C     C_R   0.631013 0.233825 0.015417 -0.091061
C59   C     C_R   0.593657 0.311657 0.096027 -0.083444
C60   C     C_R   0.619540 0.392002 0.017125 -0.132756
C61   C     C_R   0.679425 0.394369 0.856713 -0.071125
C62   C     C_R   0.732950 0.712029 0.748243 0.041906
C63   C     C_R   0.656678 0.664172 0.864231 -0.046769
C64   C     C_R   0.606231 0.696426 0.013761 -0.103910
C65   C     C_R   0.630529 0.777292 0.048550 -0.072724
C66   C     C_R   0.707532 0.824816 0.933980 -0.115788
C67   C     C_R   0.130708 0.615637 0.438742 0.553923
C68   C     C_R   0.759044 0.792320 0.783363 -0.096635
C69   C     C_R   0.288251 0.317032 0.258106 -0.002511
C70   C     C_R   0.313636 0.253635 0.142312 -0.060471
C71   C     C_R   0.389813 0.268317 0.993047 -0.093217
C72   C     C_R   0.437509 0.348501 0.955161 -0.091227
C73   C     C_R   0.411509 0.412777 0.067749 -0.122319
C74   C     C_R   0.338653 0.396701 0.219077 -0.097469
C75   C     C_R   0.871842 0.382216 0.562720 0.528559
C76   C     C_2   0.511005 0.991609 0.914760 0.325368
Cu1   Cu    Cu3+1 0.522650 0.000000 0.349410 1.016187
Cu2   Cu    Cu3+1 0.477350 1.000000 0.650590 0.981114
Cu3   Cu    Cu3+1 0.022650 0.500000 0.349410 1.005660
Cu4   Cu    Cu3+1 0.977350 0.500000 0.650590 1.017512
H1    H     H_    0.625108 0.015813 0.038929 0.145787
H2    H     H_    0.931186 0.248252 0.386085 0.309474
H3    H     H_    0.709284 0.593263 0.387824 0.306418
H4    H     H_    0.076105 0.175595 0.677309 0.306684
H5    H     H_    0.820418 0.070499 0.173709 0.093645
H6    H     H_    0.914970 0.102269 0.893249 0.086472
H7    H     H_    0.911712 0.252261 0.794349 0.180537
H8    H     H_    0.822361 0.370565 0.975872 0.128148
H9    H     H_    0.729014 0.340404 0.255550 0.109420
H10   H     H_    0.238264 0.683187 0.829574 0.116631
H11   H     H_    0.108757 0.696192 0.095954 0.142294
H12   H     H_    0.375764 0.019162 0.959961 0.159694
H13   H     H_    0.029170 0.839638 0.192199 0.109974
H14   H     H_    0.073526 0.967271 0.012853 0.091632
H15   H     H_    0.187553 0.949805 0.735272 0.106117
H16   H     H_    0.131012 0.104291 0.840280 0.073010
H17   H     H_    0.039662 0.165622 0.102227 0.133383
H18   H     H_    0.089700 0.305000 0.163917 0.165851
H19   H     H_    0.234226 0.382817 0.964241 0.118066
H20   H     H_    0.324471 0.323925 0.698514 0.102297
H21   H     H_    0.750586 0.674773 0.183519 0.111548
H22   H     H_    0.883810 0.682630 0.917977 0.140280
H23   H     H_    0.124414 0.517748 0.038618 0.158014
H24   H     H_    0.972923 0.821217 0.816407 0.115942
H25   H     H_    0.932558 0.949285 0.988839 0.092382
H26   H     H_    0.816016 0.934576 0.267289 0.096002
H27   H     H_    0.352626 0.600043 0.160424 0.079988
H28   H     H_    0.445938 0.661717 0.897558 0.151124
H29   H     H_    0.409718 0.811352 0.840024 0.177097
H30   H     H_    0.272929 0.895805 0.041036 0.109618
H31   H     H_    0.182074 0.836323 0.308128 0.091712
H32   H     H_    0.727141 0.175490 0.796845 0.099143
H33   H     H_    0.612508 0.172027 0.077418 0.143532
H34   H     H_    0.875865 0.519068 0.960781 0.150223
H35   H     H_    0.545767 0.309765 0.219864 0.120246
H36   H     H_    0.592068 0.452493 0.079966 0.090804
H37   H     H_    0.697761 0.457072 0.797031 0.111088
H38   H     H_    0.636219 0.601813 0.838530 0.097097
H39   H     H_    0.549078 0.657795 0.101794 0.099127
H40   H     H_    0.590591 0.802068 0.164708 0.195020
H41   H     H_    0.728178 0.886231 0.962337 0.112101
H42   H     H_    0.818919 0.829106 0.695282 0.088686
H43   H     H_    0.270848 0.195745 0.162556 0.114351
H44   H     H_    0.408364 0.219339 0.904643 0.145267
H45   H     H_    0.601117 0.199278 0.718409 0.346394
H46   H     H_    0.493820 0.361540 0.838233 0.172142
H47   H     H_    0.448206 0.475097 0.037311 0.090896
H48   H     H_    0.318543 0.447905 0.304341 0.106334
H49   H     H_    0.356371 0.957703 0.164653 0.291217
H50   H     H_    0.644744 0.957581 0.834581 0.288815
H51   H     H_    0.858348 0.450898 0.161954 0.285089
H52   H     H_    0.143161 0.452041 0.838516 0.290603
H53   H     H_    0.415669 0.682664 0.318375 0.303799
H54   H     H_    0.221487 0.105961 0.360543 0.300162
H55   H     H_    0.533193 0.749535 0.620490 0.314420
H56   H     H_    0.279815 0.602802 0.629207 0.300050
N1    N     N_2   0.443290 1.000000 0.876860 -0.327210
N2    N     N_2   0.556710 1.000000 0.123140 -0.331317
N3    N     N_2   0.943290 0.500000 0.876860 -0.331512
N4    N     N_2   0.056710 0.500000 0.123140 -0.330229
O1    O     O_R   0.422430 0.089640 0.419570 -0.400585
O2    O     O_R   0.615830 0.910350 0.326090 -0.525937
O3    O     O_R   0.615830 0.089650 0.326090 -0.533932
O4    O     O_R   0.384170 0.910350 0.673910 -0.547867
O5    O     O_R   0.884170 0.589650 0.673910 -0.540730
O6    O     O_R   0.115830 0.410350 0.326090 -0.544196
O7    O     O_R   0.115830 0.589650 0.326090 -0.534902
O8    O     O_R   0.884170 0.410350 0.673910 -0.533281
O9    O     O_3   0.615857 0.248917 0.644816 -0.745471
O10   O     O_3   0.408795 0.742128 0.361127 -0.715225
O11   O     O_3   0.275111 0.111800 0.383877 -0.663746
O12   O     O_R   0.577570 0.910360 0.580430 -0.418550
O13   O     O_3   0.583059 0.730589 0.647549 -0.724276
O14   O     O_3   0.221361 0.615294 0.620251 -0.666072
O15   O     O_3   0.877496 0.250885 0.361951 -0.720130
O16   O     O_3   0.766924 0.603412 0.399247 -0.662462
O17   O     O_3   0.084219 0.235835 0.633992 -0.721566
O18   O     O_3   0.397067 0.981696 0.204292 -0.595388
O19   O     O_3   0.603851 0.983154 0.794837 -0.656134
O20   O     O_3   0.896967 0.478161 0.203142 -0.592832
O21   O     O_3   0.103117 0.476570 0.796241 -0.599306
O22   O     O_R   0.577570 0.089640 0.580430 -0.449050
O23   O     O_R   0.422430 0.910360 0.419570 -0.382138
O24   O     O_R   0.922430 0.589640 0.419570 -0.404087
O25   O     O_R   0.077570 0.410360 0.580430 -0.382117
O26   O     O_R   0.077570 0.589640 0.580430 -0.401576
O27   O     O_R   0.922430 0.410360 0.419570 -0.407926
O28   O     O_R   0.384170 0.089650 0.673910 -0.521315

loop_
_geom_bond_atom_site_label_1
_geom_bond_atom_site_label_2
_ccdc_geom_bond_type
C53   H30   S    
Cu1   O23   S    
C15   C18   S    
C66   C68   A    
C18   O15   S    
C76   O19   S    
C16   C21   S    
C1    C8    S    
C73   C74   A    
C12   O12   A    
Cu3   O24   S    
C30   H10   S    
C33   H14   S    
C40   H19   S    
Cu1   O3    S    
Cu2   O12   S    
Cu1   Cu2   S    
C34   O4    A    
C26   C27   A    
C37   C38   A    
C64   H39   S    
C45   O5    A    
C36   C37   A    
C45   O24   A    
C69   C70   A    
C30   C31   A    
C57   H32   S    
C6    C23   S    
C49   C54   A    
C6    C22   S    
C17   C20   S    
C8    C36   S    
C7    C42   S    
C49   C50   A    
Cu1   O2    S    
C6    C15   D    
H52   O21   S    
C70   H43   S    
C21   O16   S    
C74   H48   S    
C13   C62   S    
C47   C48   A    
C51   H28   S    
C47   H25   S    
C56   O25   A    
C58   H33   S    
C70   C71   A    
C9    C55   S    
C29   C30   A    
C24   H5    S    
C23   O22   A    
Cu3   N4    S    
C59   C60   A    
C22   C28   A    
C23   O3    A    
C36   C41   A    
C17   O11   S    
C38   H17   S    
H12   N1    S    
Cu4   O26   S    
H49   O18   S    
C44   C46   A    
Cu3   O6    S    
C5    C29   S    
C76   N1    D    
H1    N2    S    
C48   H26   S    
C11   C20   D    
C66   H41   S    
C61   H37   S    
C51   C52   A    
C2    N2    D    
C71   H44   S    
C38   C39   A    
Cu1   N2    S    
C34   O23   A    
C68   H42   S    
C39   C40   A    
C63   H38   S    
C44   H22   S    
C26   H7    S    
C39   H18   S    
Cu3   O7    S    
H3    O16   S    
C1    O28   A    
C25   C26   A    
C53   C54   A    
C46   H24   S    
C63   C64   A    
C37   H16   S    
C72   H46   S    
H50   O19   S    
C43   C44   A    
C43   H21   S    
C62   C63   A    
Cu2   O4    S    
C4    N4    D    
H56   O14   S    
C31   C32   A    
C10   C19   D    
C2    O18   S    
C5    C34   S    
C14   O10   S    
C50   C51   A    
C41   H20   S    
C13   C21   D    
C69   C74   A    
C42   C48   A    
H34   N3    S    
C24   C25   A    
C5    C14   D    
C28   H9    S    
H45   O9    S    
H2    O15   S    
C67   O26   A    
C40   C41   A    
Cu2   O22   S    
C31   H11   S    
C20   O17   S    
C55   C57   A    
C67   O7    A    
C50   H27   S    
C22   C24   A    
C7    C12   S    
C60   H36   S    
C3    N3    D    
C42   C43   A    
C3    C4    S    
Cu2   N1    S    
Cu4   O25   S    
C15   O9    S    
C2    C76   S    
C52   C53   A    
C46   C47   A    
Cu4   O5    S    
C14   C19   S    
C7    C16   D    
H53   O10   S    
C72   C73   A    
H4    O17   S    
C11   C69   S    
C35   H15   S    
C75   O8    A    
Cu4   N3    S    
C29   C35   A    
Cu2   O28   S    
C8    C17   D    
H55   O13   S    
C62   C68   A    
C64   C65   A    
C58   C59   A    
C71   C72   A    
C73   H47   S    
H23   N4    S    
C32   C33   A    
C13   C45   S    
C57   C58   A    
C4    O20   S    
C52   H29   S    
H54   O11   S    
C55   C61   A    
C25   H6    S    
C33   C35   A    
C65   H40   S    
C12   O2    A    
C54   H31   S    
C32   H13   S    
C56   O6    A    
C27   H8    S    
Cu1   O1    S    
C10   C67   S    
C1    O1    A    
C3    O21   S    
Cu3   Cu4   S    
C9    C18   D    
Cu4   O8    S    
C59   H35   S    
C65   C66   A    
C16   O13   S    
C19   O14   S    
C60   C61   A    
C75   O27   A    
C9    C75   S    
Cu3   O27   S    
C10   C49   S    
H51   O20   S    
C11   C56   S    
C27   C28   A    
