data_mof_unit_42364.cif
_audit_creation_date              2012-12-10T18:30:25-0500
_audit_creation_method            fapswitch 2.2
_symmetry_space_group_name_H-M    P1
_symmetry_Int_Tables_number       1
_space_group_crystal_system       triclinic
_cell_length_a                    14.882644
_cell_length_b                    14.176189
_cell_length_c                    15.122374
_cell_angle_alpha                 90.284991
_cell_angle_beta                  80.493784
_cell_angle_gamma                 104.186601
_cell_volume                      3048.62377397

loop_
_atom_site_label
_atom_site_type_symbol
_atom_type_description
_atom_site_fract_x
_atom_site_fract_y
_atom_site_fract_z
_atom_type_partial_charge
C1    C     C_R   0.560342 0.511709 0.335850 0.864424
C2    C     C_R   0.441255 0.469173 0.661820 0.893068
C3    C     C_R   0.554458 0.452179 0.099293 -0.021199
C4    C     C_R   0.440829 0.380256 0.901650 -0.042965
C5    C     C_R   0.645546 0.437623 0.068586 -0.093617
C6    C     C_R   0.344042 0.369977 0.937849 -0.104112
C7    C     C_R   0.481759 0.415547 0.049263 0.050785
C8    C     C_R   0.504000 0.382935 0.963321 0.054064
C9    C     C_R   0.584005 0.346269 0.947394 -0.322723
C10   C     C_R   0.386848 0.397726 0.086454 -0.352417
C11   C     C_R   0.660143 0.381946 0.992206 0.473272
C12   C     C_R   0.315997 0.372910 0.032804 0.506916
C13   C     C_R   0.151474 0.310951 0.418522 -0.277850
C14   C     C_R   0.859691 0.671797 0.589235 -0.307802
C15   C     C_R   0.244826 0.361011 0.411299 -0.017517
C16   C     C_R   0.770818 0.645026 0.566549 0.002604
C17   C     C_R   0.202553 0.494527 0.487009 -0.050453
C18   C     C_R   0.779906 0.480989 0.554542 -0.070740
C19   C     C_R   0.106524 0.444150 0.502337 -0.046171
C20   C     C_R   0.876484 0.507636 0.559811 -0.032272
C21   C     C_R   0.081557 0.352457 0.463924 0.032412
C22   C     C_R   0.910531 0.601129 0.592587 -0.000113
C23   C     C_R   0.499043 0.329143 0.498873 0.850123
C24   C     C_R   0.501397 0.670950 0.500262 0.900578
C25   C     C_R   0.034608 0.483129 0.551214 -0.083740
C26   C     C_R   0.940859 0.448556 0.532439 -0.080632
C27   C     C_R   0.920117 0.361363 0.481679 0.025107
C28   C     C_R   0.053291 0.557963 0.614516 0.057373
C29   C     C_R   0.987107 0.305340 0.467592 0.457347
C30   C     C_R   0.992739 0.620727 0.630911 0.456542
C31   C     C_1   0.496919 0.227057 0.498206 -0.228126
C32   C     C_1   0.503949 0.773168 0.500632 -0.224471
C33   C     C_1   0.497507 0.141951 0.498379 -0.012281
C34   C     C_1   0.503784 0.858404 0.500382 -0.011149
C35   C     C_1   0.499732 0.042574 0.499033 0.003274
C36   C     C_1   0.501890 0.957889 0.499703 0.004808
C37   C     C_R   0.601038 0.508321 0.239258 -0.219310
C38   C     C_R   0.406380 0.417111 0.753220 -0.229720
C39   C     C_R   0.719009 0.476794 0.116316 0.453524
C40   C     C_R   0.278009 0.351930 0.878284 0.445588
C41   C     C_R   0.693606 0.495902 0.207925 0.040766
C42   C     C_R   0.309488 0.371957 0.784704 -0.004586
C43   C     C_R   0.541464 0.507506 0.176278 0.103447
C44   C     C_R   0.472177 0.400357 0.807173 0.106158
H1    H     H_    0.584091 0.284085 0.906305 0.151404
H2    H     H_    0.368597 0.395566 0.158477 0.139490
H3    H     H_    0.742057 0.406443 0.551692 0.126546
H4    H     H_    0.226434 0.567400 0.509392 0.127079
H5    H     H_    0.731594 0.699350 0.563419 0.140697
H6    H     H_    0.299258 0.326622 0.381389 0.144644
H7    H     H_    0.134609 0.240408 0.388901 0.194875
H8    H     H_    0.888168 0.747004 0.603943 0.176520
N1    N     N_R   0.268300 0.449640 0.447270 -0.092339
N2    N     N_R   0.731700 0.550360 0.552730 -0.081508
O1    O     O_R   0.616880 0.525390 0.394380 -0.589606
O2    O     O_R   0.383120 0.474610 0.605620 -0.597940
O3    O     O_R   0.468100 0.493070 0.360490 -0.607632
O4    O     O_R   0.531900 0.506930 0.639510 -0.595902
O5    O     O_R   0.574410 0.389880 0.516950 -0.621534
O6    O     O_R   0.425590 0.610120 0.483050 -0.591375
O7    O     O_R   0.425630 0.357560 0.483060 -0.596949
O8    O     O_R   0.574370 0.642440 0.516940 -0.601118
Zn1   Zn    Zn3+2 0.599340 0.521580 0.522630 0.902338
Zn2   Zn    Zn3+2 0.400660 0.478420 0.477370 0.911457
O9    O     O_3   0.742659 0.350919 0.970922 -0.614220
C45   C     C_3   0.778939 0.366063 0.877859 0.136529
H9    H     H_    0.797540 0.445010 0.858792 0.142741
H10   H     H_    0.729132 0.325735 0.835758 0.135973
C46   C     C_3   0.866443 0.327796 0.855021 -0.903994
H11   H     H_    0.850253 0.249699 0.876126 0.268738
H12   H     H_    0.891988 0.335584 0.781481 0.209318
H13   H     H_    0.922692 0.369777 0.889116 0.257318
O10   O     O_3   0.220568 0.351427 0.070510 -0.587203
C47   C     C_3   0.201614 0.402770 0.149490 0.095723
H14   H     H_    0.242898 0.480222 0.142430 0.132800
H15   H     H_    0.216811 0.365865 0.207979 0.155410
C48   C     C_3   0.098059 0.402652 0.169496 -0.869811
H16   H     H_    0.054068 0.326750 0.177649 0.262931
H17   H     H_    0.083738 0.440469 0.232845 0.219214
H18   H     H_    0.079115 0.441494 0.114612 0.241092
C49   C     C_3   0.836291 0.333248 0.431869 -0.393976
C50   C     C_3   0.854250 0.288044 0.340175 -0.796416
H19   H     H_    0.922606 0.327881 0.300845 0.255980
H20   H     H_    0.851473 0.209577 0.347164 0.298531
H21   H     H_    0.797699 0.292210 0.301891 0.211727
H22   H     H_    0.776048 0.282785 0.474697 0.196240
H23   H     H_    0.817537 0.400417 0.414555 0.210505
C51   C     C_3   0.133970 0.568779 0.667812 -0.336428
C52   C     C_3   0.101546 0.552497 0.768922 -0.908236
H24   H     H_    0.090583 0.620017 0.800346 0.288881
H25   H     H_    0.036496 0.492944 0.784063 0.250534
H26   H     H_    0.157519 0.532731 0.799745 0.227750
H27   H     H_    0.173531 0.513132 0.650319 0.193977
H28   H     H_    0.183488 0.641671 0.653167 0.223190
C53   C     C_3   0.573490 0.402620 0.763221 -0.300078
C54   C     C_3   0.644746 0.497511 0.778460 -0.814765
H29   H     H_    0.626752 0.562163 0.752354 0.274419
H30   H     H_    0.647578 0.508567 0.850466 0.242838
H31   H     H_    0.715905 0.495310 0.743777 0.219970
H32   H     H_    0.579695 0.386719 0.691305 0.213673
H33   H     H_    0.595518 0.338500 0.781320 0.141917
C55   C     C_3   0.478085 0.578628 0.185407 -0.339178
C56   C     C_3   0.496007 0.645083 0.101664 -0.867464
H34   H     H_    0.572114 0.681235 0.083766 0.268691
H35   H     H_    0.472042 0.603623 0.043942 0.261971
H36   H     H_    0.456418 0.702073 0.115065 0.244150
H37   H     H_    0.402564 0.541659 0.202348 0.191328
H38   H     H_    0.493100 0.627862 0.241450 0.203852
C57   C     C_3   0.243374 0.329637 0.719337 -0.357407
C58   C     C_3   0.274380 0.246781 0.668157 -0.778996
H39   H     H_    0.231101 0.223876 0.614952 0.239973
H40   H     H_    0.349202 0.269436 0.636728 0.248541
H41   H     H_    0.265016 0.183514 0.714810 0.256112
H42   H     H_    0.170645 0.297639 0.753269 0.221543
H43   H     H_    0.236538 0.385985 0.672756 0.215888
C59   C     C_3   0.763036 0.493885 0.270132 -0.384742
C60   C     C_3   0.815605 0.596094 0.291369 -0.760602
H44   H     H_    0.858323 0.635449 0.229269 0.253438
H45   H     H_    0.766241 0.639276 0.321545 0.266828
H46   H     H_    0.863212 0.590642 0.339425 0.234624
H47   H     H_    0.814075 0.452301 0.241902 0.162254
H48   H     H_    0.727558 0.449741 0.331562 0.220157
O11   O     O_3   0.801281 0.534255 0.066920 -0.594260
C61   C     C_3   0.880587 0.497191 0.069586 0.135303
H49   H     H_    0.864265 0.416434 0.067236 0.172111
H50   H     H_    0.911996 0.521189 0.129781 0.143796
C62   C     C_3   0.956138 0.542125 0.990432 -0.865097
H51   H     H_    0.927973 0.529048 0.927060 0.261678
H52   H     H_    0.979654 0.622030 0.997518 0.258691
H53   H     H_    0.017672 0.510478 0.987434 0.195870
O12   O     O_3   0.188922 0.293437 0.908547 -0.573222
C63   C     C_3   0.121761 0.349445 0.924496 0.138001
H54   H     H_    0.102960 0.370996 0.861075 0.104754
H55   H     H_    0.147005 0.417143 0.960173 0.155138
C64   C     C_3   0.033300 0.286378 0.981008 -0.753960
H56   H     H_    0.985286 0.331447 0.009681 0.191083
H57   H     H_    0.996619 0.230110 0.939056 0.235465
H58   H     H_    0.051643 0.248730 0.037070 0.295685
O13   O     O_3   0.963425 0.209792 0.442115 -0.617013
C65   C     C_3   0.918466 0.150294 0.519130 0.085510
H59   H     H_    0.852384 0.169796 0.549908 0.139124
H60   H     H_    0.966065 0.156785 0.569770 0.136742
C66   C     C_3   0.893206 0.044677 0.492564 -0.813838
H61   H     H_    0.957817 0.022426 0.462499 0.258872
H62   H     H_    0.858111 0.997005 0.552725 0.203256
H63   H     H_    0.844646 0.035623 0.442969 0.253931
O14   O     O_3   0.017299 0.703072 0.680723 -0.604452
C67   C     C_3   0.951959 0.696048 0.761776 0.093454
H64   H     H_    0.937653 0.623858 0.796875 0.133934
H65   H     H_    0.883663 0.707170 0.750156 0.145101
C68   C     C_3   0.990570 0.775205 0.823708 -0.813874
H66   H     H_    0.999183 0.848052 0.791929 0.257156
H67   H     H_    0.940945 0.768383 0.888183 0.218864
H68   H     H_    0.059781 0.768974 0.837700 0.251083

loop_
_geom_bond_atom_site_label_1
_geom_bond_atom_site_label_2
_ccdc_geom_bond_type
C7    C10   A    
C45   H10   S    
C9    H1    S    
C64   H58   S    
O10   C47   S    
C53   C54   S    
C65   C66   S    
C4    C8    A    
C18   H3    S    
C62   H52   S    
C49   C50   S    
C7    C8    A    
C39   C41   A    
C48   H16   S    
C25   C28   A    
C23   O5    A    
C3    C43   A    
C26   C27   A    
C59   H48   S    
C15   N1    A    
C19   C21   A    
C42   C57   S    
C65   H60   S    
C5    C11   A    
C3    C7    A    
C60   H45   S    
C6    C12   A    
N1    Zn2   S    
C68   H68   S    
C45   C46   S    
C27   C29   A    
N2    Zn1   S    
C66   H61   S    
C54   H31   S    
C28   C51   S    
C39   O11   S    
C59   C60   S    
C66   H62   S    
C15   H6    S    
C46   H12   S    
C58   H39   S    
C17   C19   A    
C13   H7    S    
C14   H8    S    
O14   C67   S    
C63   H54   S    
C47   C48   S    
O1    Zn1   S    
C10   H2    S    
C68   H66   S    
C17   H4    S    
C55   H38   S    
C52   H25   S    
C64   H56   S    
C18   C20   A    
C49   H22   S    
C1    C37   S    
C40   C42   A    
C45   H9    S    
C12   O10   S    
C55   C56   S    
C58   H40   S    
C48   H17   S    
C29   O13   S    
C51   H28   S    
C47   H14   S    
O11   C61   S    
C67   C68   S    
C65   H59   S    
C4    C6    A    
C59   H47   S    
C60   H46   S    
C18   N2    A    
C53   H32   S    
C8    C9    A    
C4    C44   A    
C25   C26   A    
C21   C29   A    
C54   H30   S    
C35   C36   T    
C23   C31   S    
C37   C43   A    
C46   H13   S    
C24   C32   S    
C38   C44   A    
O8    Zn1   S    
C1    O3    A    
C30   O14   S    
C2    C38   S    
C27   C49   S    
C24   O6    A    
C54   H29   S    
O2    Zn2   S    
C13   C21   A    
C55   H37   S    
C56   H35   S    
C67   H64   S    
C52   H26   S    
C9    C11   A    
C58   H41   S    
C6    C40   A    
C49   H23   S    
C10   C12   A    
C57   H42   S    
C61   C62   S    
C40   O12   S    
C20   C22   A    
C50   H19   S    
C50   H20   S    
C13   C15   A    
C14   C16   A    
C66   H63   S    
C47   H15   S    
C41   C59   S    
C62   H51   S    
C17   N1    A    
C16   H5    S    
O3    Zn2   S    
C61   H50   S    
C48   H18   S    
O4    Zn1   S    
C64   H57   S    
C51   H27   S    
C31   C33   T    
C24   O8    A    
C22   C30   A    
C11   O9    S    
C67   H65   S    
C3    C5    A    
O13   C65   S    
C2    O4    A    
C38   C42   A    
C50   H21   S    
O5    Zn1   S    
O6    Zn2   S    
C14   C22   A    
C5    C39   A    
C1    O1    A    
C62   H53   S    
C44   C53   S    
C2    O2    A    
C60   H44   S    
O7    Zn2   S    
C20   C26   A    
C63   C64   S    
C28   C30   A    
C33   C35   S    
C56   H36   S    
C34   C36   S    
C68   H67   S    
C37   C41   A    
C46   H11   S    
C19   C25   A    
C16   N2    A    
C43   C55   S    
C57   H43   S    
C53   H33   S    
C23   O7    A    
C51   C52   S    
C63   H55   S    
O9    C45   S    
C56   H34   S    
C52   H24   S    
C57   C58   S    
O12   C63   S    
C32   C34   T    
C61   H49   S    
