data_mof_unit_58802.cif
_audit_creation_date              2012-12-11T14:14:32-0500
_audit_creation_method            fapswitch 2.2
_symmetry_space_group_name_H-M    P1
_symmetry_Int_Tables_number       1
_space_group_crystal_system       triclinic
_cell_length_a                    24.447902
_cell_length_b                    17.370825
_cell_length_c                    15.570715
_cell_angle_alpha                 90.058045
_cell_angle_beta                  128.90248
_cell_angle_gamma                 89.762806
_cell_volume                      5145.95648738

loop_
_atom_site_label
_atom_site_type_symbol
_atom_type_description
_atom_site_fract_x
_atom_site_fract_y
_atom_site_fract_z
_atom_type_partial_charge
C1    C     C_R   0.336018 0.385540 0.207511 -0.152182
C2    C     C_R   0.665721 0.390865 0.797691 -0.152631
C3    C     C_R   0.834835 0.888645 0.205399 -0.137568
C4    C     C_R   0.150315 0.861686 0.755661 -0.118193
C5    C     C_R   0.403766 0.633755 0.593421 -0.050671
C6    C     C_R   0.595424 0.631788 0.403917 -0.047084
C7    C     C_R   0.887955 0.100152 0.594753 -0.110494
C8    C     C_R   0.100257 0.127110 0.405623 -0.033828
C9    C     C_R   0.351830 0.676335 0.503066 0.170216
C10   C     C_R   0.653518 0.668095 0.493532 0.177912
C11   C     C_R   0.818820 0.113357 0.505767 0.125369
C12   C     C_R   0.157717 0.163736 0.495640 0.187874
C13   C     C_R   0.355040 0.629405 0.137662 0.035180
C14   C     C_R   0.625650 0.670939 0.813168 0.011718
C15   C     C_R   0.876120 0.175619 0.195369 0.004259
C16   C     C_R   0.123222 0.173491 0.807364 0.027685
C17   C     C_2   0.655205 0.789005 0.415691 0.638774
C18   C     C_2   0.349119 0.796592 0.583865 0.614556
C19   C     C_2   0.158005 0.284957 0.418192 0.639872
C20   C     C_2   0.768155 0.154038 0.594933 0.646271
C21   C     C_2   0.689836 0.731071 0.489167 -0.383364
C22   C     C_2   0.317103 0.744320 0.501870 -0.352627
C23   C     C_2   0.193644 0.226898 0.491163 -0.388164
C24   C     C_2   0.759989 0.128516 0.505750 -0.330192
C25   C     C_2   0.199021 0.343561 0.412964 -0.298684
C26   C     C_2   0.712538 0.203505 0.576770 -0.302979
C27   C     C_2   0.697186 0.846806 0.411112 -0.298806
C28   C     C_2   0.304576 0.850697 0.588619 -0.291690
C29   C     C_2   0.262306 0.363276 0.504986 -0.233289
C30   C     C_2   0.680995 0.255794 0.495514 -0.265134
C31   C     C_2   0.760811 0.865766 0.503353 -0.219200
C32   C     C_2   0.241137 0.872079 0.497000 -0.262502
C33   C     C_2   0.690951 0.341705 0.972893 -0.227150
C34   C     C_2   0.310221 0.334252 0.033295 -0.197401
C35   C     C_2   0.145426 0.744478 0.847157 -0.191855
C36   C     C_2   0.808530 0.837077 0.031008 -0.185630
C37   C     C_2   0.760500 0.341511 0.030710 -0.146410
C38   C     C_2   0.240624 0.336169 0.975183 -0.164354
C39   C     C_2   0.201242 0.710364 0.865583 -0.140836
C40   C     C_2   0.738943 0.838513 0.973874 -0.167497
C41   C     C_2   0.312616 0.663335 0.026937 -0.185602
C42   C     C_2   0.653264 0.738967 0.882753 -0.193557
C43   C     C_2   0.849025 0.244880 0.127991 -0.199250
C44   C     C_2   0.150498 0.241903 0.875938 -0.187073
C45   C     C_R   0.593498 0.363529 0.406429 -0.151453
C46   C     C_R   0.386566 0.397823 0.592624 -0.155961
C47   C     C_R   0.114641 0.899959 0.408032 -0.157715
C48   C     C_R   0.885691 0.899017 0.591862 -0.161016
C49   C     C_2   0.242743 0.655861 0.955986 -0.081715
C50   C     C_2   0.695794 0.786438 0.882143 -0.073417
C51   C     C_2   0.803420 0.290328 0.124123 -0.081358
C52   C     C_2   0.197429 0.285527 0.881662 -0.060097
C53   C     C_R   0.667206 0.361752 0.591449 -0.134376
C54   C     C_R   0.312522 0.397753 0.408989 -0.132714
C55   C     C_R   0.188512 0.900520 0.591156 -0.139350
C56   C     C_R   0.812165 0.898483 0.408409 -0.124430
C57   C     C_R   0.575098 0.389015 0.798339 -0.143074
C58   C     C_R   0.424863 0.387484 0.202467 -0.147013
C59   C     C_R   0.059400 0.858305 0.756640 -0.150382
C60   C     C_R   0.924680 0.887644 0.202238 -0.143346
C61   C     C_R   0.356297 0.363714 0.145773 0.153065
C62   C     C_R   0.645035 0.368960 0.858892 0.153441
C63   C     C_R   0.855100 0.866233 0.143781 0.143925
C64   C     C_R   0.118621 0.817755 0.787436 0.150954
C65   C     C_R   0.646806 0.322484 0.497985 0.191944
C66   C     C_R   0.318366 0.382899 0.501503 0.175437
C67   C     C_R   0.183528 0.886873 0.499351 0.193600
C68   C     C_R   0.817404 0.884397 0.500478 0.172783
C69   C     C_R   0.333676 0.639352 0.410379 -0.212858
C70   C     C_R   0.673920 0.630154 0.587513 -0.169703
C71   C     C_R   0.812401 0.099439 0.412441 -0.091951
C72   C     C_R   0.175001 0.128992 0.589397 -0.191837
C73   C     C_R   0.425191 0.610073 0.200386 -0.246492
C74   C     C_R   0.564907 0.632777 0.774701 -0.259027
C75   C     C_R   0.936137 0.135984 0.230154 -0.215336
C76   C     C_R   0.061028 0.136865 0.766152 -0.254877
C77   C     C_R   0.656274 0.631223 0.775972 0.547072
C78   C     C_R   0.332819 0.605891 0.196401 0.534829
C79   C     C_R   0.156264 0.130958 0.775807 0.533376
C80   C     C_R   0.845506 0.134577 0.231696 0.545676
H1    H     H_    0.284700 0.381031 0.185519 0.095600
H2    H     H_    0.718338 0.391995 0.823866 0.080757
H3    H     H_    0.782886 0.888003 0.182067 0.080168
H4    H     H_    0.197692 0.849417 0.766903 0.086965
H5    H     H_    0.746848 0.727631 0.545956 0.121576
H6    H     H_    0.261899 0.748870 0.430885 0.120228
H7    H     H_    0.250676 0.223808 0.547066 0.124146
H8    H     H_    0.708774 0.132467 0.424585 0.111512
H9    H     H_    0.182945 0.358673 0.332589 0.128708
H10   H     H_    0.706350 0.206270 0.639952 0.148792
H11   H     H_    0.681243 0.862079 0.330860 0.124365
H12   H     H_    0.319694 0.860557 0.669751 0.149533
H13   H     H_    0.276850 0.351392 0.585561 0.137112
H14   H     H_    0.686596 0.255263 0.431663 0.137568
H15   H     H_    0.775105 0.854160 0.583811 0.139173
H16   H     H_    0.227887 0.866769 0.416362 0.134403
H17   H     H_    0.215456 0.618353 0.972696 0.167629
H18   H     H_    0.707177 0.778600 0.825588 0.181411
H19   H     H_    0.789467 0.280926 0.177079 0.182204
H20   H     H_    0.212187 0.274484 0.829914 0.169012
H21   H     H_    0.784373 0.365860 0.997611 0.145320
H22   H     H_    0.216579 0.363182 0.006907 0.144962
H23   H     H_    0.223778 0.731647 0.828511 0.130927
H24   H     H_    0.715089 0.865847 0.005796 0.125330
H25   H     H_    0.338943 0.700545 0.007016 0.129251
H26   H     H_    0.641597 0.748044 0.938888 0.131918
H27   H     H_    0.862776 0.255589 0.074811 0.124077
H28   H     H_    0.135617 0.253625 0.927469 0.133324
H29   H     H_    0.667410 0.315178 0.005909 0.136959
H30   H     H_    0.333600 0.305711 0.001035 0.142818
H31   H     H_    0.124428 0.723068 0.886777 0.136702
H32   H     H_    0.831541 0.808046 0.998474 0.142987
H33   H     H_    0.567581 0.350358 0.320965 0.099426
H34   H     H_    0.406360 0.401688 0.677137 0.093068
H35   H     H_    0.095026 0.905002 0.323708 0.092819
H36   H     H_    0.904913 0.903822 0.675987 0.100600
H37   H     H_    0.709851 0.347338 0.676408 0.094025
H38   H     H_    0.264861 0.401949 0.324684 0.086581
H39   H     H_    0.236292 0.907551 0.674914 0.080214
H40   H     H_    0.764657 0.903267 0.323894 0.079866
H41   H     H_    0.544754 0.389413 0.827172 0.093482
H42   H     H_    0.453515 0.388983 0.170777 0.090683
H43   H     H_    0.022255 0.840990 0.768753 0.102225
H44   H     H_    0.954438 0.887345 0.172380 0.095830
H45   H     H_    0.294332 0.659211 0.327686 0.166980
H46   H     H_    0.723018 0.638256 0.668364 0.161682
H47   H     H_    0.763072 0.091703 0.330780 0.124576
H48   H     H_    0.221699 0.139420 0.672348 0.158132
H49   H     H_    0.455829 0.610062 0.172144 0.119415
H50   H     H_    0.533526 0.643384 0.800051 0.146534
H51   H     H_    0.967969 0.147944 0.206185 0.118856
H52   H     H_    0.024274 0.152062 0.780084 0.132283
H53   H     H_    0.423258 0.640970 0.676973 0.125952
H54   H     H_    0.569820 0.641947 0.317873 0.090816
H55   H     H_    0.910025 0.092240 0.679615 0.154510
H56   H     H_    0.079550 0.133280 0.321144 0.076292
N1    N     N_R   0.389060 0.424180 0.294540 -0.053100
N2    N     N_R   0.610940 0.424180 0.705460 -0.046256
N3    N     N_R   0.889060 0.924180 0.294540 -0.048221
N4    N     N_R   0.110940 0.924180 0.705460 -0.054289
N5    N     N_R   0.579670 0.423790 0.443360 -0.042757
N6    N     N_R   0.420330 0.423790 0.556640 -0.037972
N7    N     N_R   0.079670 0.923790 0.443360 -0.038702
N8    N     N_R   0.920330 0.923790 0.556640 -0.038206
N9    N     N_R   0.625470 0.423490 0.556600 -0.047778
N10   N     N_R   0.374530 0.423490 0.443400 -0.046810
N11   N     N_R   0.125470 0.923490 0.556600 -0.045824
N12   N     N_R   0.874530 0.923490 0.443400 -0.043998
N13   N     N_R   0.555250 0.423100 0.705420 -0.037330
N14   N     N_R   0.444750 0.423100 0.294580 -0.037341
N15   N     N_R   0.055250 0.923100 0.705420 -0.042189
N16   N     N_R   0.944750 0.923100 0.294580 -0.039047
N17   N     N_R   0.375210 0.577180 0.443400 -0.049610
N18   N     N_R   0.624790 0.577180 0.556600 -0.052740
N19   N     N_R   0.875210 0.077180 0.443400 -0.046962
N20   N     N_R   0.124790 0.077180 0.556600 -0.052770
N21   N     N_R   0.445430 0.577570 0.294580 -0.059382
N22   N     N_R   0.554570 0.577570 0.705420 -0.064978
N23   N     N_R   0.945430 0.077570 0.294580 -0.067226
N24   N     N_R   0.054570 0.077570 0.705420 -0.065019
N25   N     N_R   0.611620 0.576500 0.705460 -0.103551
N26   N     N_R   0.388380 0.576500 0.294540 -0.103542
N27   N     N_R   0.111620 0.076500 0.705460 -0.106778
N28   N     N_R   0.888380 0.076500 0.294540 -0.104549
N29   N     N_R   0.421010 0.576890 0.556640 -0.051579
N30   N     N_R   0.578990 0.576890 0.443360 -0.052513
N31   N     N_R   0.921010 0.076890 0.556640 -0.050331
N32   N     N_R   0.078990 0.076890 0.443360 -0.049258
Ni1   Ni    Ni4+2 0.383200 0.500680 0.370150 0.205486
Ni2   Ni    Ni4+2 0.616800 0.500680 0.629850 0.202136
Ni3   Ni    Ni4+2 0.883200 0.000680 0.370150 0.205686
Ni4   Ni    Ni4+2 0.116800 0.000680 0.629850 0.199984
Ni5   Ni    Ni4+2 0.512440 0.500680 0.370150 0.202593
Ni6   Ni    Ni4+2 0.487560 0.500680 0.629850 0.201572
Ni7   Ni    Ni4+2 0.012440 0.000680 0.370150 0.202134
Ni8   Ni    Ni4+2 0.987560 0.000680 0.629850 0.203828
O1    O     O_3   0.724688 0.641867 0.816389 -0.705177
C81   C     C_3   0.764289 0.573388 0.862751 0.136561
H57   H     H_    0.813072 0.581966 0.872857 0.146320
H58   H     H_    0.737461 0.523226 0.806767 0.079376
C82   C     C_3   0.784122 0.557700 0.976414 -0.292391
H59   H     H_    0.790477 0.613054 0.017730 0.226701
H60   H     H_    0.741177 0.524893 0.965419 0.185723
C83   C     C_3   0.852779 0.512431 0.050903 -1.009392
H61   H     H_    0.851687 0.461633 0.006665 0.260385
H62   H     H_    0.860752 0.492791 0.125914 0.277959
H63   H     H_    0.897640 0.549577 0.076598 0.271931
O2    O     O_3   0.265056 0.616884 0.160898 -0.698440
C84   C     C_3   0.236838 0.550881 0.173465 0.140499
H64   H     H_    0.214148 0.568924 0.213681 0.134651
H65   H     H_    0.275647 0.505495 0.226030 0.093630
C85   C     C_3   0.176943 0.518234 0.060113 -0.292749
H66   H     H_    0.139839 0.565420 0.006463 0.210467
H67   H     H_    0.198729 0.493637 0.021381 0.184003
C86   C     C_3   0.136032 0.456473 0.068038 -1.056247
H68   H     H_    0.170697 0.407585 0.120014 0.255365
H69   H     H_    0.093085 0.434386 0.984265 0.278632
H70   H     H_    0.112523 0.481265 0.104078 0.281232
O3    O     O_3   0.227728 0.133970 0.828944 -0.700844
C87   C     C_3   0.258455 0.059599 0.857687 0.145426
H71   H     H_    0.312173 0.065847 0.883644 0.136559
H72   H     H_    0.230391 0.019523 0.786309 0.091400
C88   C     C_3   0.264625 0.025864 0.954688 -0.294282
H73   H     H_    0.286092 0.070198 0.020078 0.216657
H74   H     H_    0.211736 0.009004 0.926038 0.191644
C89   C     C_3   0.312834 0.955421 0.003882 -0.998207
H75   H     H_    0.294602 0.911308 0.939502 0.261408
H76   H     H_    0.312935 0.929917 0.069337 0.276021
H77   H     H_    0.367357 0.972360 0.041155 0.271836
O4    O     O_3   0.778778 0.145597 0.198701 -0.697727
C90   C     C_3   0.733434 0.087684 0.122554 0.128957
H78   H     H_    0.689462 0.081903 0.125645 0.126423
H79   H     H_    0.758996 0.029960 0.143916 0.086550
C91   C     C_3   0.702635 0.110786 0.004828 -0.262827
H80   H     H_    0.677262 0.168296 0.985278 0.210710
H81   H     H_    0.745327 0.114343 0.998453 0.195534
C92   C     C_3   0.648267 0.052738 0.920288 -1.031037
H82   H     H_    0.673019 0.995301 0.936329 0.267884
H83   H     H_    0.626560 0.071553 0.836084 0.279946
H84   H     H_    0.604418 0.048376 0.923869 0.264191
O5    O     O_3   0.582189 0.794023 0.348956 -0.654527
C93   C     C_3   0.550735 0.801837 0.235962 0.172732
H85   H     H_    0.504040 0.763647 0.188436 0.123853
H86   H     H_    0.584969 0.782180 0.215685 0.060392
C94   C     C_3   0.525395 0.884748 0.197273 -0.255283
H87   H     H_    0.486359 0.899907 0.209234 0.211062
H88   H     H_    0.570192 0.925180 0.246986 0.196102
C95   C     C_3   0.491485 0.894494 0.075644 -1.065215
H89   H     H_    0.529728 0.879868 0.061861 0.268439
H90   H     H_    0.474499 0.955240 0.050321 0.270326
H91   H     H_    0.444724 0.856745 0.023652 0.274022
O6    O     O_3   0.418598 0.785723 0.676876 -0.681014
C96   C     C_3   0.458911 0.851518 0.696796 0.161157
H92   H     H_    0.504067 0.852773 0.786564 0.134079
H93   H     H_    0.429889 0.906853 0.677382 0.092055
C97   C     C_3   0.487530 0.845656 0.633235 -0.287652
H94   H     H_    0.515251 0.789704 0.652196 0.223582
H95   H     H_    0.443196 0.847975 0.543108 0.193447
C98   C     C_3   0.538469 0.910948 0.663948 -0.985356
H96   H     H_    0.511488 0.967513 0.643669 0.266126
H97   H     H_    0.558399 0.904929 0.616895 0.278217
H98   H     H_    0.583882 0.908925 0.753491 0.272715
O7    O     O_3   0.084988 0.289290 0.353255 -0.653132
C99   C     C_3   0.052246 0.303119 0.240775 0.171345
H99   H     H_    0.004088 0.267497 0.190684 0.119028
H100  H     H_    0.084524 0.284533 0.216391 0.060826
C100  C     C_3   0.029615 0.387556 0.210838 -0.250630
H101  H     H_    0.993351 0.402296 0.228676 0.217023
H102  H     H_    0.076030 0.425816 0.260970 0.196835
C101  C     C_3   0.992343 0.402050 0.088891 -1.071711
H103  H     H_    0.026639 0.384654 0.068377 0.282884
H104  H     H_    0.979886 0.464230 0.070032 0.282878
H105  H     H_    0.942728 0.368684 0.037063 0.267900
O8    O     O_3   0.829492 0.137564 0.700898 -0.681889
C102  C     C_3   0.857453 0.202877 0.771051 0.162415
H106  H     H_    0.902715 0.182429 0.854687 0.130318
H107  H     H_    0.819947 0.228596 0.780740 0.089905
C103  C     C_3   0.884663 0.263617 0.734335 -0.322857
H108  H     H_    0.922186 0.236381 0.725818 0.201616
H109  H     H_    0.840269 0.288228 0.653094 0.202509
C104  C     C_3   0.921855 0.328942 0.817786 -1.012600
H110  H     H_    0.885268 0.357640 0.827355 0.267587
H111  H     H_    0.940352 0.372163 0.788745 0.275903
H112  H     H_    0.968095 0.306224 0.898906 0.265842

loop_
_geom_bond_atom_site_label_1
_geom_bond_atom_site_label_2
_ccdc_geom_bond_type
N32   Ni7   S    
C15   C75   A    
C88   H73   S    
C6    N30   A    
C72   N20   A    
C73   N21   A    
C8    H56   S    
N24   Ni8   S    
N6    N10   A    
C103  H109  S    
C98   H96   S    
N7    Ni7   S    
N8    N12   A    
C94   C95   S    
C95   H90   S    
C81   H57   S    
C30   C65   S    
C1    N1    A    
C57   C62   A    
N6    Ni6   S    
C55   H39   S    
C82   H59   S    
C99   H99   S    
C92   H84   S    
N7    N11   A    
N21   Ni5   S    
C88   H74   S    
C12   C23   S    
C48   N8    A    
C59   C64   A    
O5    C93   S    
C41   H25   S    
C72   H48   S    
C60   C63   A    
C14   C74   A    
C80   O4    S    
C9    C69   A    
C46   C66   A    
O4    C90   S    
C104  H110  S    
C37   C51   S    
C11   C71   A    
C9    C22   S    
C82   C83   S    
C38   C52   S    
N20   N32   A    
C101  H104  S    
O7    C99   S    
C47   N7    A    
N3    N16   A    
N12   Ni3   S    
C97   H94   S    
N18   Ni2   S    
C25   C29   D    
C60   H44   S    
N13   Ni6   S    
C60   N16   A    
C14   C77   A    
C41   C49   D    
C84   H65   S    
C80   N28   A    
C7    N31   A    
C8    N32   A    
N22   N25   A    
C13   C78   A    
N16   Ni7   S    
N22   Ni6   S    
C20   C24   D    
N19   N31   A    
C33   C62   S    
C57   N13   A    
C36   H32   S    
C27   H11   S    
C35   C64   S    
C5    N29   A    
C23   H7    S    
C36   C63   S    
C53   C65   A    
C96   H92   S    
C16   C44   S    
C17   C27   S    
N1    Ni1   S    
C19   O7    S    
C48   H36   S    
C86   H70   S    
C102  H107  S    
C44   C52   D    
C101  H105  S    
C100  H102  S    
C12   C72   A    
C102  C103  S    
C69   H45   S    
O3    C87   S    
C10   C21   S    
C4    N4    A    
C18   C22   D    
C59   H43   S    
C56   H40   S    
C71   H47   S    
C93   H85   S    
N17   Ni1   S    
C47   C67   A    
C95   H89   S    
C29   H13   S    
C75   H51   S    
C7    C11   A    
C21   H5    S    
C44   H28   S    
N2    N13   A    
C77   N25   A    
C31   C68   S    
C88   C89   S    
C73   H49   S    
C58   H42   S    
C79   O3    S    
C46   H34   S    
C27   C31   D    
C2    N2    A    
N24   N27   A    
C28   C32   D    
C18   C28   S    
C46   N6    A    
C50   H18   S    
C104  H111  S    
C74   N22   A    
C89   H75   S    
C87   H71   S    
C28   H12   S    
C93   C94   S    
C70   H46   S    
N29   Ni6   S    
C56   C68   A    
C57   H41   S    
C52   H20   S    
C34   C61   S    
C33   C37   D    
C86   H68   S    
O2    C84   S    
C70   N18   A    
C56   N12   A    
C84   C85   S    
C19   C23   D    
N31   Ni8   S    
C85   C86   S    
C90   H78   S    
C7    H55   S    
O8    C102  S    
N19   Ni3   S    
C59   N15   A    
C40   H24   S    
C51   H19   S    
C96   H93   S    
C55   N11   A    
C15   C80   A    
C4    H4    S    
C36   C40   D    
C26   H10   S    
C8    C12   A    
C71   N19   A    
N8    Ni8   S    
C53   N9    A    
C94   H87   S    
C5    H53   S    
C98   H97   S    
C43   H27   S    
C48   C68   A    
N3    Ni3   S    
N27   Ni4   S    
C24   H8    S    
N4    N15   A    
C47   H35   S    
C42   C50   D    
C32   C67   S    
N25   Ni2   S    
C10   C70   A    
C11   C24   S    
C90   H79   S    
C13   C73   A    
C78   N26   A    
C78   O2    S    
C34   C38   D    
C74   H50   S    
C45   C65   A    
N23   Ni7   S    
C34   H30   S    
N1    N14   A    
C2    H2    S    
C103  C104  S    
C3    N3    A    
N20   Ni4   S    
C102  H106  S    
C35   H31   S    
N11   Ni4   S    
C69   N17   A    
C100  C101  S    
C75   N23   A    
C99   H100  S    
N5    Ni5   S    
N9    Ni2   S    
C76   N24   A    
N30   Ni5   S    
N15   Ni8   S    
N17   N29   A    
C93   H86   S    
C16   C76   A    
C25   H9    S    
C77   O1    S    
C79   N27   A    
C91   C92   S    
C1    C61   A    
C6    C10   A    
C104  H112  S    
C81   H58   S    
C100  H101  S    
C39   C49   S    
C20   O8    S    
C13   C41   S    
C54   C66   A    
C33   H29   S    
C3    C63   A    
C92   H83   S    
C4    C64   A    
C45   N5    A    
C83   H62   S    
C97   C98   S    
C14   C42   S    
C54   N10   A    
C16   C79   A    
C83   H63   S    
C85   H66   S    
C54   H38   S    
C103  H108  S    
C101  H103  S    
C91   H81   S    
C15   C43   S    
C55   C67   A    
C6    H54   S    
C99   C100  S    
C18   O6    S    
C37   H21   S    
C32   H16   S    
C76   H52   S    
C89   H77   S    
C43   C51   D    
N26   Ni1   S    
C20   C26   S    
C58   C61   A    
C87   C88   S    
C31   H15   S    
C35   C39   D    
C91   H80   S    
C92   H82   S    
N5    N9    A    
C94   H88   S    
C97   H95   S    
C98   H98   S    
C53   H37   S    
C22   H6    S    
C38   H22   S    
C84   H64   S    
C19   C25   S    
C96   C97   S    
C17   C21   D    
C81   C82   S    
C17   O5    S    
N4    Ni4   S    
C49   H17   S    
C29   C66   S    
C42   H26   S    
C45   H33   S    
C40   C50   S    
C82   H60   S    
N14   Ni5   S    
C3    H3    S    
C87   H72   S    
O1    C81   S    
N10   Ni1   S    
C30   H14   S    
C2    C62   A    
C39   H23   S    
N23   N28   A    
N18   N30   A    
N28   Ni3   S    
C83   H61   S    
C5    C9    A    
C90   C91   S    
C89   H76   S    
C1    H1    S    
N21   N26   A    
C95   H91   S    
C58   N14   A    
O6    C96   S    
N2    Ni2   S    
C86   H69   S    
C26   C30   D    
C85   H67   S    
