data_mof_unit_5472.cif
_audit_creation_date              2013-03-05T16:33:12-0500
_audit_creation_method            fapswitch 2.2
_symmetry_space_group_name_H-M    P1
_symmetry_Int_Tables_number       1
_space_group_crystal_system       triclinic
_cell_length_a                    27.821088
_cell_length_b                    10.856468
_cell_length_c                    9.536397
_cell_angle_alpha                 90.009272
_cell_angle_beta                  90.377878
_cell_angle_gamma                 90.173145
_cell_volume                      2880.28560222

loop_
_atom_site_label
_atom_site_type_symbol
_atom_site_description
_atom_site_fract_x
_atom_site_fract_y
_atom_site_fract_z
_atom_type_partial_charge
O1    O     O_R   0.500000 0.319640 0.618810 -0.590183
O2    O     O_R   0.500010 0.319680 0.381230 -0.584869
C1    C     C_R   0.500014 0.262689 0.499837 0.818095
O3    O     O_R   0.430260 0.500000 0.618780 -0.578118
O4    O     O_R   0.430270 0.500040 0.381190 -0.593236
C2    C     C_R   0.407470 0.499944 0.499503 0.807722
Cu1   Cu    Cu3+1 0.500000 0.499980 0.640670 0.981020
Cu2   Cu    Cu3+1 0.500000 0.500020 0.359330 0.966490
O5    O     O_R   0.499990 0.680320 0.618770 -0.555351
O6    O     O_R   0.500000 0.680360 0.381190 -0.598392
O7    O     O_R   0.569730 0.499960 0.618810 -0.563931
O8    O     O_R   0.569740 0.500000 0.381220 -0.552692
C3    C     C_R   0.500171 0.737310 0.499851 0.827425
C4    C     C_R   0.592481 0.500016 0.500121 0.909652
C5    C     C_R   0.178170 0.389002 0.489895 0.524689
O9    O     O_2   0.203037 0.282908 0.478835 -0.533646
N1    N     N_R   0.202222 0.498764 0.498528 -0.471635
C6    C     C_R   0.178243 0.607911 0.511174 0.514179
C7    C     C_R   0.278610 0.524077 0.369645 0.133224
C8    C     C_R   0.329252 0.523282 0.372762 -0.210580
C9    C     C_R   0.329020 0.475786 0.621250 -0.210703
C10   C     C_R   0.279061 0.474648 0.619423 -0.131621
C11   C     C_R   0.253761 0.499295 0.495423 0.333155
C12   C     C_R   0.102184 0.497921 0.500978 -0.044286
C13   C     C_R   0.127733 0.386399 0.492081 -0.019856
C14   C     C_R   0.102512 0.275151 0.484067 -0.147164
C15   C     C_R   0.127813 0.609751 0.510422 -0.017773
C16   C     C_R   0.354533 0.499833 0.498003 -0.061732
H1    H     H_    0.347642 0.456660 0.718905 0.161068
H2    H     H_    0.259724 0.454464 0.714827 0.142343
H3    H     H_    0.121302 0.188235 0.475156 0.186869
C17   C     C_R   0.645455 0.499059 0.499147 -0.114992
C18   C     C_R   0.974822 0.383776 0.505938 0.042938
C19   C     C_R   0.974988 0.610858 0.491072 0.043015
C20   C     C_R   0.949660 0.497235 0.497749 0.069873
C21   C     C_R   0.947897 0.274001 0.522576 -0.205210
C22   C     C_R   0.897970 0.275403 0.525350 -0.143832
C23   C     C_R   0.872875 0.385991 0.510726 -0.026687
C24   C     C_R   0.898579 0.497097 0.496272 -0.044923
C25   C     C_R   0.873102 0.608093 0.480409 -0.026299
C26   C     C_R   0.822654 0.605794 0.477456 0.546439
N2    N     N_R   0.798275 0.497052 0.494748 -0.444715
C27   C     C_R   0.822409 0.388213 0.511956 0.547807
C28   C     C_R   0.720486 0.427837 0.398139 -0.203180
C29   C     C_R   0.669988 0.427029 0.399360 0.298589
C30   C     C_R   0.671611 0.571917 0.595501 0.301533
C31   C     C_R   0.722048 0.568585 0.594779 -0.199301
C32   C     C_R   0.746543 0.497452 0.496147 0.265945
O10   O     O_2   0.797676 0.282538 0.531711 -0.535277
C33   C     C_R   0.025813 0.383778 0.498357 0.042985
C34   C     C_R   0.051116 0.497634 0.500393 0.066683
C35   C     C_R   0.025934 0.611245 0.501607 0.042971
C36   C     C_R   0.052588 0.273575 0.487433 -0.206368
H4    H     H_    0.739708 0.373987 0.321167 0.159791
H5    H     H_    0.879082 0.188794 0.538640 0.187242
H6    H     H_    0.964368 0.185242 0.537476 0.136573
H7    H     H_    0.035995 0.184186 0.477447 0.136279
O11   O     O_2   0.203198 0.714234 0.523585 -0.537078
C37   C     C_R   0.102691 0.720636 0.519209 -0.148388
H8    H     H_    0.349482 0.541481 0.278692 0.152549
H9    H     H_    0.121554 0.807732 0.528941 0.187185
C38   C     C_R   0.948294 0.720445 0.472459 -0.205666
C39   C     C_R   0.898390 0.718776 0.466809 -0.143977
O12   O     O_2   0.798153 0.711411 0.456466 -0.535610
C40   C     C_R   0.052774 0.721660 0.514569 -0.207137
H10   H     H_    0.964955 0.809229 0.458124 0.136642
H11   H     H_    0.879672 0.805282 0.452342 0.187217
H12   H     H_    0.742472 0.622745 0.669848 0.159260
H13   H     H_    0.036221 0.810768 0.524905 0.136648
C41   C     C_R   0.498877 0.062086 0.621093 0.056767
C42   C     C_R   0.500296 0.130096 0.498130 -0.079619
C43   C     C_R   0.502106 0.064567 0.370355 -0.195167
H14   H     H_    0.503380 0.112320 0.270725 0.166625
C44   C     C_R   0.502212 0.935394 0.370390 -0.215213
H15   H     H_    0.503554 0.887612 0.270768 0.162207
C45   C     C_R   0.500527 0.869907 0.498211 -0.114115
C46   C     C_R   0.499070 0.938009 0.621162 0.164929
C47   C     C_3   0.496683 0.929572 0.776929 0.205498
C48   C     C_3   0.496161 0.071614 0.776759 -0.512261
H16   H     H_    0.529069 0.886959 0.825457 0.089871
H17   H     H_    0.461684 0.112506 0.811902 0.213773
H18   H     H_    0.529123 0.113463 0.823166 0.177117
C49   C     C_R   0.522494 0.592166 0.074349 0.241520
N3    N     N_R   0.500300 0.500930 0.147930 -0.179562
C50   C     C_R   0.473778 0.416340 0.073922 -0.071393
H19   H     H_    0.453312 0.347156 0.129404 0.136668
C51   C     C_R   0.473748 0.416402 0.924954 -0.074216
H20   H     H_    0.453187 0.347447 0.868642 0.134477
N4    N     N_R   0.500310 0.500890 0.852020 -0.183416
C52   C     C_R   0.522636 0.591915 0.926875 0.262145
C53   C     C_3   0.574848 0.622742 0.923593 -0.453604
C54   C     C_3   0.574472 0.624626 0.082416 -0.515443
H21   H     H_    0.596852 0.546259 0.881082 0.252443
H22   H     H_    0.581745 0.714720 0.876853 0.212392
H23   H     H_    0.596859 0.550587 0.129444 0.254179
H24   H     H_    0.580417 0.717979 0.127313 0.195325
C55   C     C_3   0.249872 0.549659 0.236287 -0.392212
C56   C     C_3   0.279518 0.579054 0.104938 -0.384000
C57   C     C_3   0.246941 0.607679 0.979793 -0.791758
H25   H     H_    0.224088 0.526647 0.953844 0.247853
H26   H     H_    0.223561 0.687735 0.003282 0.264384
H27   H     H_    0.269303 0.630743 0.887400 0.253907
H28   H     H_    0.302756 0.660749 0.125049 0.234718
H29   H     H_    0.302453 0.498932 0.077783 0.220950
H30   H     H_    0.226835 0.468052 0.213759 0.208890
H31   H     H_    0.225865 0.629256 0.256242 0.225635
O13   O     O_3   0.647317 0.649258 0.685137 -0.749173
H32   H     H_    0.670864 0.694358 0.744622 0.329700
O14   O     O_3   0.452956 0.878549 0.820348 -0.689440
H33   H     H_    0.454467 0.877283 0.924295 0.319332
O15   O     O_3   0.644018 0.355421 0.305788 -0.720508
H34   H     H_    0.666582 0.311104 0.243626 0.330109

loop_
_geom_bond_atom_site_label_1
_geom_bond_atom_site_label_2
_geom_bond_distance
_ccdc_geom_bond_type
C28   C32   1.399206 A    
C51   H20   1.081317 S    
C17   C29   1.412268 A    
C20   C24   1.421097 A    
O15   H34   0.991778 S    
C12   C15   1.408683 A    
C54   H24   1.111633 S    
C48   H18   1.111427 S    
C55   C56   1.537293 S    
C7    C55   1.523747 S    
Cu1   Cu2   2.682969 S    
C50   H19   1.081579 S    
Cu1   O7    1.952500 S    
C49   C54   1.488860 S    
N1    C11   1.434350 S    
C25   C39   1.397095 A    
C44   C45   1.412212 A    
C21   C22   1.389588 A    
C23   C24   1.407655 A    
O7    C4    1.300460 A    
C47   H16   1.112244 S    
C5    C13   1.403726 A    
C56   H28   1.111847 S    
Cu1   N4    2.015503 S    
C19   C38   1.414989 A    
C18   C21   1.415220 A    
Cu1   O5    1.968996 S    
C19   C20   1.420435 A    
C26   N2    1.370264 A    
O5    C3    1.291974 A    
N3    C50   1.369218 A    
C6    O11   1.349976 S    
C2    C16   1.472756 S    
C49   N3    1.362712 A    
O13   H32   0.991848 S    
C41   C42   1.386527 A    
C8    H8    1.080103 S    
C55   H30   1.112002 S    
C12   C34   1.420741 A    
C14   H3    1.083713 S    
O1    Cu1   1.968889 S    
C9    C10   1.389945 A    
C41   C46   1.347065 A    
O3    Cu1   1.950074 S    
C33   C34   1.420697 A    
C50   C51   1.420613 A    
C39   H11   1.083633 S    
C37   H9    1.083716 S    
C33   C36   1.415455 A    
C44   H15   1.083270 S    
C38   H10   1.077404 S    
C34   C35   1.420427 A    
C31   C32   1.398886 A    
C12   C13   1.408641 A    
O3    C2    1.298583 A    
C53   C54   1.514842 S    
C48   H17   1.111860 S    
C36   H7    1.077323 S    
C47   C48   1.542187 S    
C27   O10   1.349880 S    
C8    C16   1.405719 A    
C18   C33   1.420937 A    
C46   C47   1.490201 S    
C9    H1    1.083109 S    
C54   H23   1.111129 S    
O1    C1    1.292018 A    
C1    C42   1.439633 S    
C22   C23   1.397196 A    
C21   H6    1.077289 S    
C53   H21   1.111215 S    
C57   H25   1.110791 S    
C3    C45   1.439624 S    
Cu2   O8    1.950069 S    
C30   O13   1.379611 S    
C38   C39   1.389128 A    
N1    C6    1.367296 A    
N2    C32   1.439427 S    
C45   C46   1.386933 A    
C55   H31   1.110925 S    
C43   C44   1.402377 A    
C25   C26   1.403742 A    
C57   H26   1.110826 S    
C9    C16   1.401190 A    
O8    C4    1.294798 A    
C51   N4    1.368959 A    
N2    C27   1.370165 A    
C14   C36   1.389582 A    
C31   H12   1.083319 S    
C24   C25   1.407543 A    
C28   C29   1.405035 A    
C7    C11   1.413855 A    
C5    N1    1.367088 A    
C49   C52   1.406399 A    
C30   C31   1.403864 A    
C10   H2    1.082124 S    
C41   C48   1.490509 S    
Cu2   N3    2.016093 S    
C17   C30   1.409604 A    
O2    Cu2   1.968998 S    
C6    C15   1.403185 A    
C4    C17   1.473953 S    
C43   H14   1.083161 S    
O6    C3    1.289378 A    
O4    Cu2   1.952503 S    
C29   O15   1.382239 S    
C19   C35   1.420248 A    
C7    C8    1.409083 A    
O2    C1    1.289338 A    
C13   C14   1.396775 A    
C42   C43   1.412145 A    
C15   C37   1.396620 A    
O14   H33   0.991992 S    
C37   C40   1.389239 A    
C53   H22   1.110278 S    
C52   C53   1.490215 S    
O4    C2    1.297999 A    
C40   H13   1.077457 S    
C18   C20   1.420530 A    
C47   O14   1.400313 S    
C22   H5    1.083624 S    
C28   H4    1.083274 S    
C23   C27   1.404411 A    
C57   H27   1.110148 S    
Cu2   O6    1.968888 S    
C56   C57   1.526373 S    
C10   C11   1.398444 A    
C26   O12   1.349992 S    
N4    C52   1.364605 A    
C56   H29   1.111898 S    
C35   C40   1.415307 A    
C5    O9    1.349868 S    
