data_mof_unit_61319.cif
_audit_creation_date              2013-03-05T15:57:33-0500
_audit_creation_method            fapswitch 2.2
_symmetry_space_group_name_H-M    P1
_symmetry_Int_Tables_number       1
_space_group_crystal_system       triclinic
_cell_length_a                    27.790654
_cell_length_b                    36.199373
_cell_length_c                    27.791432
_cell_angle_alpha                 89.995937
_cell_angle_beta                  89.999975
_cell_angle_gamma                 89.998953
_cell_volume                      27958.2986323

loop_
_atom_site_label
_atom_site_type_symbol
_atom_site_description
_atom_site_fract_x
_atom_site_fract_y
_atom_site_fract_z
_atom_type_partial_charge
Zn1   Zn    Zn3+2 0.539790 0.780710 0.210180 1.013249
Zn2   Zn    Zn3+2 0.539790 0.780710 0.789820 1.015742
Zn3   Zn    Zn3+2 0.539790 0.219290 0.789820 1.013917
Zn4   Zn    Zn3+2 0.539790 0.219290 0.210180 1.015002
Zn5   Zn    Zn3+2 0.539790 0.280710 0.710180 1.013631
Zn6   Zn    Zn3+2 0.539790 0.280710 0.289820 1.013420
Zn7   Zn    Zn3+2 0.539790 0.719290 0.289820 1.011676
Zn8   Zn    Zn3+2 0.539790 0.719290 0.710180 1.015479
Zn9   Zn    Zn3+2 0.039790 0.780710 0.710180 1.011850
Zn10  Zn    Zn3+2 0.039790 0.780710 0.289820 1.014627
Zn11  Zn    Zn3+2 0.039790 0.219290 0.289820 1.012029
Zn12  Zn    Zn3+2 0.039790 0.219290 0.710180 1.013346
Zn13  Zn    Zn3+2 0.039790 0.280710 0.210180 1.015388
Zn14  Zn    Zn3+2 0.039790 0.280710 0.789820 1.016462
Zn15  Zn    Zn3+2 0.039790 0.719290 0.789820 1.014344
Zn16  Zn    Zn3+2 0.039790 0.719290 0.210180 1.012282
Zn17  Zn    Zn3+2 0.460190 0.719300 0.210200 1.023253
Zn18  Zn    Zn3+2 0.460190 0.719300 0.789800 1.023511
Zn19  Zn    Zn3+2 0.460190 0.280700 0.789800 1.022509
Zn20  Zn    Zn3+2 0.460190 0.280700 0.210200 1.024948
Zn21  Zn    Zn3+2 0.460190 0.219300 0.710200 1.021550
Zn22  Zn    Zn3+2 0.460190 0.219300 0.289800 1.023498
Zn23  Zn    Zn3+2 0.460190 0.780700 0.289800 1.022352
Zn24  Zn    Zn3+2 0.460190 0.780700 0.710200 1.022593
Zn25  Zn    Zn3+2 0.960190 0.719300 0.710200 1.021828
Zn26  Zn    Zn3+2 0.960190 0.719300 0.289800 1.022363
Zn27  Zn    Zn3+2 0.960190 0.280700 0.289800 1.023296
Zn28  Zn    Zn3+2 0.960190 0.280700 0.710200 1.022718
Zn29  Zn    Zn3+2 0.960190 0.219300 0.210200 1.023385
Zn30  Zn    Zn3+2 0.960190 0.219300 0.789800 1.025084
Zn31  Zn    Zn3+2 0.960190 0.780700 0.789800 1.023477
Zn32  Zn    Zn3+2 0.960190 0.780700 0.210200 1.024248
O1    O     O_3   0.499990 0.750000 0.250000 -0.501362
O2    O     O_3   0.499990 0.750000 0.750000 -0.502456
O3    O     O_3   0.499990 0.250000 0.750000 -0.501665
O4    O     O_3   0.499990 0.250000 0.250000 -0.502289
O5    O     O_3   0.999990 0.750000 0.750000 -0.501567
O6    O     O_3   0.999990 0.750000 0.250000 -0.501842
O7    O     O_3   0.999990 0.250000 0.250000 -0.501925
O8    O     O_3   0.999990 0.250000 0.750000 -0.502440
O9    O     O_R   0.527870 0.668020 0.277880 -0.627979
O10   O     O_R   0.527870 0.668020 0.722120 -0.622771
O11   O     O_R   0.527870 0.331980 0.722120 -0.625600
O12   O     O_R   0.527870 0.331980 0.277880 -0.625682
O13   O     O_R   0.527870 0.168020 0.777880 -0.625354
O14   O     O_R   0.527870 0.168020 0.222120 -0.623892
O15   O     O_R   0.527870 0.831980 0.222120 -0.626450
O16   O     O_R   0.527870 0.831980 0.777880 -0.622474
O17   O     O_R   0.027870 0.668020 0.777880 -0.625118
O18   O     O_R   0.027870 0.668020 0.222120 -0.626634
O19   O     O_R   0.027870 0.331980 0.222120 -0.623989
O20   O     O_R   0.027870 0.331980 0.777880 -0.622088
O21   O     O_R   0.027870 0.168020 0.277880 -0.626895
O22   O     O_R   0.027870 0.168020 0.722120 -0.625512
O23   O     O_R   0.027870 0.831980 0.722120 -0.627744
O24   O     O_R   0.027870 0.831980 0.277880 -0.624389
O25   O     O_R   0.472130 0.728510 0.143730 -0.626806
O26   O     O_R   0.472130 0.728510 0.856270 -0.628426
O27   O     O_R   0.472130 0.271490 0.856270 -0.627494
O28   O     O_R   0.472130 0.271490 0.143730 -0.627613
O29   O     O_R   0.472130 0.228510 0.643730 -0.627886
O30   O     O_R   0.472130 0.228510 0.356270 -0.628250
O31   O     O_R   0.472130 0.771490 0.356270 -0.627284
O32   O     O_R   0.472130 0.771490 0.643730 -0.628801
O33   O     O_R   0.972130 0.728510 0.643730 -0.627644
O34   O     O_R   0.972130 0.728510 0.356270 -0.627505
O35   O     O_R   0.972130 0.271490 0.356270 -0.628102
O36   O     O_R   0.972130 0.271490 0.643730 -0.628671
O37   O     O_R   0.972130 0.228510 0.143730 -0.627127
O38   O     O_R   0.972130 0.228510 0.856270 -0.627642
O39   O     O_R   0.972130 0.771490 0.856270 -0.626781
O40   O     O_R   0.972130 0.771490 0.143730 -0.627668
O41   O     O_R   0.393720 0.728520 0.222140 -0.624807
O42   O     O_R   0.393720 0.728520 0.777860 -0.623450
O43   O     O_R   0.393720 0.271480 0.777860 -0.624162
O44   O     O_R   0.393720 0.271480 0.222140 -0.623888
O45   O     O_R   0.393720 0.228520 0.722140 -0.624550
O46   O     O_R   0.393720 0.228520 0.277860 -0.623824
O47   O     O_R   0.393720 0.771480 0.277860 -0.624568
O48   O     O_R   0.393720 0.771480 0.722140 -0.623812
O49   O     O_R   0.893720 0.728520 0.722140 -0.624201
O50   O     O_R   0.893720 0.728520 0.277860 -0.624966
O51   O     O_R   0.893720 0.271480 0.277860 -0.623650
O52   O     O_R   0.893720 0.271480 0.722140 -0.623548
O53   O     O_R   0.893720 0.228520 0.222140 -0.624660
O54   O     O_R   0.893720 0.228520 0.777860 -0.623847
O55   O     O_R   0.893720 0.771480 0.777860 -0.624767
O56   O     O_R   0.893720 0.771480 0.222140 -0.623383
O57   O     O_R   0.606280 0.728500 0.277860 -0.629919
O58   O     O_R   0.606280 0.728500 0.722140 -0.629400
O59   O     O_R   0.606280 0.271500 0.722140 -0.629317
O60   O     O_R   0.606280 0.271500 0.277860 -0.629947
O61   O     O_R   0.606280 0.228500 0.777860 -0.629278
O62   O     O_R   0.606280 0.228500 0.222140 -0.629422
O63   O     O_R   0.606280 0.771500 0.222140 -0.629246
O64   O     O_R   0.606280 0.771500 0.777860 -0.629394
O65   O     O_R   0.106280 0.728500 0.777860 -0.628921
O66   O     O_R   0.106280 0.728500 0.222140 -0.629644
O67   O     O_R   0.106280 0.271500 0.222140 -0.629371
O68   O     O_R   0.106280 0.271500 0.777860 -0.628905
O69   O     O_R   0.106280 0.228500 0.277860 -0.629773
O70   O     O_R   0.106280 0.228500 0.722140 -0.630154
O71   O     O_R   0.106280 0.771500 0.722140 -0.629897
O72   O     O_R   0.106280 0.771500 0.277860 -0.629642
O73   O     O_R   0.527850 0.771500 0.143710 -0.624130
O74   O     O_R   0.527850 0.771500 0.856290 -0.622781
O75   O     O_R   0.527850 0.228500 0.856290 -0.623649
O76   O     O_R   0.527850 0.228500 0.143710 -0.623166
O77   O     O_R   0.527850 0.271500 0.643710 -0.623751
O78   O     O_R   0.527850 0.271500 0.356290 -0.623512
O79   O     O_R   0.527850 0.728500 0.356290 -0.624522
O80   O     O_R   0.527850 0.728500 0.643710 -0.622862
O81   O     O_R   0.027850 0.771500 0.643710 -0.624468
O82   O     O_R   0.027850 0.771500 0.356290 -0.623420
O83   O     O_R   0.027850 0.228500 0.356290 -0.624243
O84   O     O_R   0.027850 0.228500 0.643710 -0.623459
O85   O     O_R   0.027850 0.271500 0.143710 -0.623147
O86   O     O_R   0.027850 0.271500 0.856290 -0.622838
O87   O     O_R   0.027850 0.728500 0.856290 -0.623845
O88   O     O_R   0.027850 0.728500 0.143710 -0.624123
O89   O     O_R   0.472140 0.668020 0.222150 -0.618964
O90   O     O_R   0.472140 0.668020 0.777850 -0.619374
O91   O     O_R   0.472140 0.331980 0.777850 -0.620055
O92   O     O_R   0.472140 0.331980 0.222150 -0.617322
O93   O     O_R   0.472140 0.168020 0.722150 -0.620459
O94   O     O_R   0.472140 0.168020 0.277850 -0.618741
O95   O     O_R   0.472140 0.831980 0.277850 -0.619841
O96   O     O_R   0.472140 0.831980 0.722150 -0.619844
O97   O     O_R   0.972140 0.668020 0.722150 -0.620569
O98   O     O_R   0.972140 0.668020 0.277850 -0.619894
O99   O     O_R   0.972140 0.331980 0.277850 -0.618587
O100  O     O_R   0.972140 0.331980 0.722150 -0.620076
O101  O     O_R   0.972140 0.168020 0.222150 -0.619440
O102  O     O_R   0.972140 0.168020 0.777850 -0.617337
O103  O     O_R   0.972140 0.831980 0.777850 -0.618903
O104  O     O_R   0.972140 0.831980 0.222150 -0.618087
C1    C     C_R   0.500024 0.650331 0.249995 0.829480
C2    C     C_R   0.500023 0.650331 0.750011 0.823928
C3    C     C_R   0.500028 0.349669 0.750009 0.828471
C4    C     C_R   0.500021 0.349668 0.249987 0.824765
C5    C     C_R   0.500027 0.150331 0.749993 0.828252
C6    C     C_R   0.500022 0.150331 0.250011 0.824060
C7    C     C_R   0.500027 0.849669 0.250008 0.828731
C8    C     C_R   0.500025 0.849669 0.749986 0.823777
C9    C     C_R   0.000027 0.650331 0.749993 0.828106
C10   C     C_R   0.000022 0.650331 0.250006 0.828607
C11   C     C_R   0.000027 0.349668 0.250014 0.824184
C12   C     C_R   0.000024 0.349669 0.749987 0.823701
C13   C     C_R   0.000026 0.150331 0.249994 0.828928
C14   C     C_R   0.000021 0.150332 0.750013 0.824744
C15   C     C_R   0.000024 0.849669 0.750006 0.829530
C16   C     C_R   0.000023 0.849668 0.249987 0.824375
C17   C     C_R   0.499986 0.750003 0.120626 0.827430
C18   C     C_R   0.499984 0.750002 0.879374 0.826538
C19   C     C_R   0.499986 0.249997 0.879374 0.827008
C20   C     C_R   0.499984 0.249998 0.120626 0.827013
C21   C     C_R   0.499986 0.250003 0.620626 0.826887
C22   C     C_R   0.499984 0.250002 0.379373 0.826931
C23   C     C_R   0.499986 0.749997 0.379374 0.827376
C24   C     C_R   0.499984 0.749998 0.620626 0.826484
C25   C     C_R   0.999986 0.750003 0.620626 0.827159
C26   C     C_R   0.999984 0.750002 0.379373 0.827363
C27   C     C_R   0.999986 0.249997 0.379374 0.826637
C28   C     C_R   0.999984 0.249998 0.620626 0.826822
C29   C     C_R   0.999986 0.250003 0.120626 0.827498
C30   C     C_R   0.999984 0.250002 0.879374 0.826737
C31   C     C_R   0.999986 0.749997 0.879374 0.827238
C32   C     C_R   0.999984 0.749998 0.120626 0.826734
C33   C     C_R   0.370622 0.750000 0.250000 0.829879
C34   C     C_R   0.370622 0.750000 0.750000 0.831344
C35   C     C_R   0.370622 0.250000 0.750000 0.829963
C36   C     C_R   0.370622 0.250000 0.250000 0.830919
C37   C     C_R   0.870622 0.750000 0.750000 0.829912
C38   C     C_R   0.870622 0.750000 0.250000 0.830434
C39   C     C_R   0.870622 0.250000 0.250000 0.830433
C40   C     C_R   0.870622 0.250000 0.750000 0.831167
C41   C     C_R   0.629372 0.750000 0.250000 0.820891
C42   C     C_R   0.629371 0.750000 0.750000 0.819434
C43   C     C_R   0.629372 0.250000 0.750000 0.820618
C44   C     C_R   0.629371 0.250000 0.250000 0.819800
C45   C     C_R   0.129372 0.750000 0.750000 0.820856
C46   C     C_R   0.129371 0.750000 0.250000 0.820189
C47   C     C_R   0.129372 0.250000 0.250000 0.820283
C48   C     C_R   0.129371 0.250000 0.750000 0.819647
C49   C     C_1   0.681109 0.750000 0.250001 -0.120492
C50   C     C_1   0.681108 0.750000 0.749999 -0.119396
C51   C     C_1   0.681109 0.250000 0.750000 -0.119587
C52   C     C_1   0.681108 0.250000 0.249999 -0.119991
C53   C     C_1   0.181108 0.750000 0.750000 -0.119883
C54   C     C_1   0.181108 0.750000 0.250000 -0.120393
C55   C     C_1   0.181109 0.249999 0.250000 -0.120021
C56   C     C_1   0.181108 0.250000 0.749999 -0.119644
C57   C     C_1   0.724548 0.750000 0.250001 0.026415
C58   C     C_1   0.724547 0.750000 0.750000 0.026695
C59   C     C_1   0.724548 0.250000 0.750000 0.027212
C60   C     C_1   0.724547 0.250000 0.249999 0.026474
C61   C     C_1   0.224548 0.750000 0.750000 0.027085
C62   C     C_1   0.224547 0.750000 0.250000 0.026088
C63   C     C_1   0.224548 0.250000 0.250000 0.026664
C64   C     C_1   0.224547 0.250000 0.750000 0.026629
C65   C     C_1   0.775446 0.750001 0.250000 0.029976
C66   C     C_1   0.775446 0.750000 0.750000 0.029945
C67   C     C_1   0.775446 0.250000 0.750000 0.030901
C68   C     C_1   0.775446 0.250001 0.250000 0.030056
C69   C     C_1   0.275446 0.750000 0.750000 0.030868
C70   C     C_1   0.275446 0.750000 0.250000 0.029391
C71   C     C_1   0.275446 0.250000 0.250000 0.030376
C72   C     C_1   0.275446 0.250000 0.750000 0.029989
C73   C     C_1   0.818885 0.750001 0.250000 -0.113421
C74   C     C_1   0.818885 0.750000 0.750000 -0.113669
C75   C     C_1   0.818885 0.250001 0.750000 -0.112377
C76   C     C_1   0.818885 0.250001 0.250000 -0.113295
C77   C     C_1   0.318885 0.750000 0.749999 -0.112424
C78   C     C_1   0.318885 0.750000 0.250001 -0.114186
C79   C     C_1   0.318885 0.250000 0.249999 -0.112824
C80   C     C_1   0.318885 0.250000 0.750000 -0.113622
C81   C     C_3   0.550136 0.978720 0.244942 -0.422919
C82   C     C_3   0.549672 0.978615 0.755472 -0.413232
C83   C     C_3   0.550323 0.021279 0.750307 -0.423630
C84   C     C_3   0.549000 0.021384 0.239842 -0.412376
C85   C     C_3   0.550336 0.478721 0.748948 -0.422915
C86   C     C_3   0.547732 0.478621 0.265309 -0.411732
C87   C     C_3   0.549390 0.521286 0.260365 -0.422465
C88   C     C_3   0.549608 0.521385 0.743768 -0.412602
C89   C     C_3   0.049538 0.978713 0.740472 -0.422067
C90   C     C_3   0.048880 0.978617 0.260772 -0.412480
C91   C     C_3   0.050074 0.021282 0.255700 -0.422792
C92   C     C_3   0.047962 0.021378 0.735507 -0.411703
C93   C     C_3   0.048998 0.478629 0.239709 -0.412412
C94   C     C_3   0.049746 0.478613 0.754609 -0.412814
C95   C     C_3   0.050309 0.521277 0.749427 -0.423270
C96   C     C_3   0.050125 0.521295 0.244776 -0.423299
C97   C     C_3   0.477554 0.978212 0.297997 0.033118
C98   C     C_3   0.476412 0.978430 0.702465 0.022883
C99   C     C_3   0.473084 0.021796 0.704296 0.033370
C100  C     C_3   0.481043 0.021575 0.299497 0.022430
C101  C     C_3   0.473779 0.478214 0.796088 0.032734
C102  C     C_3   0.486500 0.478426 0.198772 0.021590
C103  C     C_3   0.482855 0.521789 0.199899 0.032532
C104  C     C_3   0.477149 0.521576 0.797859 0.022296
C105  C     C_3   0.982005 0.978210 0.799821 0.032273
C106  C     C_3   0.981700 0.978428 0.200245 0.021769
C107  C     C_3   0.978187 0.021792 0.201707 0.032569
C108  C     C_3   0.985625 0.021574 0.801011 0.021317
C109  C     C_3   0.981266 0.478423 0.299611 0.022436
C110  C     C_3   0.975573 0.478430 0.702886 0.022752
C111  C     C_3   0.972278 0.521795 0.704774 0.033172
C112  C     C_3   0.977741 0.521787 0.298101 0.033162
H1    H     H_    0.071219 0.528785 0.277408 0.181312
H2    H     H_    0.067518 0.528756 0.714584 0.181235
H3    H     H_    0.072371 0.466320 0.725687 0.180282
H4    H     H_    0.074796 0.466348 0.265852 0.180554
H5    H     H_    0.075912 0.033666 0.759326 0.181529
H6    H     H_    0.071472 0.028762 0.223261 0.181847
H7    H     H_    0.074920 0.966326 0.234882 0.180923
H8    H     H_    0.073360 0.971230 0.771173 0.182279
H9    H     H_    0.573158 0.533685 0.771937 0.180663
H10   H     H_    0.573720 0.528766 0.230064 0.182012
H11   H     H_    0.576078 0.466330 0.241965 0.181413
H12   H     H_    0.568654 0.471251 0.783224 0.181648
H13   H     H_    0.574706 0.033681 0.266060 0.180716
H14   H     H_    0.568138 0.028761 0.715771 0.181186
H15   H     H_    0.572797 0.966325 0.726946 0.180155
H16   H     H_    0.571112 0.971246 0.277657 0.181528
H17   H     H_    0.501505 0.967682 0.327166 0.129708
H18   H     H_    0.503387 0.971317 0.674228 0.111884
H19   H     H_    0.494194 0.032327 0.673012 0.130537
H20   H     H_    0.510555 0.028690 0.325071 0.111221
H21   H     H_    0.495339 0.467681 0.827064 0.131270
H22   H     H_    0.518566 0.471319 0.176480 0.111338
H23   H     H_    0.509764 0.532325 0.173440 0.129554
H24   H     H_    0.504553 0.528686 0.825681 0.112614
H25   H     H_    0.008472 0.967674 0.826723 0.130125
H26   H     H_    0.011540 0.971317 0.175053 0.112231
H27   H     H_    0.002513 0.032325 0.172854 0.130725
H28   H     H_    0.017310 0.028683 0.823839 0.111810
H29   H     H_    0.010879 0.471324 0.325074 0.111148
H30   H     H_    0.002053 0.471316 0.674184 0.112007
H31   H     H_    0.992837 0.532327 0.673124 0.130665
H32   H     H_    0.001790 0.532331 0.327177 0.129573
C113  C     C_1   0.999724 0.610750 0.249768 -0.066888
C114  C     C_1   0.999726 0.610750 0.750252 -0.066467
C115  C     C_1   0.999514 0.389246 0.750402 -0.057938
C116  C     C_1   0.999551 0.389246 0.249646 -0.058300
C117  C     C_1   0.999540 0.110754 0.749670 -0.057928
C118  C     C_1   0.999737 0.110750 0.250228 -0.066400
C119  C     C_1   0.999528 0.889246 0.250359 -0.058043
C120  C     C_1   0.999744 0.889250 0.749790 -0.066334
C121  C     C_1   0.499516 0.610754 0.749600 -0.057854
C122  C     C_1   0.499749 0.610750 0.250209 -0.066638
C123  C     C_1   0.499543 0.389246 0.250326 -0.058068
C124  C     C_1   0.499735 0.389250 0.749763 -0.066252
C125  C     C_1   0.499520 0.110754 0.249626 -0.058214
C126  C     C_1   0.499727 0.110750 0.750249 -0.066650
C127  C     C_1   0.499518 0.889246 0.750394 -0.058210
C128  C     C_1   0.499738 0.889250 0.249772 -0.066597
C129  C     C_3   0.498161 0.963256 0.249212 -0.019376
C130  C     C_3   0.497344 0.963325 0.751339 0.005755
C131  C     C_3   0.498178 0.036744 0.750938 -0.019123
C132  C     C_3   0.497292 0.036675 0.248870 0.005480
C133  C     C_3   0.498186 0.463256 0.749089 -0.019752
C134  C     C_3   0.497278 0.463325 0.250839 0.005187
C135  C     C_3   0.498158 0.536744 0.250599 -0.019578
C136  C     C_3   0.497347 0.536675 0.748675 0.005175
C137  C     C_3   0.998151 0.963256 0.749381 -0.019913
C138  C     C_3   0.997293 0.963325 0.251076 0.005355
C139  C     C_3   0.998157 0.036744 0.250759 -0.019600
C140  C     C_3   0.997273 0.036675 0.749132 0.004987
C141  C     C_3   0.997329 0.463324 0.248926 0.005635
C142  C     C_3   0.997353 0.463325 0.751388 0.005422
C143  C     C_3   0.998184 0.536744 0.750968 -0.019391
C144  C     C_3   0.998158 0.536744 0.249231 -0.019033
C145  C     C_3   0.967077 0.522103 0.206225 0.091461
C146  C     C_3   0.972244 0.522115 0.797264 0.091570
C147  C     C_3   0.967235 0.478938 0.794884 0.085555
C148  C     C_3   0.962395 0.478928 0.209189 0.085950
C149  C     C_3   0.959061 0.021066 0.712541 0.086656
C150  C     C_3   0.966675 0.022113 0.293480 0.091916
C151  C     C_3   0.962008 0.978936 0.290497 0.086372
C152  C     C_3   0.963486 0.977891 0.709201 0.091712
C153  C     C_3   0.465847 0.521057 0.706172 0.085981
C154  C     C_3   0.462828 0.522112 0.290196 0.091629
C155  C     C_3   0.458464 0.478935 0.286792 0.086592
C156  C     C_3   0.470773 0.477879 0.703646 0.091904
C157  C     C_3   0.462524 0.021059 0.208994 0.085929
C158  C     C_3   0.471434 0.022113 0.796773 0.091604
C159  C     C_3   0.466470 0.978936 0.794302 0.085702
C160  C     C_3   0.467234 0.977880 0.206085 0.091389
C161  C     C_1   0.999203 0.577473 0.249543 0.029057
C162  C     C_1   0.999211 0.577473 0.750531 0.029139
C163  C     C_1   0.998700 0.422527 0.750837 0.091985
C164  C     C_1   0.998732 0.422528 0.249309 0.091598
C165  C     C_1   0.998700 0.077472 0.749396 0.092066
C166  C     C_1   0.999217 0.077473 0.250449 0.029310
C167  C     C_1   0.998695 0.922528 0.250697 0.092054
C168  C     C_1   0.999222 0.922527 0.749608 0.029591
C169  C     C_1   0.498702 0.577473 0.749183 0.092113
C170  C     C_1   0.499230 0.577473 0.250385 0.029463
C171  C     C_1   0.498706 0.422528 0.250592 0.091988
C172  C     C_1   0.499221 0.422527 0.749501 0.029307
C173  C     C_1   0.498686 0.077472 0.249269 0.091888
C174  C     C_1   0.499210 0.077473 0.750520 0.029050
C175  C     C_1   0.498702 0.922527 0.750814 0.091861
C176  C     C_1   0.499220 0.922527 0.249543 0.029277
H33   H     H_    0.430473 0.966159 0.209646 0.160046
H34   H     H_    0.428205 0.972956 0.785968 0.168321
H35   H     H_    0.434503 0.033836 0.796681 0.160103
H36   H     H_    0.425208 0.027044 0.220871 0.168275
H37   H     H_    0.433847 0.466157 0.704285 0.160147
H38   H     H_    0.422626 0.472949 0.271010 0.168301
H39   H     H_    0.426651 0.533831 0.282753 0.160067
H40   H     H_    0.427708 0.527042 0.715054 0.168420
H41   H     H_    0.927191 0.966169 0.716035 0.160156
H42   H     H_    0.924852 0.972953 0.278130 0.168247
H43   H     H_    0.929963 0.033834 0.289446 0.160027
H44   H     H_    0.922967 0.027046 0.727735 0.168411
H45   H     H_    0.925133 0.472944 0.221236 0.168300
H46   H     H_    0.928830 0.472958 0.787224 0.168450
H47   H     H_    0.935317 0.533840 0.797817 0.160186
H48   H     H_    0.930327 0.533820 0.209913 0.159951
H49   H     H_    0.569936 0.966098 0.214403 0.254284
H50   H     H_    0.566222 0.970775 0.790330 0.274569
H51   H     H_    0.572901 0.033893 0.778859 0.253882
H52   H     H_    0.562193 0.029214 0.203576 0.274872
H53   H     H_    0.572495 0.466097 0.720077 0.254073
H54   H     H_    0.557006 0.470788 0.302767 0.274911
H55   H     H_    0.565829 0.533908 0.292836 0.254326
H56   H     H_    0.565631 0.529212 0.708661 0.274666
H57   H     H_    0.066516 0.966093 0.708278 0.254329
H58   H     H_    0.061610 0.970782 0.297200 0.274603
H59   H     H_    0.069475 0.033900 0.286496 0.254027
H60   H     H_    0.057864 0.029213 0.698211 0.274834
H61   H     H_    0.062085 0.470792 0.203411 0.274815
H62   H     H_    0.066896 0.470776 0.789176 0.274736
H63   H     H_    0.073384 0.533892 0.777578 0.254091
H64   H     H_    0.069804 0.533915 0.214156 0.254093
C177  C     C_1   0.499977 0.750001 0.431111 -0.113436
C178  C     C_1   0.499974 0.750003 0.568889 -0.113203
C179  C     C_1   0.499977 0.249999 0.568889 -0.113316
C180  C     C_1   0.499974 0.249997 0.431111 -0.113205
C181  C     C_1   0.499977 0.250001 0.931111 -0.112541
C182  C     C_1   0.499974 0.250003 0.068889 -0.112011
C183  C     C_1   0.499977 0.749999 0.068889 -0.112294
C184  C     C_1   0.499974 0.749997 0.931111 -0.112509
C185  C     C_1   0.999977 0.750001 0.931111 -0.111987
C186  C     C_1   0.999974 0.750004 0.068889 -0.112658
C187  C     C_1   0.999977 0.249999 0.068889 -0.111825
C188  C     C_1   0.999974 0.249997 0.931111 -0.111607
C189  C     C_1   0.999977 0.250001 0.431111 -0.113537
C190  C     C_1   0.999974 0.250003 0.568889 -0.113597
C191  C     C_1   0.999977 0.749999 0.568889 -0.113708
C192  C     C_1   0.999974 0.749997 0.431111 -0.112957
C193  C     C_1   0.499972 0.750003 0.474550 0.032098
C194  C     C_1   0.499970 0.750004 0.525450 0.032078
C195  C     C_1   0.499972 0.249997 0.525450 0.032117
C196  C     C_1   0.499971 0.249995 0.474550 0.032115
C197  C     C_1   0.499972 0.250003 0.974550 0.033036
C198  C     C_1   0.499971 0.250004 0.025450 0.033189
C199  C     C_1   0.499972 0.749997 0.025450 0.033085
C200  C     C_1   0.499971 0.749995 0.974550 0.032898
C201  C     C_1   0.999973 0.750004 0.974550 0.033289
C202  C     C_1   0.999971 0.750005 0.025450 0.032974
C203  C     C_1   0.999972 0.249997 0.025450 0.033606
C204  C     C_1   0.999971 0.249996 0.974550 0.033598
C205  C     C_1   0.999972 0.250003 0.474550 0.031822
C206  C     C_1   0.999970 0.250005 0.525450 0.031797
C207  C     C_1   0.999972 0.749997 0.525450 0.031970
C208  C     C_1   0.999970 0.749996 0.474550 0.032263
N1    N     N_R   0.428901 0.964055 0.308178 0.250877
O105  O     O_R   0.422744 0.940499 0.343002 -0.318505
O106  O     O_R   0.391352 0.975963 0.284884 -0.339931
N2    N     N_R   0.430949 0.961245 0.686705 0.259132
O107  O     O_R   0.416141 0.966762 0.642869 -0.288684
O108  O     O_R   0.406464 0.939006 0.714175 -0.355927
N3    N     N_R   0.423693 0.035958 0.698728 0.250538
O109  O     O_R   0.414298 0.059518 0.664638 -0.317716
O110  O     O_R   0.388493 0.024053 0.725442 -0.341299
N4    N     N_R   0.437266 0.038767 0.319458 0.258955
O111  O     O_R   0.426667 0.033281 0.364503 -0.290341
O112  O     O_R   0.410278 0.060972 0.294390 -0.354540
N5    N     N_R   0.424468 0.464066 0.802380 0.250721
O113  O     O_R   0.415562 0.440513 0.836609 -0.315385
O114  O     O_R   0.388887 0.475982 0.776185 -0.339905
N6    N     N_R   0.445100 0.461230 0.174266 0.258803
O115  O     O_R   0.439349 0.466720 0.128350 -0.289945
O116  O     O_R   0.415608 0.439016 0.196317 -0.352817
N7    N     N_R   0.435553 0.535937 0.184610 0.251275
O117  O     O_R   0.433120 0.559493 0.149328 -0.318198
O118  O     O_R   0.395747 0.524022 0.203784 -0.338106
N8    N     N_R   0.431940 0.538775 0.814307 0.259350
O119  O     O_R   0.417860 0.533337 0.858399 -0.285822
O120  O     O_R   0.406977 0.560937 0.787161 -0.354681
N9    N     N_R   0.934458 0.964058 0.814321 0.251314
O121  O     O_R   0.931442 0.940506 0.849561 -0.316621
O122  O     O_R   0.894974 0.975967 0.794482 -0.337711
N10   N     N_R   0.938186 0.961237 0.179716 0.259086
O123  O     O_R   0.928163 0.966736 0.134542 -0.286151
O124  O     O_R   0.910891 0.939015 0.204422 -0.353845
N11   N     N_R   0.929669 0.035948 0.190898 0.251020
O125  O     O_R   0.923962 0.059506 0.155999 -0.315720
O126  O     O_R   0.891822 0.024039 0.213704 -0.339281
N12   N     N_R   0.943815 0.038768 0.824817 0.258912
O127  O     O_R   0.937281 0.033264 0.870625 -0.287734
O128  O     O_R   0.914713 0.060999 0.802281 -0.352613
N13   N     N_R   0.937577 0.461219 0.319749 0.258920
O129  O     O_R   0.927140 0.466720 0.364828 -0.290518
O130  O     O_R   0.910522 0.438984 0.294806 -0.354611
N14   N     N_R   0.929844 0.461245 0.687919 0.259267
O131  O     O_R   0.914285 0.466751 0.644342 -0.287893
O132  O     O_R   0.905831 0.439017 0.715818 -0.355548
N15   N     N_R   0.922796 0.535957 0.700070 0.250572
O133  O     O_R   0.912807 0.559520 0.666152 -0.317160
O134  O     O_R   0.888069 0.524051 0.727394 -0.340662
N16   N     N_R   0.929115 0.535926 0.308453 0.250852
O135  O     O_R   0.923068 0.559485 0.343290 -0.318798
O136  O     O_R   0.891490 0.524000 0.285301 -0.340274
N17   N     N_R   0.485745 0.964857 0.159357 0.255513
O137  O     O_R   0.525523 0.977675 0.141135 -0.308644
O138  O     O_R   0.460742 0.941222 0.134471 -0.320286
N18   N     N_R   0.475764 0.961328 0.841221 0.256895
O139  O     O_R   0.512996 0.940294 0.848720 -0.338460
O140  O     O_R   0.445349 0.966438 0.876193 -0.287434
N19   N     N_R   0.494249 0.035123 0.841563 0.255580
O141  O     O_R   0.535562 0.022300 0.855965 -0.309903
O142  O     O_R   0.471691 0.058750 0.868698 -0.318253
N20   N     N_R   0.467387 0.038654 0.161402 0.256865
O143  O     O_R   0.503703 0.059743 0.150473 -0.338725
O144  O     O_R   0.433871 0.033487 0.129405 -0.290115
N21   N     N_R   0.492928 0.464855 0.658532 0.255452
O145  O     O_R   0.534026 0.477671 0.643521 -0.310716
O146  O     O_R   0.469976 0.441219 0.631744 -0.319064
N22   N     N_R   0.458238 0.461334 0.334627 0.256768
O147  O     O_R   0.493224 0.440289 0.349380 -0.339875
O148  O     O_R   0.421484 0.466460 0.362856 -0.293256
N23   N     N_R   0.476268 0.535129 0.338628 0.255207
O149  O     O_R   0.513891 0.522312 0.360967 -0.308710
O150  O     O_R   0.448753 0.558752 0.360729 -0.322907
N24   N     N_R   0.474463 0.538651 0.659114 0.256792
O151  O     O_R   0.511538 0.559733 0.651091 -0.339260
O152  O     O_R   0.443578 0.533495 0.624569 -0.287915
N25   N     N_R   0.977735 0.964882 0.660996 0.255191
O153  O     O_R   0.015723 0.977705 0.639292 -0.309379
O154  O     O_R   0.950600 0.941257 0.638436 -0.322432
N26   N     N_R   0.966247 0.961333 0.338143 0.256772
O155  O     O_R   0.002454 0.940284 0.349564 -0.339950
O156  O     O_R   0.932288 0.966460 0.369680 -0.290395
N27   N     N_R   0.984578 0.035128 0.340447 0.255328
O157  O     O_R   0.024120 0.022309 0.359177 -0.310440
O158  O     O_R   0.959248 0.058752 0.365020 -0.320992
N28   N     N_R   0.959614 0.038676 0.664716 0.256779
O159  O     O_R   0.994868 0.059681 0.650517 -0.339988
O160  O     O_R   0.923293 0.033597 0.635916 -0.292464
N29   N     N_R   0.967051 0.461311 0.161596 0.256871
O161  O     O_R   0.003473 0.440399 0.150433 -0.338257
O162  O     O_R   0.933274 0.466304 0.129828 -0.290556
N30   N     N_R   0.977352 0.461334 0.841636 0.256918
O163  O     O_R   0.014686 0.440273 0.848472 -0.338125
O164  O     O_R   0.947577 0.466471 0.877147 -0.286654
N31   N     N_R   0.995838 0.535128 0.841647 0.255577
O165  O     O_R   0.037396 0.522305 0.855326 -0.309779
O166  O     O_R   0.973759 0.558756 0.869171 -0.318097
N32   N     N_R   0.985409 0.535107 0.159416 0.255433
O167  O     O_R   0.025132 0.522297 0.141066 -0.308665
O168  O     O_R   0.960290 0.558708 0.134586 -0.320780

loop_
_geom_bond_atom_site_label_1
_geom_bond_atom_site_label_2
_geom_bond_distance
_ccdc_geom_bond_type
C112  N16   1.473377 S    
N7    O117  1.301153 A    
Zn4   O4    1.919386 S    
C149  N28   1.474144 S    
O87   C31   1.271536 A    
O98   C10   1.268581 A    
C98   C130  1.575511 S    
N17   O137  1.301462 A    
Zn29  O101  1.914768 S    
C37   C74   1.437805 S    
O48   C34   1.271248 A    
C111  C143  1.568256 S    
N21   O145  1.301462 A    
C112  C144  1.568311 S    
O88   C32   1.271528 A    
C97   C129  1.568239 S    
C125  C173  1.205045 T    
C101  H21   1.115981 S    
C108  C140  1.575510 S    
C109  C141  1.575508 S    
O10   C2    1.268725 A    
Zn28  O8    1.918763 S    
C190  C206  1.207235 T    
O15   C7    1.268658 A    
C89   C92   1.551224 S    
C57   C65   1.414505 S    
O16   C8    1.268733 A    
C135  C170  1.474670 S    
C181  C197  1.207235 T    
C102  H22   1.115412 S    
N26   O155  1.301435 A    
C94   C142  1.560234 S    
O60   C44   1.271654 A    
Zn13  O19   1.914275 S    
O63   C41   1.271596 A    
Zn14  O20   1.914229 S    
O50   C38   1.271249 A    
N31   O166  1.301260 A    
O64   C42   1.271652 A    
C158  C159  1.570546 S    
C14   C117  1.432772 S    
C60   C68   1.414516 S    
Zn11  O83   1.906264 S    
O97   C9    1.268589 A    
Zn26  O98   1.914813 S    
C83   C131  1.553620 S    
Zn2   O2    1.919407 S    
Zn5   O11   1.914275 S    
C64   C72   1.414514 S    
C81   H16   1.113388 S    
Zn6   O12   1.914229 S    
Zn25  O49   1.906259 S    
Zn7   O1    1.919295 S    
C101  N5    1.473372 S    
Zn15  O65   1.906834 S    
O104  C16   1.268465 A    
Zn29  O37   1.906221 S    
O36   C28   1.271550 A    
N32   O168  1.301256 A    
C90   H58   1.109276 S    
Zn31  O55   1.906271 S    
N19   O141  1.301461 A    
Zn7   O79   1.906264 S    
Zn22  O46   1.906251 S    
O14   C6    1.268757 A    
O69   C47   1.271597 A    
O21   C13   1.268664 A    
C123  C171  1.205039 T    
Zn26  O6    1.918786 S    
C146  C147  1.570563 S    
C182  C198  1.207235 T    
Zn24  O2    1.918763 S    
Zn31  O5    1.918852 S    
C188  C204  1.207235 T    
Zn12  O8    1.919386 S    
C149  C152  1.570504 S    
N24   O152  1.301269 A    
N23   O150  1.301256 A    
Zn4   O76   1.906219 S    
O45   C35   1.271303 A    
C68   C76   1.207201 T    
O46   C36   1.271245 A    
O101  C13   1.268577 A    
C132  C157  1.575227 S    
N27   O158  1.301257 A    
O95   C7    1.268583 A    
Zn14  O68   1.906830 S    
O96   C8    1.268501 A    
C106  H26   1.115409 S    
C10   C113  1.432851 S    
Zn18  O90   1.914813 S    
C129  C160  1.566990 S    
C35   C80   1.437805 S    
C126  C174  1.204719 T    
N29   O162  1.301256 A    
C96   H1    1.113390 S    
C141  C164  1.477378 S    
N28   O159  1.301434 A    
C116  C164  1.205034 T    
C83   H51   1.109909 S    
N10   O123  1.301293 A    
C23   C177  1.437859 S    
C53   C61   1.207198 T    
O80   C24   1.271527 A    
O71   C45   1.271594 A    
C131  C174  1.474681 S    
C105  N9    1.473377 S    
C119  C167  1.205043 T    
Zn21  O3    1.918879 S    
C90   C138  1.560243 S    
Zn22  O4    1.918786 S    
C193  C194  1.414562 S    
Zn10  O6    1.919407 S    
Zn19  O27   1.906219 S    
N14   O131  1.301290 A    
Zn2   O64   1.906831 S    
C81   C129  1.553645 S    
C134  C155  1.575203 S    
Zn19  O3    1.918852 S    
C205  C206  1.414564 S    
C4    C123  1.432770 S    
C11   C116  1.432770 S    
Zn16  O66   1.906842 S    
C5    C126  1.432849 S    
Zn6   O60   1.906830 S    
N2    O108  1.301488 A    
C130  C159  1.575196 S    
C84   H52   1.109286 S    
Zn24  O32   1.906265 S    
Zn15  O17   1.914286 S    
O83   C27   1.271533 A    
N13   O129  1.301290 A    
N8    O120  1.301495 A    
O81   C25   1.271548 A    
C118  C166  1.204716 T    
C59   C67   1.414505 S    
O67   C47   1.271597 A    
N20   O143  1.301428 A    
C109  C112  1.573351 S    
O33   C25   1.271556 A    
C46   C54   1.437811 S    
N1    O105  1.301150 A    
N18   O140  1.301266 A    
C102  N6    1.474845 S    
O75   C19   1.271533 A    
Zn1   O73   1.906267 S    
C160  N17   1.474239 S    
O73   C17   1.271548 A    
N5    O113  1.301150 A    
C160  H33   1.110626 S    
C203  C204  1.414567 S    
C84   H13   1.113306 S    
C127  C175  1.205047 T    
O77   C21   1.271550 A    
C201  C202  1.414564 S    
O22   C14   1.268786 A    
C34   C77   1.437794 S    
N7    O118  1.301450 A    
Zn19  O91   1.914779 S    
N2    O107  1.301291 A    
Zn28  O36   1.906265 S    
C2    C121  1.432782 S    
N11   O126  1.301451 A    
C101  C133  1.568262 S    
C177  C193  1.207235 T    
C199  C200  1.414567 S    
Zn32  O56   1.906262 S    
O91   C3    1.268584 A    
O56   C38   1.271246 A    
C144  C145  1.567026 S    
O94   C6    1.268472 A    
C81   H49   1.109910 S    
O44   C36   1.271248 A    
Zn15  O5    1.919295 S    
C148  N29   1.474115 S    
C143  C162  1.474679 S    
C108  N12   1.474860 S    
C153  H40   1.109635 S    
O93   C5    1.268588 A    
C106  C138  1.575509 S    
N3    O110  1.301452 A    
O99   C11   1.268480 A    
N16   O135  1.301149 A    
C136  C153  1.575228 S    
C31   C185  1.437859 S    
C185  C201  1.207232 T    
C86   H11   1.113306 S    
C56   C64   1.207207 T    
O20   C12   1.268730 A    
O39   C31   1.271541 A    
Zn17  O41   1.906259 S    
C82   H15   1.113310 S    
O40   C32   1.271549 A    
C67   C75   1.207195 T    
C146  N31   1.474239 S    
C83   H14   1.113391 S    
C100  N4    1.474845 S    
C65   C73   1.207195 T    
C153  N24   1.474188 S    
C192  C208  1.207235 T    
Zn18  O26   1.906267 S    
N4    O112  1.301492 A    
C110  C142  1.575507 S    
C99   H19   1.115976 S    
Zn13  O7    1.919317 S    
Zn26  O34   1.906267 S    
C189  C205  1.207232 T    
N22   O147  1.301435 A    
Zn23  O1    1.918852 S    
O85   C29   1.271550 A    
C32   C186  1.437859 S    
C99   C131  1.568265 S    
C96   H64   1.109908 S    
Zn2   O74   1.906220 S    
Zn28  O100  1.914825 S    
O49   C37   1.271303 A    
Zn13  O67   1.906822 S    
C107  N11   1.473377 S    
C154  N23   1.474243 S    
C42   C50   1.437811 S    
C120  C168  1.204711 T    
Zn3   O3    1.919295 S    
Zn1   O63   1.906823 S    
C153  C156  1.570572 S    
N30   O164  1.301266 A    
N25   O153  1.301461 A    
Zn3   O61   1.906834 S    
Zn8   O2    1.919386 S    
Zn5   O59   1.906822 S    
C103  C135  1.568253 S    
N6    O115  1.301292 A    
C104  C136  1.575477 S    
C20   C182  1.437856 S    
C131  C158  1.567005 S    
C133  C172  1.474681 S    
O24   C16   1.268762 A    
C148  H45   1.109663 S    
C157  H36   1.109649 S    
C107  H27   1.115976 S    
C145  H48   1.110633 S    
C110  C111  1.573333 S    
C90   H7    1.113310 S    
C144  C161  1.474677 S    
Zn21  O29   1.906221 S    
C86   H54   1.109273 S    
C150  H43   1.110623 S    
C92   H60   1.109270 S    
C104  N8    1.474818 S    
C103  N7    1.473380 S    
C156  H37   1.110627 S    
C137  C168  1.474674 S    
C105  C108  1.573329 S    
Zn9   O81   1.906267 S    
C128  C176  1.204713 T    
C197  C198  1.414562 S    
C70   C78   1.207204 T    
C84   C132  1.560237 S    
Zn5   O3    1.919317 S    
C85   C133  1.553662 S    
C114  C162  1.204720 T    
Zn15  O87   1.906264 S    
Zn7   O9    1.914286 S    
C111  H31   1.115976 S    
N24   O151  1.301430 A    
C97   C100  1.573284 S    
Zn12  O22   1.914241 S    
C112  H32   1.115974 S    
Zn27  O35   1.906219 S    
C97   H17   1.115981 S    
N15   O133  1.301151 A    
O35   C27   1.271541 A    
O12   C4    1.268780 A    
C90   C91   1.551213 S    
C101  C104  1.573265 S    
N27   O157  1.301461 A    
Zn24  O96   1.914825 S    
C88   H9    1.113305 S    
C109  H29   1.115406 S    
C146  H47   1.110625 S    
N12   O127  1.301292 A    
C121  C169  1.205046 T    
C94   H3    1.113308 S    
C154  H39   1.110630 S    
Zn12  O84   1.906219 S    
O72   C46   1.271650 A    
O58   C42   1.271653 A    
C91   C139  1.553638 S    
C12   C115  1.432784 S    
Zn28  O52   1.906262 S    
C38   C73   1.437791 S    
C88   H56   1.109281 S    
C13   C118  1.432844 S    
C61   C69   1.414505 S    
C138  C167  1.477399 S    
O61   C43   1.271595 A    
Zn32  O40   1.906265 S    
C81   C84   1.551221 S    
C19   C181  1.437859 S    
N28   O160  1.301265 A    
C86   C134  1.560247 S    
C21   C179  1.437862 S    
Zn16  O18   1.914241 S    
C85   C88   1.551222 S    
C140  C149  1.575176 S    
Zn8   O80   1.906218 S    
O82   C26   1.271538 A    
C43   C51   1.437802 S    
N5    O114  1.301454 A    
C58   C66   1.414514 S    
C179  C195  1.207235 T    
C41   C49   1.437802 S    
C136  C169  1.477400 S    
O34   C26   1.271563 A    
C105  H25   1.115975 S    
O79   C23   1.271537 A    
C3    C124  1.432850 S    
O26   C18   1.271565 A    
C45   C53   1.437802 S    
C29   C187  1.437862 S    
C85   H53   1.109909 S    
O74   C18   1.271539 A    
C30   C188  1.437862 S    
C155  H38   1.109657 S    
C48   C56   1.437811 S    
O31   C23   1.271540 A    
Zn20  O28   1.906265 S    
C85   H12   1.113390 S    
C25   C191  1.437862 S    
O9    C1    1.268667 A    
O78   C22   1.271540 A    
C26   C192  1.437862 S    
O18   C10   1.268666 A    
Zn23  O31   1.906219 S    
C154  C155  1.570530 S    
C69   C77   1.207195 T    
Zn26  O50   1.906251 S    
C137  C152  1.567007 S    
N29   O161  1.301449 A    
O13   C5    1.268657 A    
N17   O138  1.301257 A    
Zn17  O1    1.918879 S    
C106  N10   1.474849 S    
C115  C163  1.205046 T    
C152  N25   1.474235 S    
Zn30  O38   1.906267 S    
C50   C58   1.207207 T    
C91   H6    1.113390 S    
C98   N2    1.474855 S    
C142  C147  1.575213 S    
N21   O146  1.301258 A    
C91   H59   1.109908 S    
C159  N18   1.474162 S    
O55   C37   1.271302 A    
O90   C2    1.268505 A    
Zn31  O103  1.914779 S    
C63   C71   1.414505 S    
C102  C103  1.573286 S    
Zn32  O104  1.914825 S    
C152  H41   1.110626 S    
Zn1   O15   1.914275 S    
C87   H55   1.109905 S    
Zn2   O16   1.914229 S    
O25   C17   1.271556 A    
Zn3   O13   1.914286 S    
N14   O132  1.301488 A    
N1    O106  1.301453 A    
O66   C46   1.271655 A    
C99   N3    1.473376 S    
N11   O125  1.301153 A    
O28   C20   1.271550 A    
O29   C21   1.271556 A    
N10   O124  1.301490 A    
C97   N1    1.473375 S    
C94   H62   1.109283 S    
Zn10  O82   1.906220 S    
O32   C24   1.271550 A    
C133  C156  1.566993 S    
C71   C79   1.207195 T    
C106  C107  1.573309 S    
O17   C9    1.268656 A    
C183  C199  1.207235 T    
C156  N21   1.474241 S    
C184  C200  1.207235 T    
C95   C143  1.553626 S    
Zn17  O89   1.914768 S    
C96   C144  1.553636 S    
N20   O144  1.301268 A    
N25   O154  1.301256 A    
C98   C99   1.573344 S    
O41   C33   1.271303 A    
C140  C165  1.477392 S    
C92   C140  1.560251 S    
C24   C178  1.437856 S    
C93   C141  1.560269 S    
C54   C62   1.207207 T    
Zn23  O95   1.914779 S    
C87   C135  1.553651 S    
N32   O167  1.301456 A    
C88   C136  1.560243 S    
C147  H46   1.109661 S    
O92   C4    1.268443 A    
C55   C63   1.207198 T    
C145  N32   1.474236 S    
Zn13  O85   1.906266 S    
C195  C196  1.414567 S    
C151  H42   1.109658 S    
C40   C75   1.437794 S    
N22   O148  1.301265 A    
O47   C33   1.271302 A    
C100  C132  1.575501 S    
C139  C166  1.474676 S    
C27   C189  1.437859 S    
C159  H34   1.109659 S    
Zn5   O77   1.906266 S    
O103  C15   1.268567 A    
Zn19  O43   1.906271 S    
C22   C180  1.437862 S    
O30   C22   1.271563 A    
C147  N30   1.474177 S    
C94   C95   1.551181 S    
O68   C48   1.271654 A    
Zn22  O94   1.914813 S    
C89   H57   1.109907 S    
C142  C163  1.477409 S    
Zn20  O4    1.918763 S    
C117  C165  1.205039 T    
N18   O139  1.301435 A    
C100  H20   1.115409 S    
N16   O136  1.301452 A    
O52   C40   1.271248 A    
C95   H63   1.109911 S    
Zn17  O25   1.906221 S    
N15   O134  1.301451 A    
O102  C14   1.268436 A    
C1    C122  1.432840 S    
O51   C39   1.271301 A    
Zn27  O99   1.914779 S    
C158  H35   1.110625 S    
C82   H50   1.109275 S    
Zn8   O10   1.914241 S    
Zn25  O97   1.914768 S    
C15   C120  1.432844 S    
C82   C130  1.560241 S    
N26   O156  1.301266 A    
C17   C183  1.437862 S    
C16   C119  1.432777 S    
Zn1   O1    1.919317 S    
Zn4   O14   1.914241 S    
C6    C125  1.432779 S    
C33   C78   1.437805 S    
C124  C172  1.204719 T    
O38   C30   1.271563 A    
C7    C128  1.432844 S    
C98   H18   1.115404 S    
C8    C127  1.432781 S    
O89   C1    1.268570 A    
N31   O165  1.301460 A    
Zn7   O57   1.906834 S    
Zn20  O44   1.906262 S    
N13   O130  1.301491 A    
C110  H30   1.115406 S    
N8    O119  1.301291 A    
Zn25  O5    1.918879 S    
C89   C137  1.553633 S    
Zn24  O48   1.906262 S    
Zn6   O4    1.919407 S    
Zn14  O86   1.906220 S    
O76   C20   1.271525 A    
C102  C134  1.575510 S    
C207  C208  1.414567 S    
O11   C3    1.268660 A    
Zn9   O23   1.914275 S    
Zn32  O6    1.918763 S    
Zn30  O54   1.906251 S    
Zn27  O51   1.906271 S    
Zn10  O24   1.914229 S    
C135  C154  1.566994 S    
O54   C40   1.271245 A    
Zn11  O21   1.914286 S    
Zn9   O71   1.906823 S    
N6    O116  1.301488 A    
C72   C80   1.207204 T    
C138  C151  1.575202 S    
Zn6   O78   1.906220 S    
C44   C52   1.437811 S    
C155  N22   1.474171 S    
C139  C150  1.567001 S    
C109  N13   1.474850 S    
C66   C74   1.207204 T    
O84   C28   1.271525 A    
C9    C114  1.432850 S    
C141  C148  1.575127 S    
Zn30  O102  1.914813 S    
O37   C29   1.271556 A    
C93   H61   1.109242 S    
Zn20  O92   1.914825 S    
O100  C12   1.268504 A    
Zn25  O33   1.906221 S    
C178  C194  1.207235 T    
Zn11  O69   1.906834 S    
Zn27  O7    1.918852 S    
N23   O149  1.301462 A    
O27   C19   1.271542 A    
C145  C148  1.570459 S    
Zn3   O75   1.906264 S    
C158  N19   1.474235 S    
O86   C30   1.271540 A    
C107  C139  1.568258 S    
C92   H5    1.113308 S    
O59   C43   1.271598 A    
C28   C190  1.437856 S    
C157  C160  1.570580 S    
Zn12  O70   1.906843 S    
C150  C151  1.570543 S    
C62   C70   1.414514 S    
Zn22  O30   1.906267 S    
N3    O109  1.301150 A    
O19   C11   1.268742 A    
Zn29  O7    1.918879 S    
Zn9   O5    1.919317 S    
Zn30  O8    1.918786 S    
O62   C44   1.271651 A    
C39   C76   1.437805 S    
Zn11  O7    1.919295 S    
Zn18  O2    1.918786 S    
Zn4   O62   1.906843 S    
C150  N27   1.474238 S    
O57   C41   1.271597 A    
C93   C96   1.551212 S    
O43   C35   1.271302 A    
C149  H44   1.109657 S    
Zn8   O58   1.906842 S    
N12   O128  1.301491 A    
C132  C173  1.477406 S    
C36   C79   1.437794 S    
C108  H28   1.115406 S    
N4    O111  1.301288 A    
O23   C15   1.268673 A    
C129  C176  1.474678 S    
Zn16  O88   1.906218 S    
C51   C59   1.207198 T    
Zn29  O53   1.906259 S    
C180  C196  1.207235 T    
C49   C57   1.207198 T    
C47   C55   1.437802 S    
C87   H10   1.113388 S    
O65   C45   1.271599 A    
C151  N26   1.474173 S    
C157  N20   1.474183 S    
C187  C203  1.207235 T    
N9    O122  1.301452 A    
C111  N15   1.473376 S    
C103  H23   1.115978 S    
O70   C48   1.271651 A    
C104  H24   1.115414 S    
Zn10  O72   1.906831 S    
C105  C137  1.568279 S    
C18   C184  1.437859 S    
C82   C83   1.551180 S    
C110  N14   1.474848 S    
C89   H8    1.113392 S    
C191  C207  1.207235 T    
Zn31  O39   1.906219 S    
N30   O163  1.301434 A    
O53   C39   1.271304 A    
C113  C161  1.204721 T    
C86   C87   1.551246 S    
O42   C34   1.271245 A    
C93   H4    1.113309 S    
C186  C202  1.207232 T    
Zn14  O8    1.919407 S    
C134  C171  1.477392 S    
C52   C60   1.207207 T    
Zn18  O42   1.906251 S    
N9    O121  1.301153 A    
C143  C146  1.567003 S    
Zn21  O45   1.906259 S    
N19   O142  1.301255 A    
C130  C175  1.477406 S    
C122  C170  1.204714 T    
Zn23  O47   1.906271 S    
C95   H2    1.113389 S    
Zn21  O93   1.914768 S    
Zn16  O6    1.919386 S    
