data_mof_unit_24011.cif
_audit_creation_date              2012-12-11T16:22:24-0500
_audit_creation_method            fapswitch 2.2
_symmetry_space_group_name_H-M    P1
_symmetry_Int_Tables_number       1
_space_group_crystal_system       triclinic
_cell_length_a                    16.950775
_cell_length_b                    16.852958
_cell_length_c                    19.450904
_cell_angle_alpha                 117.826962
_cell_angle_beta                  62.667457
_cell_angle_gamma                 100.443585
_cell_volume                      4361.51691545

loop_
_atom_site_label
_atom_site_type_symbol
_atom_type_description
_atom_site_fract_x
_atom_site_fract_y
_atom_site_fract_z
_atom_type_partial_charge
C1    C     C_R   0.022586 0.759962 0.028230 -0.127731
C2    C     C_R   0.765421 0.448006 0.243275 0.037411
C3    C     C_R   0.742078 0.460142 0.936190 0.062994
C4    C     C_R   0.049934 0.738016 0.245429 0.036666
C5    C     C_R   0.261820 0.522251 0.968096 -0.126598
C6    C     C_R   0.969871 0.248022 0.826875 -0.130490
C7    C     C_R   0.169094 0.479304 0.750879 -0.122984
C8    C     C_R   0.027968 0.314089 0.075002 -0.133192
C9    C     C_R   0.950406 0.246026 0.999606 -0.128831
C10   C     C_R   0.248229 0.547500 0.826431 -0.138529
C11   C     C_R   0.194360 0.440424 0.040458 -0.131967
C12   C     C_R   0.762799 0.425103 0.165958 -0.122093
C13   C     C_R   0.032842 0.326518 0.750598 -0.120456
C14   C     C_R   0.276159 0.456103 0.984920 0.061256
C15   C     C_R   0.021731 0.240418 0.744122 0.034455
C16   C     C_R   0.254118 0.500820 0.743935 0.034584
C17   C     C_R   0.990040 0.233112 0.042388 0.062706
C18   C     C_R   0.060166 0.858594 0.458368 -0.165681
C19   C     C_R   0.035879 0.799140 0.393423 -0.175211
C20   C     C_R   0.082539 0.794356 0.310501 0.143997
C21   C     C_R   0.159117 0.843672 0.291394 -0.166660
C22   C     C_R   0.183609 0.903379 0.356687 -0.183701
C23   C     C_R   0.816025 0.509310 0.912503 -0.140245
C24   C     C_R   0.130956 0.914978 0.441601 0.117389
C25   C     C_R   0.128607 0.079718 0.509903 -0.163479
C26   C     C_R   0.094959 0.158479 0.584783 -0.167874
C27   C     C_R   0.064151 0.158626 0.665196 0.145684
C28   C     C_R   0.075260 0.080577 0.669166 -0.163321
C29   C     C_R   0.109090 0.001370 0.593843 -0.184600
C30   C     C_R   0.131171 0.999506 0.514155 0.117100
C31   C     C_R   0.584822 0.327770 0.357062 -0.180069
C32   C     C_R   0.649799 0.346479 0.290648 -0.167541
C33   C     C_R   0.707675 0.416156 0.307987 0.141432
C34   C     C_R   0.004796 0.660681 0.242727 -0.126597
C35   C     C_R   0.706623 0.459182 0.389887 -0.179349
C36   C     C_R   0.641722 0.440658 0.456077 -0.169195
C37   C     C_R   0.576685 0.379463 0.441230 0.117484
C38   C     C_R   0.487034 0.405900 0.593314 -0.187080
C39   C     C_R   0.409915 0.443333 0.668423 -0.159228
C40   C     C_R   0.335506 0.463988 0.665133 0.147824
C41   C     C_R   0.337159 0.442131 0.585727 -0.178009
C42   C     C_R   0.414384 0.405424 0.510780 -0.163390
C43   C     C_R   0.490734 0.389889 0.514440 0.120036
C44   C     C_R   0.674935 0.432159 0.902577 0.130218
C45   C     C_R   0.749524 0.432768 0.989941 -0.121271
C46   C     C_R   0.362095 0.413019 0.951117 0.133849
C47   C     C_R   0.454905 0.336757 0.968016 -0.226880
C48   C     C_R   0.371008 0.358116 0.983813 -0.172933
C49   C     C_R   0.437805 0.434313 0.891818 -0.281085
C50   C     C_R   0.521264 0.419560 0.881375 0.190278
C51   C     C_R   0.529230 0.373779 0.922986 0.189657
C52   C     C_R   0.607919 0.376501 0.929250 -0.281182
C53   C     C_R   0.670684 0.468950 0.852672 -0.174698
C54   C     C_R   0.594558 0.460687 0.840286 -0.228928
C55   C     C_R   0.808553 0.185510 0.183357 0.119673
C56   C     C_R   0.074145 0.738814 0.167106 -0.136328
C57   C     C_R   0.926932 0.863441 0.028784 0.129989
C58   C     C_R   0.847804 0.952832 0.009275 -0.230526
C59   C     C_R   0.886476 0.871043 0.982972 -0.173581
C60   C     C_R   0.929048 0.940100 0.101141 -0.280940
C61   C     C_R   0.889914 0.022429 0.128266 0.189052
C62   C     C_R   0.848477 0.028672 0.082150 0.195172
C63   C     C_R   0.807880 0.110560 0.110276 -0.291760
C64   C     C_R   0.849768 0.179692 0.228715 -0.156468
C65   C     C_R   0.890428 0.098536 0.201437 -0.234213
C66   C     C_R   0.842053 0.494342 0.241584 -0.128402
C67   C     C_R   0.943293 0.690735 0.951962 -0.133298
C68   C     C_R   0.963896 0.775216 0.003010 0.054971
H1    H     H_    0.053940 0.809808 0.066788 0.093789
H2    H     H_    0.946259 0.193856 0.845217 0.090436
H3    H     H_    0.149419 0.451643 0.699115 0.082845
H4    H     H_    0.054354 0.331695 0.121170 0.089672
H5    H     H_    0.905418 0.200606 0.975636 0.088042
H6    H     H_    0.300914 0.583022 0.843508 0.087288
H7    H     H_    0.181017 0.395267 0.069041 0.090180
H8    H     H_    0.064932 0.344819 0.698354 0.084574
H9    H     H_    0.017548 0.866854 0.523365 0.114936
H10   H     H_    0.976896 0.761408 0.409834 0.110009
H11   H     H_    0.198203 0.838711 0.227134 0.108892
H12   H     H_    0.718672 0.379475 0.140748 0.083506
H13   H     H_    0.239114 0.945733 0.342401 0.115090
H14   H     H_    0.143882 0.080173 0.449565 0.114201
H15   H     H_    0.055180 0.079773 0.730287 0.112863
H16   H     H_    0.111462 0.940187 0.598276 0.114998
H17   H     H_    0.535967 0.279017 0.344349 0.114910
H18   H     H_    0.651474 0.309354 0.227194 0.105433
H19   H     H_    0.750918 0.512490 0.405142 0.109614
H20   H     H_    0.636631 0.481841 0.520597 0.114697
H21   H     H_    0.545214 0.394018 0.597249 0.115403
H22   H     H_    0.838463 0.530191 0.861930 0.084642
H23   H     H_    0.408724 0.456486 0.728974 0.109336
H24   H     H_    0.416123 0.395518 0.450923 0.115968
H25   H     H_    0.611462 0.343810 0.964152 0.114848
H26   H     H_    0.722777 0.509475 0.828421 0.113359
H27   H     H_    0.460542 0.299837 0.998752 0.125317
H28   H     H_    0.589674 0.494734 0.806824 0.123538
H29   H     H_    0.313802 0.336846 0.026375 0.115089
H30   H     H_    0.432263 0.471526 0.861440 0.111721
H31   H     H_    0.775641 0.116767 0.076047 0.117519
H32   H     H_    0.989012 0.630985 0.286029 0.087463
H33   H     H_    0.849949 0.238264 0.285177 0.123632
H34   H     H_    0.816776 0.956576 0.972963 0.124895
H35   H     H_    0.921817 0.095154 0.237618 0.128408
H36   H     H_    0.884612 0.813772 0.926503 0.114364
H37   H     H_    0.959079 0.935568 0.137823 0.121866
H38   H     H_    0.710965 0.384239 0.012398 0.084372
H39   H     H_    0.120578 0.782600 0.142390 0.086250
H40   H     H_    0.871877 0.510310 0.284914 0.085019
H41   H     H_    0.899793 0.676285 0.921159 0.093382
H42   H     H_    0.311358 0.557110 0.934662 0.085767
N1    N     N_R   0.034930 0.670790 0.995440 -0.040445
N2    N     N_R   0.954880 0.335850 0.881080 -0.038536
N3    N     N_R   0.115060 0.502430 0.834090 -0.037950
N4    N     N_R   0.014160 0.371890 0.051540 -0.038872
N5    N     N_R   0.965070 0.329210 0.004560 -0.039136
N6    N     N_R   0.164150 0.545120 0.881070 -0.036011
N7    N     N_R   0.133000 0.490740 0.051540 -0.039683
N8    N     N_R   0.996220 0.383590 0.834100 -0.038908
N9    N     N_R   0.835850 0.454880 0.118930 -0.038600
N10   N     N_R   0.867000 0.509260 0.948460 -0.038771
N11   N     N_R   0.003780 0.616410 0.165900 -0.038302
N12   N     N_R   0.825670 0.461520 0.995440 -0.040141
N13   N     N_R   0.045120 0.664150 0.118920 -0.037809
N14   N     N_R   0.884940 0.497570 0.165910 -0.038127
N15   N     N_R   0.985840 0.628110 0.948460 -0.040732
N16   N     N_R   0.174330 0.538480 0.004560 -0.039375
Ni1   Ni    Ni4+2 0.103690 0.603690 0.000000 0.212631
Ni2   Ni    Ni4+2 0.896310 0.396310 0.000000 0.207861
Ni3   Ni    Ni4+2 0.991110 0.505800 0.892250 0.211102
Ni4   Ni    Ni4+2 0.008890 0.494200 0.107750 0.210091
H43   H     H_    0.088174 0.217478 0.579158 0.105780
H44   H     H_    0.280051 0.456498 0.581784 0.108517

loop_
_geom_bond_atom_site_label_1
_geom_bond_atom_site_label_2
_ccdc_geom_bond_type
C58   C62   A    
N16   Ni1   S    
C31   H17   S    
C41   C42   A    
C3    C23   A    
C19   C20   A    
N11   Ni4   S    
C2    C12   A    
N4    N5    A    
C14   C46   S    
N9    N14   A    
C36   H20   S    
C48   H29   S    
C46   C49   A    
C28   C29   A    
C26   C27   A    
C50   C54   A    
N3    Ni3   S    
C18   C24   A    
C59   H36   S    
C36   C37   A    
C67   N15   A    
C7    H3    S    
C38   C39   A    
C11   C14   A    
C57   C59   A    
C5    H42   S    
C1    C68   A    
C18   C19   A    
C63   H31   S    
C49   H30   S    
C35   H19   S    
C44   C53   A    
C67   H41   S    
C35   C36   A    
N6    Ni1   S    
C55   C63   A    
C5    N16   A    
N1    N15   A    
C34   H32   S    
C58   H34   S    
N7    N16   A    
C54   H28   S    
C8    N4    A    
N3    N6    A    
N9    Ni2   S    
C44   C52   A    
C6    C15   A    
C21   C22   A    
C4    C56   A    
C28   H15   S    
N4    Ni4   S    
C9    H5    S    
C39   H23   S    
N10   N12   A    
C13   N8    A    
C46   C48   A    
C64   H33   S    
C4    C34   A    
C3    C44   S    
C8    H4    S    
N11   N13   A    
C67   C68   A    
C9    N5    A    
C22   H13   S    
C29   H16   S    
C23   N10   A    
C57   C60   A    
C47   C51   A    
C58   C59   A    
C53   C54   A    
C3    C45   A    
C1    H1    S    
N5    Ni2   S    
N10   Ni3   S    
C60   C61   A    
C37   C43   S    
C19   H10   S    
C56   N13   A    
C56   H39   S    
C29   C30   A    
C61   C65   A    
C12   N9    A    
C15   C27   S    
C47   C48   A    
C38   H21   S    
C13   H8    S    
C32   H18   S    
C55   C64   A    
C21   H11   S    
C62   C63   A    
C50   C51   A    
C23   H22   S    
N14   Ni4   S    
C52   H25   S    
N7    Ni4   S    
C5    C14   A    
C16   C40   S    
C2    C33   S    
C9    C17   A    
C40   C41   A    
C34   N11   A    
C13   C15   A    
N15   Ni3   S    
N1    Ni1   S    
C25   H14   S    
C22   C24   A    
C42   C43   A    
C65   H35   S    
C57   C68   S    
C11   N7    A    
N13   Ni1   S    
C39   C40   A    
C10   N6    A    
C45   H38   S    
C25   C30   A    
C6    H2    S    
C7    C16   A    
C42   H24   S    
C53   H26   S    
C6    N2    A    
C31   C32   A    
C66   H40   S    
C2    C66   A    
C41   H44   S    
C45   N12   A    
C8    C17   A    
C32   C33   A    
C7    N3    A    
C25   C26   A    
C51   C52   A    
N8    Ni3   S    
C11   H7    S    
C64   C65   A    
N2    N8    A    
C10   H6    S    
C18   H9    S    
C12   H12   S    
C33   C35   A    
C66   N14   A    
N12   Ni2   S    
C61   C62   A    
C24   C30   S    
N2    Ni2   S    
C26   H43   S    
C4    C20   S    
C31   C37   A    
C38   C43   A    
C20   C21   A    
C49   C50   A    
C27   C28   A    
C47   H27   S    
C10   C16   A    
C1    N1    A    
C60   H37   S    
