data_mof_unit_42069.cif
_audit_creation_date              2013-03-05T15:47:45-0500
_audit_creation_method            fapswitch 2.2
_symmetry_space_group_name_H-M    P1
_symmetry_Int_Tables_number       1
_space_group_crystal_system       triclinic
_cell_length_a                    10.89277
_cell_length_b                    13.073005
_cell_length_c                    11.759411
_cell_angle_alpha                 99.09184
_cell_angle_beta                  95.477449
_cell_angle_gamma                 91.029386
_cell_volume                      1645.03526234

loop_
_atom_site_label
_atom_site_type_symbol
_atom_site_description
_atom_site_fract_x
_atom_site_fract_y
_atom_site_fract_z
_atom_type_partial_charge
O1    O     O_R   0.506570 0.354460 0.582000 -0.491764
O2    O     O_R   0.493430 0.645540 0.418000 -0.569743
O3    O     O_R   0.490940 0.341410 0.386200 -0.596651
O4    O     O_R   0.509060 0.658590 0.613800 -0.648533
C1    C     C_R   0.502725 0.299867 0.479553 0.881221
C2    C     C_R   0.499150 0.700549 0.520172 0.938696
O5    O     O_R   0.327470 0.506520 0.597900 -0.616008
O6    O     O_R   0.672530 0.493480 0.402100 -0.545382
O7    O     O_R   0.311840 0.493460 0.402100 -0.600630
O8    O     O_R   0.688160 0.506540 0.597900 -0.593321
C3    C     C_R   0.262662 0.510168 0.498911 0.827658
C4    C     C_R   0.738193 0.500120 0.501494 0.818275
Cu1   Cu    Cu3+1 0.509250 0.507730 0.615930 1.012254
Cu2   Cu    Cu3+1 0.490750 0.492270 0.384070 1.024765
C5    C     C_R   0.145762 0.643318 0.688594 -0.179297
C6    C     C_R   0.876137 0.366252 0.330890 -0.140285
C7    C     C_R   0.091139 0.675284 0.790871 0.314384
C8    C     C_R   0.920419 0.343670 0.220324 0.435772
C9    C     C_R   0.963023 0.683100 0.783623 0.309253
C10   C     C_R   0.016040 0.405866 0.192426 0.241958
C11   C     C_R   0.893302 0.648125 0.677092 -0.134120
C12   C     C_R   0.079282 0.479877 0.279159 -0.166537
C13   C     C_R   0.945693 0.576489 0.592755 0.041753
C14   C     C_R   0.049117 0.487069 0.394863 0.024908
C15   C     C_R   0.075588 0.580447 0.593523 0.008648
C16   C     C_R   0.931833 0.451039 0.411791 -0.079274
C17   C     C_R   0.873741 0.506011 0.504926 -0.062130
C18   C     C_R   0.128661 0.530491 0.494459 -0.043141
C19   C     C_R   0.501499 0.813885 0.530038 -0.134688
C20   C     C_R   0.507358 0.187308 0.468193 -0.202479
C21   C     C_R   0.471628 0.021972 0.344740 0.469092
C22   C     C_R   0.549664 0.979637 0.651302 0.484967
C23   C     C_R   0.470433 0.128634 0.360565 -0.216765
C24   C     C_R   0.536946 0.872972 0.637824 -0.281434
C25   C     C_R   0.552952 0.138340 0.560987 0.410157
C26   C     C_R   0.467657 0.863225 0.434136 0.389690
C27   C     C_R   0.532676 0.030323 0.553036 -0.122802
C28   C     C_R   0.490694 0.970799 0.442510 -0.131566
H1    H     H_    0.551882 0.836100 0.714022 0.198500
H2    H     H_    0.446002 0.166032 0.285952 0.215594
N1    N     N_R   0.523180 0.519350 0.790130 -0.232994
N2    N     N_R   0.476820 0.480650 0.209870 -0.214252
C29   C     C_R   0.406207 0.385333 0.023253 -0.130938
C30   C     C_R   0.600151 0.612554 0.976838 -0.121773
C31   C     C_R   0.406996 0.402783 0.144014 0.018913
C32   C     C_R   0.595270 0.595940 0.855555 0.095574
C33   C     C_R   0.547545 0.546064 0.158611 0.165225
C34   C     C_R   0.451297 0.455905 0.843228 0.187164
C35   C     C_R   0.540170 0.539889 0.035047 -0.030213
C36   C     C_R   0.466588 0.458448 0.966145 -0.003065
H3    H     H_    0.643759 0.648910 0.812536 0.137707
H4    H     H_    0.358487 0.349082 0.186726 0.133251
Cl1   Cl    Cl    0.054446 0.391731 0.047970 -0.585016
Cl2   Cl    Cl    0.895786 0.756199 0.899479 -0.503089
C37   C     C_2   0.354256 0.283131 0.964715 0.466865
H5    H     H_    0.271666 0.250959 0.992435 0.121109
O9    O     O_2   0.408683 0.230385 0.891701 -0.390377
C38   C     C_2   0.658936 0.712249 0.035140 0.449869
H6    H     H_    0.743224 0.714629 0.092459 0.153244
O10   O     O_2   0.615823 0.793720 0.014583 -0.410168
C39   C     C_2   0.253889 0.706057 0.670825 0.483847
H7    H     H_    0.330117 0.723702 0.737986 0.119108
O11   O     O_2   0.253655 0.745001 0.583103 -0.508837
C40   C     C_2   0.785587 0.295244 0.368993 0.477799
H8    H     H_    0.780916 0.294994 0.460716 0.045496
O12   O     O_2   0.715058 0.237209 0.300149 -0.459156
Cl3   Cl    Cl    0.183075 0.728337 0.919703 -0.453974
Cl4   Cl    Cl    0.855503 0.241392 0.113361 -0.324975
C41   C     C_2   0.790969 0.712802 0.641784 0.445748
H9    H     H_    0.738584 0.755586 0.705806 0.100318
O13   O     O_2   0.771019 0.725523 0.541077 -0.542920
C42   C     C_2   0.153677 0.563755 0.244446 0.606137
H10   H     H_    0.200407 0.550821 0.166299 0.100145
O14   O     O_2   0.159422 0.650284 0.301857 -0.418758
Cl5   Cl    Cl    0.372612 0.794102 0.315000 -0.430825
Cl6   Cl    Cl    0.656346 0.209775 0.672609 -0.435672
Cl7   Cl    Cl    0.463615 0.961785 0.198504 -0.367866
Cl8   Cl    Cl    0.572926 0.042059 0.796545 -0.323387
C43   C     C_2   0.336892 0.405651 0.779390 0.475928
H11   H     H_    0.248755 0.437358 0.799988 0.048286
O15   O     O_2   0.338305 0.326607 0.709025 -0.466035
C44   C     C_2   0.640604 0.615971 0.232117 0.431243
H12   H     H_    0.615786 0.691532 0.273902 0.117846
O16   O     O_2   0.748694 0.592258 0.239393 -0.517528

loop_
_geom_bond_atom_site_label_1
_geom_bond_atom_site_label_2
_geom_bond_distance
_ccdc_geom_bond_type
C30   C35   1.437502 A    
C37   H5    1.085451 S    
Cu1   N1    2.020866 S    
C33   C35   1.436917 A    
C15   C18   1.421091 A    
O5    C3    1.310542 A    
C19   C26   1.408126 A    
C16   C17   1.419952 A    
C20   C25   1.405669 A    
O1    C1    1.296154 A    
C34   C43   1.477928 S    
C9    C11   1.407139 A    
C14   C16   1.396482 A    
C41   H9    1.079652 S    
C5    C15   1.426036 A    
C8    Cl4   1.770486 S    
C41   O13   1.221376 D    
C33   C44   1.469584 S    
O4    Cu1   1.976340 S    
C39   O11   1.220177 D    
C30   C38   1.477326 S    
N1    C32   1.350566 A    
C21   C23   1.377767 A    
C13   C17   1.431323 A    
Cu2   N2    2.020866 S    
C34   C36   1.434145 A    
Cu1   Cu2   2.689785 S    
O2    C2    1.294464 A    
C12   C42   1.482708 S    
C30   C32   1.404033 A    
C21   Cl7   1.767815 S    
C6    C16   1.426227 A    
C25   Cl6   1.776540 S    
C7    Cl3   1.769867 S    
C23   H2    1.084149 S    
C4    C17   1.473480 S    
C24   H1    1.083146 S    
C42   O14   1.219573 D    
C43   O15   1.218803 D    
C42   H10   1.084187 S    
C31   H4    1.083106 S    
C38   H6    1.082799 S    
C32   H3    1.078419 S    
C11   C41   1.478604 S    
N2    C31   1.350938 A    
C22   C24   1.381224 A    
O7    Cu2   1.980415 S    
C27   C28   1.434588 A    
C26   Cl5   1.772157 S    
O7    C3    1.293350 A    
O6    C4    1.300525 A    
C5    C39   1.473104 S    
C22   C27   1.419212 A    
C29   C31   1.401406 A    
O3    Cu2   1.976343 S    
O8    C4    1.295694 A    
C9    Cl2   1.763497 S    
C29   C37   1.478866 S    
C10   C12   1.407487 A    
C44   H12   1.082518 S    
C44   O16   1.221451 D    
C37   O9    1.220215 D    
C12   C14   1.419191 A    
O4    C2    1.301941 A    
O1    Cu1   1.979364 S    
C1    C20   1.458588 S    
C5    C7    1.400673 A    
O6    Cu2   1.970690 S    
C20   C23   1.391735 A    
C25   C27   1.412333 A    
C14   C18   1.422381 A    
C10   Cl1   1.770323 S    
O3    C1    1.296369 A    
O8    Cu1   1.980415 S    
C29   C36   1.435896 A    
C21   C28   1.419499 A    
C40   H8    1.085158 S    
C11   C13   1.421268 A    
C3    C18   1.485802 S    
C19   C24   1.392391 A    
C26   C28   1.410394 A    
C7    C9    1.396576 A    
N1    C34   1.387289 A    
C8    C10   1.404538 A    
N2    C33   1.384203 A    
C13   C15   1.414047 A    
C39   H7    1.084790 S    
O2    Cu2   1.979361 S    
C22   Cl8   1.765439 S    
C43   H11   1.085898 S    
O5    Cu1   1.970689 S    
C2    C19   1.467361 S    
C6    C8    1.419102 A    
C35   C36   1.416042 A    
C6    C40   1.489386 S    
C38   O10   1.221069 D    
C40   O12   1.219602 D    
