data_mof_unit_57626.cif
_audit_creation_date              2012-12-10T20:03:58-0500
_audit_creation_method            fapswitch 2.2
_symmetry_space_group_name_H-M    P1
_symmetry_Int_Tables_number       1
_space_group_crystal_system       triclinic
_cell_length_a                    19.072554
_cell_length_b                    18.540416
_cell_length_c                    10.671864
_cell_angle_alpha                 89.568205
_cell_angle_beta                  91.044107
_cell_angle_gamma                 90.527125
_cell_volume                      3772.82203473

loop_
_atom_site_label
_atom_site_type_symbol
_atom_type_description
_atom_site_fract_x
_atom_site_fract_y
_atom_site_fract_z
_atom_type_partial_charge
C1    C     C_R   0.365606 0.499599 0.498063 0.972967
C2    C     C_R   0.961146 0.442995 0.396195 -0.243563
C3    C     C_R   0.561812 0.727990 0.515207 0.381916
C4    C     C_R   0.438413 0.727310 0.484638 0.382459
C5    C     C_R   0.563300 0.804443 0.509076 0.280089
C6    C     C_R   0.436998 0.803473 0.494801 0.281325
C7    C     C_R   0.500142 0.842952 0.502953 -0.067691
C8    C     C_R   0.507235 0.962919 0.389354 0.358698
C9    C     C_R   0.492759 0.962124 0.615449 0.358616
C10   C     C_R   0.501360 0.039140 0.388262 0.279952
C11   C     C_R   0.498551 0.038459 0.615909 0.279770
C12   C     C_R   0.634248 0.500334 0.499938 0.960291
C13   C     C_R   0.500036 0.077854 0.501910 -0.266889
C14   C     C_R   0.504888 0.500301 0.262866 0.921509
C15   C     C_R   0.500008 0.499679 0.737811 0.911119
C16   C     C_R   0.500096 0.923991 0.502612 -0.066438
C17   C     C_R   0.451825 0.197680 0.572389 -0.237368
C18   C     C_R   0.548267 0.198843 0.429604 -0.236181
C19   C     C_R   0.452763 0.273465 0.570546 -0.004518
C20   C     C_R   0.547257 0.274610 0.430050 -0.006444
C21   C     C_R   0.500075 0.159065 0.501385 0.245895
C22   C     C_2   0.524514 0.442086 0.933644 -0.163800
C23   C     C_R   0.708531 0.501629 0.479395 -0.261916
C24   C     C_2   0.523385 0.440435 0.068696 -0.170949
C25   C     C_2   0.499325 0.498873 0.870277 -0.337339
C26   C     C_2   0.519088 0.501654 0.132775 -0.346183
C27   C     C_R   0.755344 0.471405 0.566956 0.324233
C28   C     C_R   0.262509 0.466456 0.368260 0.344801
C29   C     C_R   0.827177 0.472144 0.541218 0.387961
C30   C     C_R   0.189654 0.466147 0.347311 0.344020
C31   C     C_R   0.850677 0.505684 0.430178 -0.102124
C32   C     C_R   0.146886 0.504160 0.429605 -0.130472
C33   C     C_R   0.803554 0.535619 0.341701 0.552095
C34   C     C_R   0.290614 0.498476 0.477111 -0.264021
C35   C     C_R   0.175444 0.537996 0.537247 0.551644
C36   C     C_R   0.731820 0.532904 0.368194 -0.378418
C37   C     C_R   0.247767 0.533465 0.561096 -0.401585
C38   C     C_3   0.651110 0.870826 0.607705 0.130312
C39   C     C_3   0.683112 0.944716 0.580769 -0.901203
C40   C     C_3   0.348928 0.867959 0.395014 0.135629
C41   C     C_3   0.316288 0.940905 0.420276 -0.906289
C42   C     C_3   0.579513 0.936827 0.228103 -0.220373
C43   C     C_3   0.420151 0.933413 0.776230 -0.218799
C44   C     C_3   0.425101 0.081338 0.240658 0.139149
C45   C     C_R   0.962287 0.574499 0.403714 0.466164
C46   C     C_3   0.418172 0.124232 0.119151 -0.832605
C47   C     C_3   0.574255 0.081141 0.764121 0.139535
C48   C     C_3   0.580444 0.119102 0.889667 -0.832295
C49   C     C_3   0.726365 0.489296 0.770439 0.106003
C50   C     C_3   0.717815 0.450176 0.895041 -0.789515
C51   C     C_3   0.317194 0.484315 0.182157 0.124396
C52   C     C_3   0.338401 0.442510 0.067042 -0.800725
C53   C     C_3   0.869062 0.370803 0.641787 -0.222914
C54   C     C_3   0.169710 0.360446 0.240659 -0.242131
C55   C     C_3   0.788067 0.613689 0.169481 -0.327659
C56   C     C_R   0.036016 0.574029 0.397131 0.461120
C57   C     C_3   0.155508 0.636765 0.663041 -0.181618
C58   C     C_3   0.931568 0.686777 0.327002 -0.219246
C59   C     C_3   0.102611 0.651001 0.281373 -0.390856
C60   C     C_3   0.641492 0.686273 0.658675 0.152868
C61   C     C_3   0.720075 0.674883 0.675005 -0.848057
C62   C     C_3   0.366899 0.687849 0.327082 0.165290
C63   C     C_3   0.290142 0.672949 0.295211 -0.910449
C64   C     C_R   0.071225 0.507267 0.404337 0.063268
C65   C     C_R   0.925767 0.508169 0.406316 0.071835
C66   C     C_R   0.033451 0.442405 0.399226 -0.204631
H1    H     H_    0.543264 0.394594 0.885968 0.173550
H2    H     H_    0.270996 0.556601 0.645115 0.181010
H3    H     H_    0.059775 0.391028 0.404792 0.170011
H4    H     H_    0.932690 0.392183 0.395204 0.161900
H5    H     H_    0.693089 0.836553 0.648619 0.157411
H6    H     H_    0.610123 0.876619 0.679792 0.157592
H7    H     H_    0.642844 0.981425 0.540536 0.232759
H8    H     H_    0.704523 0.968373 0.668902 0.204995
H9    H     H_    0.726323 0.939678 0.513110 0.265490
H10   H     H_    0.307353 0.832459 0.354866 0.160210
H11   H     H_    0.389949 0.875169 0.322984 0.157615
H12   H     H_    0.522004 0.387934 0.114604 0.173900
H13   H     H_    0.356195 0.978530 0.460281 0.234231
H14   H     H_    0.295018 0.964256 0.331494 0.204824
H15   H     H_    0.272894 0.934531 0.487577 0.265602
H16   H     H_    0.622177 0.929766 0.299628 0.188051
H17   H     H_    0.583666 0.990949 0.183501 0.191958
H18   H     H_    0.587695 0.896329 0.153934 0.171285
H19   H     H_    0.377732 0.925886 0.704308 0.187220
H20   H     H_    0.415673 0.987132 0.820497 0.192846
H21   H     H_    0.411873 0.892208 0.850514 0.170770
H22   H     H_    0.395330 0.109994 0.313874 0.133819
H23   H     H_    0.413213 0.169467 0.627992 0.164344
H24   H     H_    0.401296 0.026964 0.225209 0.157603
H25   H     H_    0.441859 0.094050 0.041432 0.264033
H26   H     H_    0.361874 0.133010 0.096075 0.201127
H27   H     H_    0.444876 0.177442 0.129038 0.261943
H28   H     H_    0.603376 0.113827 0.693735 0.135601
H29   H     H_    0.599106 0.027217 0.774518 0.155596
H30   H     H_    0.557518 0.084625 0.964140 0.263428
H31   H     H_    0.636560 0.129267 0.913547 0.201509
H32   H     H_    0.552599 0.171450 0.885252 0.261308
H33   H     H_    0.679703 0.523817 0.753828 0.124622
H34   H     H_    0.586884 0.171544 0.374447 0.163818
H35   H     H_    0.774403 0.523921 0.777931 0.166089
H36   H     H_    0.766025 0.419409 0.918653 0.254342
H37   H     H_    0.708486 0.489765 0.970302 0.207846
H38   H     H_    0.672646 0.412141 0.889441 0.252991
H39   H     H_    0.360043 0.522576 0.208186 0.126203
H40   H     H_    0.269658 0.516073 0.155761 0.150171
H41   H     H_    0.293357 0.409717 0.031630 0.246511
H42   H     H_    0.354862 0.480561 0.992082 0.206209
H43   H     H_    0.382392 0.405915 0.091053 0.268530
H44   H     H_    0.851185 0.343210 0.554180 0.118358
H45   H     H_    0.415534 0.302746 0.625519 0.131249
H46   H     H_    0.833146 0.357327 0.719323 0.209252
H47   H     H_    0.921208 0.348640 0.667732 0.168328
H48   H     H_    0.168096 0.335945 0.336351 0.125428
H49   H     H_    0.219549 0.346488 0.195183 0.211014
H50   H     H_    0.126575 0.335376 0.184575 0.167612
H51   H     H_    0.770787 0.655134 0.237018 0.180913
H52   H     H_    0.742559 0.588518 0.119708 0.161717
H53   H     H_    0.819766 0.641897 0.097739 0.180573
H54   H     H_    0.179374 0.669043 0.585943 0.183545
H55   H     H_    0.193302 0.630269 0.742613 0.133906
H56   H     H_    0.584493 0.304777 0.374611 0.129272
H57   H     H_    0.110546 0.667923 0.697766 0.188613
H58   H     H_    0.936559 0.660416 0.234110 0.152006
H59   H     H_    0.975919 0.724752 0.344127 0.196993
H60   H     H_    0.883184 0.719489 0.322690 0.170152
H61   H     H_    0.062693 0.647365 0.204225 0.156097
H62   H     H_    0.145989 0.613190 0.263451 0.186425
H63   H     H_    0.124828 0.706469 0.279506 0.195491
H64   H     H_    0.613523 0.639005 0.698916 0.158825
H65   H     H_    0.627173 0.734491 0.714143 0.077514
H66   H     H_    0.749413 0.722599 0.639743 0.264537
H67   H     H_    0.476926 0.545638 0.914181 0.141430
H68   H     H_    0.733497 0.666510 0.775725 0.188702
H69   H     H_    0.736447 0.627047 0.621632 0.258055
H70   H     H_    0.398508 0.643249 0.289965 0.162461
H71   H     H_    0.382499 0.738414 0.277250 0.080417
H72   H     H_    0.256809 0.716066 0.333081 0.260762
H73   H     H_    0.282380 0.670628 0.191948 0.196846
H74   H     H_    0.273529 0.620786 0.336326 0.255114
H75   H     H_    0.526631 0.554401 0.090247 0.146869
H76   H     H_    0.693060 0.552971 0.301611 0.176921
N1    N     N_R   0.500000 0.689440 0.500000 -0.224630
N2    N     N_R   0.500000 0.310560 0.500000 -0.089288
O1    O     O_R   0.398180 0.560840 0.499970 -0.567132
O2    O     O_3   0.373349 0.837629 0.509524 -0.579201
O3    O     O_3   0.512346 0.925341 0.278271 -0.610692
O4    O     O_3   0.487529 0.923809 0.726836 -0.609633
O5    O     O_3   0.496714 0.075634 0.274980 -0.594940
O6    O     O_3   0.502773 0.074310 0.728973 -0.595072
O7    O     O_3   0.730974 0.437885 0.674145 -0.605207
O8    O     O_3   0.306242 0.435365 0.282337 -0.596784
O9    O     O_3   0.875922 0.446428 0.628346 -0.580651
O10   O     O_3   0.160092 0.435977 0.239802 -0.597411
O11   O     O_3   0.830113 0.560439 0.227924 -0.602141
O12   O     O_R   0.601820 0.560840 0.500030 -0.575410
O13   O     O_3   0.130359 0.568785 0.622410 -0.581705
O14   O     O_3   0.926029 0.637377 0.427734 -0.589600
O15   O     O_3   0.073063 0.638527 0.400055 -0.589050
O16   O     O_3   0.624853 0.692978 0.529308 -0.539064
O17   O     O_3   0.375990 0.692049 0.458845 -0.542528
O18   O     O_R   0.398180 0.439210 0.499910 -0.598112
O19   O     O_R   0.601820 0.439210 0.500090 -0.607407
O20   O     O_R   0.500000 0.560800 0.319070 -0.647923
O21   O     O_R   0.500000 0.560800 0.680930 -0.640469
O22   O     O_R   0.499990 0.439170 0.319010 -0.606289
O23   O     O_R   0.500010 0.439170 0.680990 -0.616572
O24   O     O_3   0.626955 0.839892 0.493893 -0.576441
Zn1   Zn    Zn3+2 0.500000 0.581210 0.500000 0.969387
Zn2   Zn    Zn3+2 0.500000 0.418790 0.500000 0.968034

loop_
_geom_bond_atom_site_label_1
_geom_bond_atom_site_label_2
_ccdc_geom_bond_type
C53   H44   S    
C53   O9    S    
C19   N2    A    
C27   C29   A    
C34   C37   A    
C63   H74   S    
C20   N2    A    
C1    O1    A    
C42   H16   S    
C2    C65   A    
C4    N1    A    
C55   H53   S    
C38   O24   S    
C48   H31   S    
C12   C23   S    
C17   H23   S    
C35   C37   A    
C9    C16   A    
C24   C26   D    
C56   O15   S    
C10   O5    S    
C49   H35   S    
C38   C39   S    
C6    O2    S    
C15   C25   S    
C62   O17   S    
C49   H33   S    
C59   H61   S    
C18   C21   A    
C37   H2    S    
N2    Zn2   S    
O12   Zn1   S    
C33   C36   A    
C31   C65   S    
C39   H8    S    
C62   H70   S    
C49   C50   S    
O19   Zn2   S    
C36   H76   S    
C43   O4    S    
C61   H66   S    
C59   O15   S    
C52   H41   S    
C3    N1    A    
C59   H63   S    
C45   C56   A    
C53   H47   S    
C22   C25   D    
C54   H50   S    
C1    C34   S    
C56   C64   A    
C23   C27   A    
C14   O22   A    
C26   H75   S    
C25   H67   S    
C20   H56   S    
C28   C34   A    
C50   H37   S    
C8    C16   A    
C15   O23   A    
O20   Zn1   S    
C18   H34   S    
C41   H14   S    
C42   O3    S    
C60   H65   S    
C44   C46   S    
C61   H68   S    
O23   Zn2   S    
C38   H6    S    
O21   Zn1   S    
O1    Zn1   S    
C49   O7    S    
C51   C52   S    
C43   H19   S    
C32   C35   A    
C42   H18   S    
C32   C64   S    
C4    C6    A    
C58   O14   S    
C60   H64   S    
C5    C7    A    
C46   H25   S    
C3    C5    A    
C59   H62   S    
C17   C21   A    
C40   H10   S    
C60   C61   S    
C64   C66   A    
C55   O11   S    
C35   O13   S    
C41   H13   S    
C62   C63   S    
C57   H57   S    
C45   O14   S    
C11   O6    S    
C47   C48   S    
O18   Zn2   S    
C47   O6    S    
C51   H39   S    
C41   H15   S    
C54   H49   S    
C31   C33   A    
C13   C21   S    
C14   C26   S    
C9    C11   A    
N1    Zn1   S    
C57   H54   S    
C53   H46   S    
C24   H12   S    
C40   C41   S    
C1    O18   A    
C58   H60   S    
C39   H9    S    
C45   C65   A    
C3    O16   S    
C63   H72   S    
C22   C24   S    
C8    O3    S    
C12   O12   A    
C44   H24   S    
C61   H69   S    
C29   O9    S    
C55   H51   S    
C5    O24   S    
C57   O13   S    
C38   H5    S    
C7    C16   S    
C27   O7    S    
C48   H30   S    
C40   H11   S    
C43   H20   S    
C63   H73   S    
C42   H17   S    
C60   O16   S    
C2    C66   A    
C10   C13   A    
C54   O10   S    
C33   O11   S    
C50   H36   S    
C6    C7    A    
C19   H45   S    
C48   H32   S    
C51   O8    S    
C9    O4    S    
C58   H58   S    
C44   O5    S    
C40   O2    S    
C43   H21   S    
C28   O8    S    
C28   C30   A    
C29   C31   A    
C44   H22   S    
C12   O19   A    
C30   C32   A    
C11   C13   A    
C46   H27   S    
C52   H43   S    
C51   H40   S    
C54   H48   S    
C17   C19   A    
O22   Zn2   S    
C18   C20   A    
C39   H7    S    
C62   H71   S    
C14   O20   A    
C22   H1    S    
C57   H55   S    
C66   H3    S    
C30   O10   S    
C46   H26   S    
C52   H42   S    
C58   H59   S    
C8    C10   A    
C23   C36   A    
C47   H29   S    
C4    O17   S    
C15   O21   A    
C2    H4    S    
C47   H28   S    
C50   H38   S    
C55   H52   S    
