data_mof_unit_60667.cif
_audit_creation_date              2012-10-26T18:03:13-0400
_audit_creation_method            fapswitch 2.2
_symmetry_space_group_name_H-M    P1
_symmetry_Int_Tables_number       1
_space_group_crystal_system       monoclinic
_cell_length_a                    18.382448
_cell_length_b                    18.382448
_cell_length_c                    35.746486
_cell_angle_alpha                 90.0
_cell_angle_beta                  90.0
_cell_angle_gamma                 89.999988
_cell_volume                      12079.2521712

loop_
_atom_site_label
_atom_site_type_symbol
_atom_type_description
_atom_site_fract_x
_atom_site_fract_y
_atom_site_fract_z
_atom_type_partial_charge
C1    C     C_R   0.500000 0.139784 0.500000 0.563121
C2    C     C_1   0.717571 0.500000 0.500000 -0.047423
C3    C     C_3   0.138257 0.500435 0.193280 -0.400181
C4    C     C_3   0.499576 0.861743 0.806720 -0.400180
C5    C     C_3   0.861743 0.500406 0.806720 -0.400181
C6    C     C_3   0.500424 0.138257 0.806720 -0.400180
C7    C     C_3   0.138257 0.499594 0.806720 -0.400180
C8    C     C_3   0.999595 0.638257 0.693280 -0.400181
C9    C     C_3   0.361742 0.999595 0.693280 -0.400180
C10   C     C_3   0.000405 0.361743 0.693280 -0.400181
C11   C     C_3   0.638257 0.000405 0.693280 -0.400180
C12   C     C_3   0.999561 0.361743 0.306720 -0.400180
C13   C     C_1   0.500000 0.717571 0.500000 -0.047423
C14   C     C_3   0.361743 0.000426 0.306720 -0.400180
C15   C     C_3   0.000439 0.638257 0.306720 -0.400180
C16   C     C_3   0.638257 0.999574 0.306720 -0.400181
C17   C     C_1   0.282429 0.500000 0.500000 -0.047423
C18   C     C_1   1.000000 0.782429 0.000000 -0.047423
C19   C     C_1   0.217571 0.000000 0.000000 -0.047423
C20   C     C_1   0.000000 0.217571 0.000000 -0.047423
C21   C     C_1   0.782429 1.000000 0.000000 -0.047423
C22   C     C_1   0.500000 0.217210 0.500000 -0.049357
C23   C     C_1   0.782790 0.500000 0.500000 -0.049357
C24   C     C_1   0.500000 0.782790 0.500000 -0.049357
C25   C     C_R   0.860216 0.500000 0.500000 0.563122
C26   C     C_1   0.217210 0.500000 0.500000 -0.049357
C27   C     C_1   1.000000 0.717210 0.000000 -0.049357
C28   C     C_1   0.282790 0.000000 0.000000 -0.049357
C29   C     C_1   0.000000 0.282790 0.000000 -0.049357
C30   C     C_1   0.717210 1.000000 0.000000 -0.049357
C31   C     C_R   0.500000 0.000000 0.427792 0.547871
C32   C     C_R   0.000000 0.500000 0.427792 0.547871
C33   C     C_R   0.500000 0.000000 0.572208 0.547870
C34   C     C_R   1.000000 0.500000 0.572208 0.547870
C35   C     C_R   0.000000 0.500000 0.927792 0.547871
C36   C     C_R   0.500000 0.860216 0.500000 0.563122
C37   C     C_R   0.500000 0.000000 0.927792 0.547871
C38   C     C_R   0.000000 0.500000 0.072208 0.547870
C39   C     C_R   0.500000 0.000000 0.072208 0.547870
C40   C     C_R   0.499800 0.066491 0.172866 0.001096
C41   C     C_R   0.933508 0.499793 0.172866 0.001096
C42   C     C_R   0.500200 0.933508 0.172866 0.001096
C43   C     C_R   0.066491 0.500207 0.172866 0.001096
C44   C     C_R   0.499798 0.933509 0.827134 0.001096
C45   C     C_R   0.933509 0.500194 0.827134 0.001096
C46   C     C_R   0.500202 0.066491 0.827134 0.001096
C47   C     C_R   0.139784 0.500000 0.500000 0.563121
C48   C     C_R   0.066491 0.499806 0.827134 0.001096
C49   C     C_R   0.999807 0.566491 0.672866 0.001096
C50   C     C_R   0.433508 0.999807 0.672866 0.001096
C51   C     C_R   0.000193 0.433509 0.672866 0.001096
C52   C     C_R   0.566492 0.000193 0.672866 0.001096
C53   C     C_R   0.999791 0.433509 0.327134 0.001096
C54   C     C_R   0.433509 0.000203 0.327134 0.001096
C55   C     C_R   0.000209 0.566492 0.327134 0.001096
C56   C     C_R   0.566491 0.999797 0.327134 0.001096
C57   C     C_R   0.499804 0.065827 0.133596 -0.115173
C58   C     C_R   0.000000 0.639784 0.000000 0.563121
C59   C     C_R   0.934172 0.499797 0.133596 -0.115173
C60   C     C_R   0.500196 0.934172 0.133596 -0.115173
C61   C     C_R   0.065828 0.500203 0.133596 -0.115173
C62   C     C_R   0.499802 0.934172 0.866404 -0.115173
C63   C     C_R   0.934172 0.500190 0.866404 -0.115173
C64   C     C_R   0.500198 0.065828 0.866404 -0.115173
C65   C     C_R   0.065828 0.499810 0.866404 -0.115173
C66   C     C_R   0.999811 0.565827 0.633596 -0.115173
C67   C     C_R   0.434172 0.999811 0.633596 -0.115172
C68   C     C_R   0.000189 0.434173 0.633596 -0.115173
C69   C     C_R   0.360216 0.000000 0.000000 0.563122
C70   C     C_R   0.565828 0.000189 0.633596 -0.115173
C71   C     C_R   0.999795 0.434172 0.366404 -0.115173
C72   C     C_R   0.434172 0.000199 0.366404 -0.115172
C73   C     C_R   0.000205 0.565828 0.366404 -0.115173
C74   C     C_R   0.565828 0.999801 0.366404 -0.115173
C75   C     C_R   0.500000 1.000000 0.113681 -0.015311
C76   C     C_R   1.000000 0.500000 0.113681 -0.015311
C77   C     C_R   0.500000 0.000000 0.886319 -0.015311
C78   C     C_R   0.000000 0.500000 0.886319 -0.015311
C79   C     C_R   1.000000 0.500000 0.613681 -0.015311
C80   C     C_R   0.000000 0.360216 0.000000 0.563122
C81   C     C_R   0.500000 0.000000 0.613681 -0.015311
C82   C     C_R   0.000000 0.500000 0.386319 -0.015311
C83   C     C_R   0.500000 0.000000 0.386319 -0.015311
C84   C     C_R   0.359858 0.500000 0.500000 0.560357
C85   C     C_R   0.500000 0.359859 0.500000 0.560357
C86   C     C_R   0.640141 0.500000 0.500000 0.560357
C87   C     C_R   0.500000 0.640141 0.500000 0.560357
C88   C     C_R   0.859858 0.000000 0.000000 0.560357
C89   C     C_R   0.000000 0.859858 0.000000 0.560357
C90   C     C_R   0.140141 0.000000 0.000000 0.560357
C91   C     C_R   0.639784 0.000000 0.000000 0.563121
C92   C     C_R   1.000000 0.140141 0.000000 0.560357
C93   C     C_R   0.500000 1.000000 0.192650 0.064204
C94   C     C_R   1.000000 0.500000 0.192650 0.064204
C95   C     C_R   0.500000 0.000000 0.807350 0.064204
C96   C     C_R   0.000000 0.500000 0.807350 0.064204
C97   C     C_R   0.000000 0.500000 0.692650 0.064204
C98   C     C_R   0.500000 0.000000 0.692650 0.064204
C99   C     C_R   1.000000 0.500000 0.307349 0.064204
C100  C     C_R   0.500000 1.000000 0.307349 0.064204
C101  C     C_1   0.500000 1.000000 0.233140 -0.033250
C102  C     C_1   0.500000 0.282429 0.500000 -0.047423
C103  C     C_1   1.000000 0.500000 0.233140 -0.033250
C104  C     C_1   0.500000 0.000000 0.766860 -0.033250
C105  C     C_1   0.000000 0.500000 0.766860 -0.033250
C106  C     C_1   0.000000 0.500000 0.733140 -0.033250
C107  C     C_1   0.500000 0.000000 0.733140 -0.033250
C108  C     C_1   1.000000 0.500000 0.266860 -0.033250
C109  C     C_1   0.500000 1.000000 0.266860 -0.033250
C110  C     C_3   0.499581 0.138257 0.193280 -0.400180
C111  C     C_3   0.861743 0.499565 0.193280 -0.400180
C112  C     C_3   0.500419 0.861743 0.193280 -0.400181
Cu1   Cu    Cu3+1 0.572400 0.000000 0.500000 0.937257
Cu2   Cu    Cu3+1 0.500000 0.500000 0.537120 0.955085
Cu3   Cu    Cu3+1 0.000000 0.000000 0.962880 0.955085
Cu4   Cu    Cu3+1 0.000000 0.000000 0.037120 0.955085
Cu5   Cu    Cu3+1 0.000000 0.572400 0.500000 0.937257
Cu6   Cu    Cu3+1 0.427600 0.000000 0.500000 0.937258
Cu7   Cu    Cu3+1 0.000000 0.427600 0.500000 0.937258
Cu8   Cu    Cu3+1 0.072400 0.500000 0.000000 0.937257
Cu9   Cu    Cu3+1 0.500000 0.072400 0.000000 0.937258
Cu10  Cu    Cu3+1 0.927600 0.500000 0.000000 0.937258
Cu11  Cu    Cu3+1 0.500000 0.927600 0.000000 0.937258
Cu12  Cu    Cu3+1 0.500000 0.500000 0.462880 0.955085
H1    H     H_    0.499650 0.116960 0.118527 0.132869
H2    H     H_    0.383039 0.999662 0.618527 0.132869
H3    H     H_    0.000338 0.383040 0.618527 0.132869
H4    H     H_    0.616961 0.000338 0.618527 0.132869
H5    H     H_    0.999634 0.383039 0.381473 0.132869
H6    H     H_    0.383039 0.000356 0.381473 0.132869
H7    H     H_    0.000366 0.616961 0.381473 0.132869
H8    H     H_    0.616961 0.999644 0.381473 0.132869
H9    H     H_    0.499439 0.185085 0.173641 0.122764
H10   H     H_    0.450333 0.142161 0.211158 0.136909
H11   H     H_    0.548805 0.142461 0.211158 0.136959
H12   H     H_    0.883039 0.499637 0.118527 0.132869
H13   H     H_    0.814915 0.499417 0.173641 0.122764
H14   H     H_    0.857844 0.450317 0.211158 0.136907
H15   H     H_    0.857533 0.548788 0.211158 0.136960
H16   H     H_    0.500561 0.814915 0.173641 0.122764
H17   H     H_    0.549667 0.857839 0.211158 0.136909
H18   H     H_    0.451195 0.857539 0.211158 0.136959
H19   H     H_    0.185085 0.500583 0.173641 0.122764
H20   H     H_    0.142156 0.549683 0.211158 0.136907
H21   H     H_    0.142467 0.451212 0.211158 0.136960
H22   H     H_    0.499431 0.814915 0.826359 0.122764
H23   H     H_    0.500350 0.883039 0.118527 0.132869
H24   H     H_    0.450327 0.857841 0.788842 0.136909
H25   H     H_    0.548799 0.857536 0.788842 0.136958
H26   H     H_    0.814915 0.500544 0.826359 0.122764
H27   H     H_    0.857834 0.549654 0.788842 0.136910
H28   H     H_    0.857543 0.451182 0.788842 0.136958
H29   H     H_    0.500569 0.185085 0.826359 0.122764
H30   H     H_    0.549673 0.142159 0.788842 0.136909
H31   H     H_    0.451201 0.142464 0.788842 0.136958
H32   H     H_    0.185085 0.499456 0.826359 0.122764
H33   H     H_    0.142166 0.450346 0.788842 0.136910
H34   H     H_    0.116961 0.500363 0.118527 0.132869
H35   H     H_    0.142457 0.548818 0.788842 0.136957
H36   H     H_    0.999457 0.685085 0.673641 0.122764
H37   H     H_    0.950347 0.642166 0.711158 0.136910
H38   H     H_    0.048819 0.642456 0.711158 0.136958
H39   H     H_    0.314915 0.999457 0.673641 0.122764
H40   H     H_    0.357833 0.950347 0.711158 0.136909
H41   H     H_    0.357543 0.048819 0.711158 0.136958
H42   H     H_    0.000543 0.314915 0.673641 0.122764
H43   H     H_    0.049653 0.357834 0.711158 0.136910
H44   H     H_    0.951181 0.357544 0.711158 0.136957
H45   H     H_    0.499646 0.883039 0.881473 0.132869
H46   H     H_    0.685085 0.000543 0.673641 0.122763
H47   H     H_    0.642167 0.049653 0.711158 0.136909
H48   H     H_    0.642457 0.951181 0.711158 0.136958
H49   H     H_    0.999412 0.314915 0.326359 0.122764
H50   H     H_    0.950312 0.357846 0.288842 0.136908
H51   H     H_    0.048784 0.357531 0.288842 0.136960
H52   H     H_    0.314915 0.000571 0.326359 0.122764
H53   H     H_    0.357841 0.049675 0.288842 0.136909
H54   H     H_    0.357536 0.951203 0.288842 0.136959
H55   H     H_    0.000588 0.685085 0.326359 0.122764
H56   H     H_    0.883040 0.500339 0.881473 0.132869
H57   H     H_    0.049688 0.642154 0.288842 0.136907
H58   H     H_    0.951216 0.642469 0.288842 0.136960
H59   H     H_    0.685085 0.999429 0.326359 0.122764
H60   H     H_    0.642159 0.950325 0.288842 0.136909
H61   H     H_    0.642464 0.048797 0.288842 0.136959
H62   H     H_    0.500354 0.116961 0.881473 0.132869
H63   H     H_    0.116960 0.499661 0.881473 0.132869
H64   H     H_    0.999661 0.616960 0.618527 0.132869
O1    O     O_R   0.561120 0.105710 0.500130 -0.501564
O2    O     O_R   0.394290 0.061120 0.000130 -0.501564
O3    O     O_R   0.938880 0.394290 0.000130 -0.501564
O4    O     O_R   0.605710 0.938880 0.000130 -0.501564
O5    O     O_R   0.061120 0.394290 0.999870 -0.501563
O6    O     O_R   0.394290 0.938880 0.999870 -0.501564
O7    O     O_R   0.938880 0.605710 0.999870 -0.501563
O8    O     O_R   0.605710 0.061120 0.999870 -0.501564
O9    O     O_R   0.561120 0.999900 0.445770 -0.511718
O10   O     O_R   0.000100 0.561120 0.445770 -0.511718
O11   O     O_R   0.438880 0.000100 0.445770 -0.511718
O12   O     O_R   0.894290 0.561120 0.500130 -0.501563
O13   O     O_R   0.999900 0.438880 0.445770 -0.511718
O14   O     O_R   0.561120 0.000100 0.554230 -0.511718
O15   O     O_R   0.000100 0.438880 0.554230 -0.511718
O16   O     O_R   0.438880 0.999900 0.554230 -0.511718
O17   O     O_R   0.999900 0.561120 0.554230 -0.511718
O18   O     O_R   0.061120 0.499900 0.945770 -0.511718
O19   O     O_R   0.500100 0.061120 0.945770 -0.511718
O20   O     O_R   0.938880 0.500100 0.945770 -0.511718
O21   O     O_R   0.499900 0.938880 0.945770 -0.511718
O22   O     O_R   0.061120 0.500100 0.054230 -0.511718
O23   O     O_R   0.438880 0.894290 0.500130 -0.501563
O24   O     O_R   0.500100 0.938880 0.054230 -0.511718
O25   O     O_R   0.938880 0.499900 0.054230 -0.511718
O26   O     O_R   0.499900 0.061120 0.054230 -0.511718
O27   O     O_R   0.394010 0.499860 0.468680 -0.504467
O28   O     O_R   0.500140 0.394010 0.468680 -0.504467
O29   O     O_R   0.605990 0.500140 0.468680 -0.504467
O30   O     O_R   0.499860 0.605990 0.468680 -0.504467
O31   O     O_R   0.394010 0.500140 0.531320 -0.504467
O32   O     O_R   0.500140 0.605990 0.531320 -0.504467
O33   O     O_R   0.605990 0.499860 0.531320 -0.504467
O34   O     O_R   0.105710 0.438880 0.500130 -0.501563
O35   O     O_R   0.499860 0.394010 0.531320 -0.504467
O36   O     O_R   0.894010 0.999860 0.968680 -0.504467
O37   O     O_R   0.000140 0.894010 0.968680 -0.504467
O38   O     O_R   0.105990 0.000140 0.968680 -0.504467
O39   O     O_R   0.999860 0.105990 0.968680 -0.504467
O40   O     O_R   0.894010 0.000140 0.031320 -0.504467
O41   O     O_R   0.000140 0.105990 0.031320 -0.504467
O42   O     O_R   0.105990 0.999860 0.031320 -0.504467
O43   O     O_R   0.999860 0.894010 0.031320 -0.504467
O44   O     O_R   0.561120 0.894290 0.499870 -0.501564
O45   O     O_R   0.894290 0.438880 0.499870 -0.501564
O46   O     O_R   0.438880 0.105710 0.499870 -0.501564
O47   O     O_R   0.105710 0.561120 0.499870 -0.501565
O48   O     O_R   0.061120 0.605710 0.000130 -0.501565

loop_
_geom_bond_atom_site_label_1
_geom_bond_atom_site_label_2
_ccdc_geom_bond_type
C51   C97   A    
C96   C105  S    
C73   H7    S    
C52   C70   A    
C11   H47   S    
C15   H55   S    
Cu4   O41   S    
C42   C93   A    
C64   C77   A    
C112  H16   S    
C62   C77   A    
C28   C69   S    
Cu7   O13   S    
C74   C83   A    
C65   H63   S    
C16   H59   S    
C111  H15   S    
Cu10  O3    S    
C38   C76   S    
C53   C99   A    
C66   C79   A    
C20   C92   S    
C3    C43   S    
C24   C36   S    
C5    H28   S    
C105  C106  T    
Cu4   O40   S    
C17   C26   T    
C74   H8    S    
Cu3   O37   S    
Cu5   O17   S    
C8    H37   S    
Cu5   Cu7   S    
C57   H1    S    
C7    H35   S    
C10   C51   S    
C101  C109  T    
Cu3   Cu4   S    
C4    H24   S    
C15   H58   S    
C15   H57   S    
C33   O14   A    
C43   C94   A    
C31   C83   S    
C87   O30   A    
C112  H18   S    
C32   O13   A    
C9    H39   S    
C70   C81   A    
C42   C112  S    
C32   O10   A    
C11   C52   S    
C18   C27   T    
Cu7   O45   S    
C7    H32   S    
C92   O39   A    
C10   H43   S    
C14   H52   S    
C88   O36   A    
Cu11  O6    S    
C103  C108  T    
C65   C78   A    
C86   O33   A    
C39   C75   S    
C48   C65   A    
C48   C96   A    
C50   C67   A    
Cu10  O7    S    
Cu9   O8    S    
C1    C22   S    
C12   C53   S    
C84   O27   A    
C36   O44   A    
C71   C82   A    
Cu2   Cu12  S    
C68   C79   A    
C4    H25   S    
C36   O23   A    
C21   C88   S    
C25   O45   A    
C11   H48   S    
C34   O17   A    
C59   C76   A    
C85   C102  S    
C66   H64   S    
C37   O19   A    
C54   C100  A    
C110  H11   S    
Cu6   O11   S    
Cu9   O26   S    
C31   O11   A    
C1    O46   A    
Cu8   Cu10  S    
C47   O47   A    
C20   C29   T    
C61   C76   A    
Cu8   O22   S    
Cu12  O30   S    
C50   C98   A    
C56   C74   A    
C49   C66   A    
C46   C95   A    
C14   H53   S    
Cu10  O20   S    
Cu3   O36   S    
Cu5   O47   S    
Cu7   O15   S    
C41   C59   A    
Cu3   O38   S    
C54   C72   A    
C85   O28   A    
C93   C101  S    
Cu9   O2    S    
C59   H12   S    
C40   C110  S    
C4    C44   S    
C35   C78   S    
C44   C62   A    
C87   O32   A    
C5    C45   S    
C45   C63   A    
Cu7   O34   S    
C89   O43   A    
C5    H26   S    
C13   C24   T    
C46   C64   A    
Cu6   O23   S    
C86   O29   A    
C15   C55   S    
C112  H17   S    
C3    H20   S    
C9    H40   S    
C16   C56   S    
Cu3   O39   S    
C99   C108  S    
C84   O31   A    
C34   C79   S    
C71   H5    S    
C80   O5    A    
Cu6   O46   S    
C35   O18   A    
C41   C94   A    
C40   C93   A    
C58   O7    A    
C10   H42   S    
C4    H22   S    
Cu11  O24   S    
C13   C87   S    
C3    H19   S    
C21   C30   T    
C14   H54   S    
Cu1   O14   S    
C38   O22   A    
C72   H6    S    
C19   C28   T    
C85   O35   A    
C68   H3    S    
C37   O21   A    
C6    H30   S    
Cu5   O12   S    
C26   C47   S    
C12   H51   S    
C97   C106  S    
C60   H23   S    
C47   O34   A    
C94   C103  S    
C67   C81   A    
Cu2   O31   S    
Cu2   O35   S    
C80   O3    A    
C67   H2    S    
C34   O15   A    
Cu9   O19   S    
C38   O25   A    
C42   C60   A    
C8    H36   S    
C73   C82   A    
C31   O9    A    
C32   C82   S    
C95   C104  S    
C43   C61   A    
Cu1   O44   S    
C12   H50   S    
Cu12  O28   S    
C70   H4    S    
C62   H45   S    
Cu12  O29   S    
Cu1   O9    S    
C40   C57   A    
C6    C46   S    
C39   O26   A    
Cu4   O42   S    
C18   C89   S    
C90   O38   A    
Cu6   O16   S    
C9    C50   S    
C6    H31   S    
Cu2   O32   S    
C30   C91   S    
C27   C58   S    
C22   C102  T    
C69   O2    A    
C16   H60   S    
C3    H21   S    
C7    H33   S    
Cu1   O1    S    
C91   O4    A    
C33   O16   A    
C58   O48   A    
Cu8   O5    S    
C5    H27   S    
Cu10  O25   S    
C16   H61   S    
C14   C54   S    
Cu8   O18   S    
C7    C48   S    
C17   C84   S    
C9    H41   S    
Cu4   O43   S    
C25   O12   A    
C8    H38   S    
C61   H34   S    
Cu8   O48   S    
C91   O8    A    
C57   C75   A    
C88   O40   A    
C29   C80   S    
C37   C77   S    
C92   O41   A    
C111  H13   S    
Cu11  O21   S    
C52   C98   A    
C69   O6    A    
C39   O24   A    
C2    C86   S    
C51   C68   A    
C23   C25   S    
Cu2   O33   S    
C64   H62   S    
Cu9   Cu11  S    
C6    H29   S    
C110  H10   S    
C63   H56   S    
C72   C83   A    
C49   C97   A    
Cu1   Cu6   S    
C55   C73   A    
C35   O20   A    
C100  C109  S    
C89   O37   A    
C11   H46   S    
C10   H44   S    
C41   C111  S    
C55   C99   A    
C2    C23   T    
C19   C90   S    
C56   C100  A    
C90   O42   A    
C110  H9    S    
C60   C75   A    
Cu11  O4    S    
C45   C96   A    
C33   C81   S    
C8    C49   S    
C63   C78   A    
C104  C107  T    
C44   C95   A    
Cu5   O10   S    
C111  H14   S    
C1    O1    A    
C12   H49   S    
C98   C107  S    
Cu12  O27   S    
C53   C71   A    
