data_mof_unit_65707.cif
_audit_creation_date              2012-12-10T20:35:37-0500
_audit_creation_method            fapswitch 2.2
_symmetry_space_group_name_H-M    P1
_symmetry_Int_Tables_number       1
_space_group_crystal_system       triclinic
_cell_length_a                    36.114715
_cell_length_b                    39.798159
_cell_length_c                    39.7621
_cell_angle_alpha                 90.000037
_cell_angle_beta                  90.00005
_cell_angle_gamma                 90.000054
_cell_volume                      57150.0333198

loop_
_atom_site_label
_atom_site_type_symbol
_atom_type_description
_atom_site_fract_x
_atom_site_fract_y
_atom_site_fract_z
_atom_type_partial_charge
C1    C     C_R   0.349593 0.750027 0.000063 0.821338
C2    C     C_R   0.650407 0.249973 0.000063 0.821337
C3    C     C_R   0.650407 0.750027 0.000063 0.821337
C4    C     C_R   0.349593 0.249973 0.000063 0.821338
C5    C     C_R   0.849593 0.250027 0.000063 0.821338
C6    C     C_R   0.150407 0.749973 0.000063 0.821337
C7    C     C_R   0.150407 0.250027 0.000063 0.821337
C8    C     C_R   0.849593 0.749973 0.000063 0.821338
C9    C     C_R   0.849593 0.750027 0.500063 0.821338
C10   C     C_R   0.150407 0.249973 0.500063 0.821337
C11   C     C_R   0.150407 0.750027 0.500063 0.821337
C12   C     C_R   0.849593 0.249973 0.500063 0.821338
C13   C     C_R   0.349593 0.250027 0.500063 0.821338
C14   C     C_R   0.650407 0.749973 0.500063 0.821337
C15   C     C_R   0.650407 0.250027 0.500063 0.821337
C16   C     C_R   0.349593 0.749973 0.500063 0.821338
C17   C     C_1   0.250000 0.750000 0.234936 -0.044708
C18   C     C_1   0.750000 0.250000 0.234936 -0.044708
C19   C     C_1   0.750000 0.750000 0.234936 -0.044709
C20   C     C_1   0.250000 0.250000 0.234936 -0.044709
C21   C     C_1   0.750000 0.750000 0.734936 -0.044708
C22   C     C_1   0.250000 0.250000 0.734936 -0.044708
C23   C     C_1   0.250000 0.750000 0.734936 -0.044709
C24   C     C_1   0.750000 0.250000 0.734936 -0.044709
C25   C     C_R   0.273690 0.728449 0.181289 -0.151195
C26   C     C_R   0.726310 0.271551 0.181288 -0.151195
C27   C     C_R   0.726310 0.728449 0.181288 -0.151196
C28   C     C_R   0.273690 0.271551 0.181289 -0.151196
C29   C     C_R   0.773690 0.228449 0.181289 -0.151195
C30   C     C_R   0.226310 0.771551 0.181288 -0.151195
C31   C     C_R   0.226310 0.228449 0.181288 -0.151196
C32   C     C_R   0.773690 0.771551 0.181289 -0.151196
C33   C     C_R   0.773690 0.728449 0.681288 -0.151195
C34   C     C_R   0.226310 0.271551 0.681288 -0.151195
C35   C     C_R   0.226310 0.728449 0.681288 -0.151196
C36   C     C_R   0.773690 0.271551 0.681288 -0.151196
C37   C     C_R   0.273690 0.228449 0.681288 -0.151195
C38   C     C_R   0.726310 0.771551 0.681288 -0.151195
C39   C     C_R   0.726310 0.228449 0.681288 -0.151196
C40   C     C_R   0.273690 0.771551 0.681288 -0.151196
C41   C     C_R   0.273719 0.728422 0.146168 -0.179593
C42   C     C_R   0.726281 0.271577 0.146168 -0.179592
C43   C     C_R   0.726282 0.728422 0.146168 -0.179593
C44   C     C_R   0.273718 0.271578 0.146168 -0.179595
C45   C     C_R   0.773719 0.228422 0.146168 -0.179593
C46   C     C_R   0.226281 0.771577 0.146168 -0.179592
C47   C     C_R   0.226281 0.228422 0.146168 -0.179593
C48   C     C_R   0.773719 0.771578 0.146168 -0.179595
C49   C     C_R   0.773719 0.728422 0.646168 -0.179593
C50   C     C_R   0.226281 0.271577 0.646168 -0.179592
C51   C     C_R   0.226281 0.728422 0.646168 -0.179593
C52   C     C_R   0.773718 0.271578 0.646168 -0.179595
C53   C     C_R   0.273719 0.228422 0.646168 -0.179593
C54   C     C_R   0.726281 0.771577 0.646168 -0.179592
C55   C     C_R   0.726282 0.228422 0.646168 -0.179593
C56   C     C_R   0.273718 0.771578 0.646168 -0.179595
C57   C     C_R   0.250000 0.750000 0.128257 -0.018476
C58   C     C_R   0.750000 0.250000 0.128257 -0.018476
C59   C     C_R   0.750000 0.750000 0.128257 -0.018476
C60   C     C_R   0.250000 0.250000 0.128257 -0.018476
C61   C     C_R   0.750000 0.750000 0.628257 -0.018476
C62   C     C_R   0.250000 0.250000 0.628257 -0.018476
C63   C     C_R   0.250000 0.750000 0.628257 -0.018476
C64   C     C_R   0.750000 0.250000 0.628257 -0.018476
C65   C     C_R   0.250000 0.750000 0.198862 0.146283
C66   C     C_R   0.750000 0.250000 0.198862 0.146283
C67   C     C_R   0.750000 0.750000 0.198862 0.146284
C68   C     C_R   0.250000 0.250000 0.198862 0.146284
C69   C     C_R   0.750000 0.750000 0.698862 0.146283
C70   C     C_R   0.250000 0.250000 0.698862 0.146283
C71   C     C_R   0.250000 0.750000 0.698862 0.146284
C72   C     C_R   0.750000 0.250000 0.698862 0.146284
C73   C     C_3   0.021738 0.757949 0.036235 0.079954
C74   C     C_3   0.978262 0.242050 0.036235 0.079958
C75   C     C_3   0.978262 0.757953 0.036235 0.079969
C76   C     C_3   0.021738 0.242048 0.036235 0.079966
C77   C     C_3   0.521738 0.257949 0.036235 0.079954
C78   C     C_3   0.478262 0.742050 0.036235 0.079958
C79   C     C_3   0.478262 0.257953 0.036235 0.079969
C80   C     C_3   0.521738 0.742048 0.036235 0.079966
C81   C     C_3   0.521738 0.757949 0.536235 0.079954
C82   C     C_3   0.478262 0.242050 0.536235 0.079958
C83   C     C_3   0.478262 0.757953 0.536234 0.079969
C84   C     C_3   0.521738 0.242048 0.536235 0.079966
C85   C     C_3   0.021738 0.257949 0.536235 0.079954
C86   C     C_3   0.978262 0.742050 0.536235 0.079958
C87   C     C_3   0.978262 0.257953 0.536234 0.079969
C88   C     C_3   0.021738 0.742048 0.536235 0.079966
C89   C     C_3   0.021738 0.714369 0.989908 0.078559
C90   C     C_3   0.978262 0.285631 0.989909 0.078557
C91   C     C_3   0.978262 0.714368 0.989912 0.078549
C92   C     C_3   0.021738 0.285631 0.989911 0.078551
C93   C     C_3   0.521738 0.214369 0.989908 0.078559
C94   C     C_3   0.478262 0.785631 0.989909 0.078557
C95   C     C_3   0.478262 0.214368 0.989912 0.078549
C96   C     C_3   0.521738 0.785631 0.989911 0.078551
C97   C     C_3   0.521738 0.714369 0.489908 0.078559
C98   C     C_3   0.478262 0.285631 0.489909 0.078557
C99   C     C_3   0.478262 0.714368 0.489912 0.078549
C100  C     C_3   0.521738 0.285631 0.489911 0.078551
C101  C     C_3   0.021738 0.214369 0.489908 0.078559
C102  C     C_3   0.978262 0.785631 0.489909 0.078557
C103  C     C_3   0.978262 0.214368 0.489912 0.078549
C104  C     C_3   0.021738 0.785631 0.489911 0.078551
C105  C     C_1   0.389193 0.749900 0.500126 -0.076687
C106  C     C_1   0.610807 0.250100 0.500126 -0.076688
C107  C     C_1   0.610807 0.749900 0.500126 -0.076688
C108  C     C_1   0.389193 0.250100 0.500126 -0.076688
C109  C     C_1   0.889193 0.249900 0.500126 -0.076687
C110  C     C_1   0.110807 0.750100 0.500126 -0.076688
C111  C     C_1   0.110807 0.249900 0.500126 -0.076688
C112  C     C_1   0.889193 0.750100 0.500126 -0.076688
C113  C     C_1   0.889193 0.749900 0.000126 -0.076687
C114  C     C_1   0.110807 0.250100 0.000126 -0.076688
C115  C     C_1   0.110807 0.749900 0.000126 -0.076688
C116  C     C_1   0.889193 0.250100 0.000126 -0.076688
C117  C     C_1   0.389193 0.249900 0.000126 -0.076687
C118  C     C_1   0.610807 0.750100 0.000126 -0.076688
C119  C     C_1   0.610807 0.249900 0.000126 -0.076688
C120  C     C_1   0.389193 0.750100 0.000126 -0.076688
C121  C     C_3   0.036665 0.749689 0.000322 0.050297
C122  C     C_3   0.963335 0.250311 0.000322 0.050295
C123  C     C_3   0.963335 0.749688 0.000322 0.050296
C124  C     C_3   0.036665 0.250311 0.000322 0.050295
C125  C     C_3   0.536665 0.249689 0.000322 0.050297
C126  C     C_3   0.463335 0.750311 0.000322 0.050295
C127  C     C_3   0.463335 0.249688 0.000322 0.050296
C128  C     C_3   0.536665 0.750311 0.000322 0.050295
C129  C     C_3   0.536665 0.749689 0.500322 0.050297
C130  C     C_3   0.463335 0.250311 0.500322 0.050295
C131  C     C_3   0.463335 0.749688 0.500322 0.050296
C132  C     C_3   0.536665 0.250311 0.500322 0.050295
C133  C     C_3   0.036665 0.249689 0.500322 0.050297
C134  C     C_3   0.963335 0.750311 0.500322 0.050295
C135  C     C_3   0.963335 0.249688 0.500322 0.050296
C136  C     C_3   0.036665 0.750311 0.500322 0.050295
C137  C     C_3   0.478556 0.776234 0.475300 -0.353806
C138  C     C_3   0.521444 0.223765 0.475301 -0.353803
C139  C     C_3   0.521444 0.776237 0.475304 -0.353805
C140  C     C_3   0.478556 0.223764 0.475303 -0.353806
C141  C     C_3   0.978556 0.276234 0.475300 -0.353806
C142  C     C_3   0.021444 0.723765 0.475301 -0.353803
C143  C     C_3   0.021444 0.276237 0.475304 -0.353805
C144  C     C_3   0.978556 0.723764 0.475303 -0.353806
C145  C     C_3   0.978556 0.776234 0.975301 -0.353806
C146  C     C_3   0.021444 0.223765 0.975301 -0.353803
C147  C     C_3   0.021444 0.776237 0.975304 -0.353805
C148  C     C_3   0.978556 0.223764 0.975303 -0.353806
C149  C     C_3   0.478556 0.276234 0.975301 -0.353806
C150  C     C_3   0.521444 0.723765 0.975301 -0.353803
C151  C     C_3   0.521444 0.276237 0.975304 -0.353805
C152  C     C_3   0.478556 0.723764 0.975303 -0.353806
C153  C     C_R   0.250035 0.841098 0.000015 0.815718
C154  C     C_R   0.749965 0.158902 0.000015 0.815717
C155  C     C_R   0.749965 0.841098 0.000015 0.815719
C156  C     C_R   0.250035 0.158902 0.000015 0.815717
C157  C     C_R   0.750035 0.341098 0.000015 0.815718
C158  C     C_R   0.249965 0.658902 0.000015 0.815717
C159  C     C_R   0.249965 0.341098 0.000015 0.815719
C160  C     C_R   0.750035 0.658902 0.000015 0.815717
C161  C     C_R   0.750035 0.841098 0.500015 0.815718
C162  C     C_R   0.249965 0.158902 0.500015 0.815717
C163  C     C_R   0.249965 0.841098 0.500015 0.815719
C164  C     C_R   0.750035 0.158902 0.500015 0.815717
C165  C     C_R   0.250035 0.341098 0.500015 0.815718
C166  C     C_R   0.749965 0.658902 0.500015 0.815717
C167  C     C_R   0.749965 0.341098 0.500015 0.815719
C168  C     C_R   0.250035 0.658902 0.500015 0.815717
C169  C     C_1   0.422517 0.749815 0.500203 0.048419
C170  C     C_1   0.577483 0.250185 0.500203 0.048419
C171  C     C_1   0.577483 0.749815 0.500203 0.048418
C172  C     C_1   0.422517 0.250185 0.500203 0.048419
C173  C     C_1   0.922517 0.249815 0.500203 0.048419
C174  C     C_1   0.077483 0.750185 0.500203 0.048419
C175  C     C_1   0.077483 0.249815 0.500203 0.048418
C176  C     C_1   0.922517 0.750185 0.500203 0.048419
C177  C     C_1   0.922516 0.749815 0.000203 0.048419
C178  C     C_1   0.077483 0.250185 0.000203 0.048419
C179  C     C_1   0.077483 0.749815 0.000203 0.048418
C180  C     C_1   0.922517 0.250185 0.000203 0.048419
C181  C     C_1   0.422516 0.249815 0.000203 0.048419
C182  C     C_1   0.577483 0.750185 0.000203 0.048419
C183  C     C_1   0.577483 0.249815 0.000203 0.048418
C184  C     C_1   0.422517 0.750185 0.000203 0.048419
C185  C     C_R   0.272850 0.431476 0.021035 -0.208321
C186  C     C_R   0.727150 0.568524 0.021035 -0.208321
C187  C     C_R   0.727149 0.431476 0.021035 -0.208322
C188  C     C_R   0.272851 0.568524 0.021035 -0.208322
C189  C     C_R   0.772850 0.931476 0.021035 -0.208321
C190  C     C_R   0.227150 0.068524 0.021035 -0.208321
C191  C     C_R   0.227149 0.931476 0.021035 -0.208322
C192  C     C_R   0.772851 0.068524 0.021035 -0.208322
C193  C     C_R   0.772850 0.431476 0.521035 -0.208321
C194  C     C_R   0.227150 0.568524 0.521035 -0.208321
C195  C     C_R   0.227149 0.431476 0.521035 -0.208321
C196  C     C_R   0.772851 0.568524 0.521035 -0.208322
C197  C     C_R   0.272850 0.931476 0.521035 -0.208321
C198  C     C_R   0.727150 0.068524 0.521035 -0.208321
C199  C     C_R   0.727149 0.931476 0.521035 -0.208322
C200  C     C_R   0.272851 0.068524 0.521035 -0.208322
C201  C     C_R   0.273213 0.396390 0.021375 -0.170725
C202  C     C_R   0.726787 0.603609 0.021375 -0.170725
C203  C     C_R   0.726786 0.396390 0.021374 -0.170724
C204  C     C_R   0.273214 0.603609 0.021374 -0.170724
C205  C     C_R   0.773213 0.896390 0.021375 -0.170725
C206  C     C_R   0.226787 0.103609 0.021375 -0.170725
C207  C     C_R   0.226786 0.896390 0.021374 -0.170724
C208  C     C_R   0.773214 0.103609 0.021374 -0.170724
C209  C     C_R   0.773213 0.396390 0.521375 -0.170725
C210  C     C_R   0.226787 0.603609 0.521375 -0.170725
C211  C     C_R   0.226786 0.396390 0.521374 -0.170724
C212  C     C_R   0.773214 0.603610 0.521374 -0.170724
C213  C     C_R   0.273213 0.896390 0.521375 -0.170725
C214  C     C_R   0.726787 0.103609 0.521375 -0.170725
C215  C     C_R   0.726786 0.896390 0.521374 -0.170724
C216  C     C_R   0.273214 0.103609 0.521374 -0.170724
C217  C     C_R   0.249794 0.378173 0.999846 -0.066860
C218  C     C_R   0.750206 0.621827 0.999845 -0.066861
C219  C     C_R   0.750206 0.378173 0.999846 -0.066859
C220  C     C_R   0.249794 0.621827 0.999846 -0.066861
C221  C     C_R   0.749794 0.878173 0.999846 -0.066860
C222  C     C_R   0.250206 0.121827 0.999845 -0.066861
C223  C     C_R   0.250206 0.878173 0.999846 -0.066859
C224  C     C_R   0.749794 0.121827 0.999846 -0.066861
C225  C     C_R   0.749794 0.378173 0.499845 -0.066860
C226  C     C_R   0.250206 0.621827 0.499845 -0.066861
C227  C     C_R   0.250206 0.378173 0.499845 -0.066859
C228  C     C_R   0.749794 0.621827 0.499845 -0.066861
C229  C     C_R   0.249794 0.878173 0.499845 -0.066860
C230  C     C_R   0.750206 0.121827 0.499845 -0.066861
C231  C     C_R   0.750206 0.878173 0.499845 -0.066859
C232  C     C_R   0.249794 0.121827 0.499845 -0.066861
C233  C     C_R   0.226051 0.395685 0.978007 -0.220438
C234  C     C_R   0.773949 0.604314 0.978007 -0.220438
C235  C     C_R   0.773950 0.395685 0.978008 -0.220440
C236  C     C_R   0.226050 0.604314 0.978008 -0.220440
C237  C     C_R   0.726051 0.895686 0.978007 -0.220438
C238  C     C_R   0.273949 0.104314 0.978007 -0.220438
C239  C     C_R   0.273950 0.895686 0.978008 -0.220440
C240  C     C_R   0.726050 0.104314 0.978008 -0.220440
C241  C     C_R   0.726051 0.395685 0.478007 -0.220438
C242  C     C_R   0.273949 0.604314 0.478007 -0.220438
C243  C     C_R   0.273950 0.395685 0.478008 -0.220440
C244  C     C_R   0.726050 0.604314 0.478008 -0.220440
C245  C     C_R   0.226051 0.895686 0.478007 -0.220438
C246  C     C_R   0.773949 0.104314 0.478007 -0.220438
C247  C     C_R   0.773950 0.895686 0.478008 -0.220440
C248  C     C_R   0.226050 0.104314 0.478008 -0.220440
C249  C     C_R   0.225620 0.430772 0.977598 0.308584
C250  C     C_R   0.774379 0.569228 0.977598 0.308583
C251  C     C_R   0.774381 0.430772 0.977599 0.308582
C252  C     C_R   0.225619 0.569228 0.977599 0.308583
C253  C     C_R   0.725620 0.930772 0.977598 0.308584
C254  C     C_R   0.274379 0.069228 0.977598 0.308583
C255  C     C_R   0.274381 0.930772 0.977599 0.308582
C256  C     C_R   0.725619 0.069228 0.977599 0.308583
C257  C     C_R   0.725620 0.430772 0.477598 0.308584
C258  C     C_R   0.274379 0.569228 0.477598 0.308583
C259  C     C_R   0.274381 0.430772 0.477599 0.308582
C260  C     C_R   0.725619 0.569228 0.477599 0.308583
C261  C     C_R   0.225620 0.930772 0.477598 0.308584
C262  C     C_R   0.774379 0.069228 0.477598 0.308583
C263  C     C_R   0.774381 0.930772 0.477599 0.308582
C264  C     C_R   0.225619 0.069228 0.477599 0.308583
C265  C     C_R   0.249137 0.448777 0.999224 0.056956
C266  C     C_R   0.750863 0.551222 0.999224 0.056956
C267  C     C_R   0.750863 0.448777 0.999224 0.056957
C268  C     C_R   0.249137 0.551222 0.999224 0.056956
C269  C     C_R   0.749137 0.948777 0.999224 0.056956
C270  C     C_R   0.250863 0.051222 0.999224 0.056956
C271  C     C_R   0.250863 0.948777 0.999224 0.056957
C272  C     C_R   0.749137 0.051222 0.999224 0.056956
C273  C     C_R   0.749137 0.448777 0.499223 0.056956
C274  C     C_R   0.250863 0.551222 0.499223 0.056956
C275  C     C_R   0.250863 0.448777 0.499224 0.056957
C276  C     C_R   0.749137 0.551222 0.499224 0.056957
C277  C     C_R   0.249137 0.948777 0.499223 0.056956
C278  C     C_R   0.750863 0.051222 0.499223 0.056956
C279  C     C_R   0.750863 0.948777 0.499224 0.056957
C280  C     C_R   0.249137 0.051223 0.499224 0.056957
C281  C     C_1   0.249244 0.484882 0.999318 0.041795
C282  C     C_1   0.750756 0.515118 0.999318 0.041795
C283  C     C_1   0.750756 0.484882 0.999318 0.041795
C284  C     C_1   0.249244 0.515118 0.999318 0.041796
C285  C     C_1   0.749244 0.984882 0.999318 0.041795
C286  C     C_1   0.250756 0.015118 0.999318 0.041795
C287  C     C_1   0.250756 0.984882 0.999318 0.041795
C288  C     C_1   0.749244 0.015118 0.999318 0.041796
C289  C     C_1   0.749244 0.484882 0.499318 0.041795
C290  C     C_1   0.250756 0.515118 0.499318 0.041795
C291  C     C_1   0.250756 0.484882 0.499318 0.041795
C292  C     C_1   0.749244 0.515118 0.499318 0.041796
C293  C     C_1   0.249244 0.984882 0.499318 0.041795
C294  C     C_1   0.750756 0.015118 0.499318 0.041795
C295  C     C_1   0.750756 0.984882 0.499318 0.041795
C296  C     C_1   0.249244 0.015118 0.499318 0.041796
C297  C     C_R   0.250000 0.750000 0.908985 0.794473
C298  C     C_R   0.750000 0.250000 0.908985 0.794473
C299  C     C_R   0.750000 0.750000 0.908985 0.794471
C300  C     C_R   0.250000 0.250000 0.908985 0.794471
C301  C     C_R   0.750000 0.750000 0.408985 0.794473
C302  C     C_R   0.250000 0.250000 0.408985 0.794473
C303  C     C_R   0.250000 0.750000 0.408985 0.794471
C304  C     C_R   0.750000 0.250000 0.408985 0.794471
C305  C     C_R   0.250000 0.750000 0.091138 0.794467
C306  C     C_R   0.750000 0.250000 0.091138 0.794467
C307  C     C_R   0.750000 0.750000 0.091138 0.794467
C308  C     C_R   0.250000 0.250000 0.091138 0.794467
C309  C     C_R   0.750000 0.750000 0.591138 0.794467
C310  C     C_R   0.250000 0.250000 0.591138 0.794467
C311  C     C_R   0.250000 0.750000 0.591138 0.794467
C312  C     C_R   0.750000 0.250000 0.591138 0.794467
C313  C     C_R   0.273609 0.728376 0.318832 -0.148870
C314  C     C_R   0.726391 0.271624 0.318832 -0.148870
C315  C     C_R   0.726391 0.728376 0.318832 -0.148871
C316  C     C_R   0.273609 0.271624 0.318832 -0.148871
C317  C     C_R   0.773609 0.228376 0.318832 -0.148870
C318  C     C_R   0.226391 0.771624 0.318832 -0.148870
C319  C     C_R   0.226391 0.228376 0.318832 -0.148871
C320  C     C_R   0.773609 0.771624 0.318832 -0.148871
C321  C     C_R   0.773609 0.728376 0.818832 -0.148870
C322  C     C_R   0.226391 0.271624 0.818832 -0.148870
C323  C     C_R   0.226391 0.728376 0.818832 -0.148871
C324  C     C_R   0.773609 0.271624 0.818832 -0.148871
C325  C     C_R   0.273609 0.228376 0.818832 -0.148870
C326  C     C_R   0.726391 0.771624 0.818832 -0.148870
C327  C     C_R   0.726391 0.228376 0.818832 -0.148871
C328  C     C_R   0.273609 0.771624 0.818832 -0.148871
C329  C     C_R   0.273638 0.728350 0.353953 -0.174791
C330  C     C_R   0.726362 0.271650 0.353953 -0.174791
C331  C     C_R   0.726362 0.728350 0.353953 -0.174791
C332  C     C_R   0.273638 0.271650 0.353953 -0.174791
C333  C     C_R   0.773638 0.228350 0.353953 -0.174791
C334  C     C_R   0.226362 0.771650 0.353953 -0.174791
C335  C     C_R   0.226362 0.228350 0.353953 -0.174791
C336  C     C_R   0.773638 0.771650 0.353953 -0.174791
C337  C     C_R   0.773638 0.728350 0.853953 -0.174791
C338  C     C_R   0.226362 0.271650 0.853953 -0.174791
C339  C     C_R   0.226362 0.728350 0.853953 -0.174791
C340  C     C_R   0.773638 0.271650 0.853953 -0.174791
C341  C     C_R   0.273638 0.228350 0.853953 -0.174791
C342  C     C_R   0.726362 0.771650 0.853953 -0.174791
C343  C     C_R   0.726362 0.228350 0.853953 -0.174791
C344  C     C_R   0.273638 0.771650 0.853953 -0.174791
C345  C     C_R   0.250000 0.750000 0.371864 -0.021918
C346  C     C_R   0.750000 0.250000 0.371864 -0.021918
C347  C     C_R   0.750000 0.750000 0.371864 -0.021917
C348  C     C_R   0.250000 0.250000 0.371864 -0.021917
C349  C     C_R   0.750000 0.750000 0.871864 -0.021918
C350  C     C_R   0.250000 0.250000 0.871864 -0.021918
C351  C     C_R   0.250000 0.750000 0.871864 -0.021917
C352  C     C_R   0.750000 0.250000 0.871864 -0.021917
C353  C     C_R   0.250000 0.750000 0.301259 0.143494
C354  C     C_R   0.750000 0.250000 0.301259 0.143494
C355  C     C_R   0.750000 0.750000 0.301259 0.143494
C356  C     C_R   0.250000 0.250000 0.301259 0.143494
C357  C     C_R   0.750000 0.750000 0.801259 0.143494
C358  C     C_R   0.250000 0.250000 0.801259 0.143494
C359  C     C_R   0.250000 0.750000 0.801259 0.143494
C360  C     C_R   0.750000 0.250000 0.801259 0.143494
C361  C     C_1   0.250000 0.750000 0.265184 -0.043524
C362  C     C_1   0.750000 0.250000 0.265184 -0.043524
C363  C     C_1   0.750000 0.750000 0.265184 -0.043524
C364  C     C_1   0.250000 0.250000 0.265184 -0.043524
C365  C     C_1   0.750000 0.750000 0.765184 -0.043524
C366  C     C_1   0.250000 0.250000 0.765184 -0.043524
C367  C     C_1   0.250000 0.750000 0.765184 -0.043524
C368  C     C_1   0.750000 0.250000 0.765184 -0.043524
H1    H     H_    0.291981 0.711549 0.305395 0.149736
H2    H     H_    0.708019 0.288450 0.305395 0.149736
H3    H     H_    0.708019 0.711549 0.305395 0.149736
H4    H     H_    0.291981 0.288451 0.305395 0.149736
H5    H     H_    0.791981 0.211549 0.305395 0.149736
H6    H     H_    0.208019 0.788450 0.305395 0.149736
H7    H     H_    0.208019 0.211549 0.305395 0.149736
H8    H     H_    0.791981 0.788451 0.305395 0.149736
H9    H     H_    0.791981 0.711549 0.805395 0.149736
H10   H     H_    0.208019 0.288450 0.805395 0.149736
H11   H     H_    0.208019 0.711549 0.805395 0.149736
H12   H     H_    0.791980 0.288451 0.805395 0.149736
H13   H     H_    0.291981 0.211549 0.805395 0.149736
H14   H     H_    0.708019 0.788450 0.805395 0.149736
H15   H     H_    0.708019 0.211549 0.805395 0.149736
H16   H     H_    0.291981 0.788451 0.805395 0.149736
H17   H     H_    0.291094 0.445131 0.037812 0.159681
H18   H     H_    0.708906 0.554868 0.037812 0.159680
H19   H     H_    0.708904 0.445131 0.037811 0.159680
H20   H     H_    0.291095 0.554868 0.037811 0.159680
H21   H     H_    0.791094 0.945132 0.037812 0.159681
H22   H     H_    0.208906 0.054868 0.037812 0.159680
H23   H     H_    0.208904 0.945132 0.037811 0.159680
H24   H     H_    0.791095 0.054868 0.037811 0.159680
H25   H     H_    0.791094 0.445131 0.537812 0.159681
H26   H     H_    0.208906 0.554868 0.537813 0.159680
H27   H     H_    0.208904 0.445132 0.537811 0.159680
H28   H     H_    0.791095 0.554868 0.537811 0.159680
H29   H     H_    0.291094 0.945132 0.537812 0.159681
H30   H     H_    0.708906 0.054868 0.537813 0.159680
H31   H     H_    0.708904 0.945132 0.537811 0.159680
H32   H     H_    0.291095 0.054868 0.537811 0.159680
H33   H     H_    0.291792 0.383559 0.038467 0.177572
H34   H     H_    0.708208 0.616441 0.038467 0.177572
H35   H     H_    0.708206 0.383559 0.038466 0.177572
H36   H     H_    0.291794 0.616441 0.038466 0.177572
H37   H     H_    0.791792 0.883559 0.038467 0.177572
H38   H     H_    0.208208 0.116441 0.038467 0.177572
H39   H     H_    0.208206 0.883559 0.038466 0.177572
H40   H     H_    0.791794 0.116441 0.038466 0.177572
H41   H     H_    0.791792 0.383559 0.538467 0.177572
H42   H     H_    0.208208 0.616441 0.538467 0.177572
H43   H     H_    0.208206 0.383559 0.538466 0.177572
H44   H     H_    0.791794 0.616441 0.538466 0.177572
H45   H     H_    0.291792 0.883559 0.538467 0.177572
H46   H     H_    0.708208 0.116441 0.538467 0.177572
H47   H     H_    0.708206 0.883559 0.538466 0.177572
H48   H     H_    0.291794 0.116441 0.538466 0.177572
H49   H     H_    0.207759 0.382170 0.961185 0.196976
H50   H     H_    0.792241 0.617830 0.961185 0.196976
H51   H     H_    0.792243 0.382170 0.961187 0.196976
H52   H     H_    0.207757 0.617830 0.961186 0.196975
H53   H     H_    0.707759 0.882170 0.961185 0.196976
H54   H     H_    0.292241 0.117830 0.961185 0.196976
H55   H     H_    0.292243 0.882170 0.961187 0.196976
H56   H     H_    0.707757 0.117830 0.961186 0.196975
H57   H     H_    0.707759 0.382170 0.461185 0.196976
H58   H     H_    0.292241 0.617830 0.461185 0.196976
H59   H     H_    0.292243 0.382170 0.461187 0.196976
H60   H     H_    0.707757 0.617830 0.461186 0.196975
H61   H     H_    0.207759 0.882170 0.461185 0.196976
H62   H     H_    0.792241 0.117830 0.461185 0.196976
H63   H     H_    0.792243 0.882170 0.461187 0.196976
H64   H     H_    0.207757 0.117830 0.461186 0.196975
H65   H     H_    0.292142 0.711401 0.367050 0.175910
H66   H     H_    0.707858 0.288599 0.367050 0.175910
H67   H     H_    0.707859 0.711401 0.367050 0.175910
H68   H     H_    0.292141 0.288599 0.367050 0.175910
H69   H     H_    0.792142 0.211401 0.367050 0.175910
H70   H     H_    0.207858 0.788599 0.367050 0.175910
H71   H     H_    0.207859 0.211401 0.367050 0.175910
H72   H     H_    0.792141 0.788599 0.367050 0.175910
H73   H     H_    0.792142 0.711401 0.867050 0.175910
H74   H     H_    0.207858 0.288599 0.867050 0.175910
H75   H     H_    0.207859 0.711401 0.867050 0.175910
H76   H     H_    0.792141 0.288599 0.867050 0.175910
H77   H     H_    0.292142 0.211401 0.867050 0.175910
H78   H     H_    0.707858 0.788599 0.867050 0.175910
H79   H     H_    0.707859 0.211401 0.867050 0.175910
H80   H     H_    0.292141 0.788599 0.867050 0.175910
H81   H     H_    0.292125 0.711679 0.194725 0.147813
H82   H     H_    0.707875 0.288321 0.194725 0.147813
H83   H     H_    0.707876 0.711678 0.194725 0.147813
H84   H     H_    0.292124 0.288321 0.194725 0.147813
H85   H     H_    0.792125 0.211679 0.194725 0.147813
H86   H     H_    0.207875 0.788321 0.194725 0.147813
H87   H     H_    0.207876 0.211678 0.194725 0.147813
H88   H     H_    0.792124 0.788321 0.194725 0.147813
H89   H     H_    0.792125 0.711679 0.694725 0.147813
H90   H     H_    0.207875 0.288321 0.694725 0.147813
H91   H     H_    0.207876 0.711678 0.694725 0.147813
H92   H     H_    0.792124 0.288321 0.694725 0.147813
H93   H     H_    0.292124 0.211679 0.694725 0.147813
H94   H     H_    0.707875 0.788321 0.694725 0.147813
H95   H     H_    0.707876 0.211678 0.694725 0.147813
H96   H     H_    0.292124 0.788321 0.694725 0.147813
H97   H     H_    0.292285 0.711532 0.133069 0.171992
H98   H     H_    0.707715 0.288468 0.133069 0.171992
H99   H     H_    0.707715 0.711532 0.133069 0.171991
H100  H     H_    0.292285 0.288468 0.133069 0.171991
H101  H     H_    0.792285 0.211532 0.133069 0.171992
H102  H     H_    0.207715 0.788468 0.133069 0.171992
H103  H     H_    0.207715 0.211532 0.133069 0.171991
H104  H     H_    0.792285 0.788468 0.133069 0.171991
H105  H     H_    0.792285 0.711532 0.633069 0.171992
H106  H     H_    0.207715 0.288468 0.633069 0.171992
H107  H     H_    0.207715 0.711532 0.633069 0.171991
H108  H     H_    0.792285 0.288468 0.633069 0.171991
H109  H     H_    0.292285 0.211532 0.633069 0.171992
H110  H     H_    0.707715 0.788468 0.633069 0.171992
H111  H     H_    0.707715 0.211532 0.633069 0.171991
H112  H     H_    0.292285 0.788468 0.633069 0.171991
H113  H     H_    0.468952 0.737645 0.553541 0.100363
H114  H     H_    0.531047 0.262356 0.553541 0.100360
H115  H     H_    0.531044 0.737637 0.553538 0.100350
H116  H     H_    0.468955 0.262361 0.553539 0.100353
H117  H     H_    0.968952 0.237646 0.553541 0.100363
H118  H     H_    0.031047 0.762356 0.553541 0.100360
H119  H     H_    0.031044 0.237637 0.553538 0.100350
H120  H     H_    0.968955 0.762361 0.553539 0.100353
H121  H     H_    0.968951 0.737645 0.053541 0.100363
H122  H     H_    0.031047 0.262356 0.053540 0.100360
H123  H     H_    0.031044 0.737637 0.053538 0.100350
H124  H     H_    0.968955 0.262361 0.053539 0.100353
H125  H     H_    0.468952 0.237645 0.053541 0.100363
H126  H     H_    0.531047 0.762356 0.053540 0.100360
H127  H     H_    0.531044 0.237637 0.053538 0.100350
H128  H     H_    0.468955 0.762361 0.053539 0.100353
H129  H     H_    0.031049 0.695890 0.009157 0.103247
H130  H     H_    0.968952 0.304110 0.009159 0.103243
H131  H     H_    0.968956 0.695892 0.009166 0.103230
H132  H     H_    0.031045 0.304108 0.009164 0.103235
H133  H     H_    0.531049 0.195890 0.009157 0.103247
H134  H     H_    0.468952 0.804110 0.009159 0.103243
H135  H     H_    0.468956 0.195892 0.009166 0.103230
H136  H     H_    0.531045 0.804108 0.009164 0.103235
H137  H     H_    0.531049 0.695890 0.509157 0.103247
H138  H     H_    0.468952 0.304110 0.509159 0.103243
H139  H     H_    0.468956 0.695892 0.509166 0.103230
H140  H     H_    0.531045 0.304109 0.509164 0.103235
H141  H     H_    0.031049 0.195890 0.509157 0.103247
H142  H     H_    0.968952 0.804110 0.509159 0.103243
H143  H     H_    0.968957 0.195892 0.509166 0.103230
H144  H     H_    0.031045 0.804109 0.509164 0.103235
H145  H     H_    0.031673 0.801702 0.982102 0.219860
H146  H     H_    0.968325 0.198299 0.982099 0.219857
H147  H     H_    0.968321 0.801699 0.982091 0.219845
H148  H     H_    0.031677 0.198300 0.982094 0.219849
H149  H     H_    0.531673 0.301702 0.982102 0.219860
H150  H     H_    0.468325 0.698299 0.982099 0.219857
H151  H     H_    0.468321 0.301699 0.982091 0.219845
H152  H     H_    0.531677 0.698300 0.982094 0.219849
H153  H     H_    0.531673 0.801702 0.482102 0.219860
H154  H     H_    0.468325 0.198299 0.482099 0.219857
H155  H     H_    0.468321 0.801699 0.482091 0.219845
H156  H     H_    0.531677 0.198300 0.482094 0.219849
H157  H     H_    0.031673 0.301702 0.482102 0.219860
H158  H     H_    0.968325 0.698299 0.482099 0.219857
H159  H     H_    0.968321 0.301699 0.482091 0.219845
H160  H     H_    0.031677 0.698300 0.482094 0.219849
H161  H     H_    0.031679 0.770995 0.949453 0.218687
H162  H     H_    0.968323 0.229008 0.949453 0.218690
H163  H     H_    0.968327 0.770984 0.949450 0.218701
H164  H     H_    0.031675 0.229013 0.949451 0.218697
H165  H     H_    0.531679 0.270995 0.949453 0.218687
H166  H     H_    0.468322 0.729008 0.949453 0.218690
H167  H     H_    0.468326 0.270984 0.949450 0.218701
H168  H     H_    0.531675 0.729013 0.949451 0.218697
H169  H     H_    0.531679 0.770995 0.449453 0.218687
H170  H     H_    0.468322 0.229008 0.449452 0.218690
H171  H     H_    0.468326 0.770984 0.449450 0.218701
H172  H     H_    0.531675 0.229013 0.449451 0.218697
H173  H     H_    0.031679 0.270995 0.449453 0.218687
H174  H     H_    0.968323 0.729008 0.449452 0.218690
H175  H     H_    0.968327 0.270984 0.449450 0.218701
H176  H     H_    0.031675 0.729013 0.449451 0.218697
O1    O     O_3   0.250000 0.750000 0.000050 -0.485931
O2    O     O_3   0.750000 0.250000 0.000050 -0.485931
O3    O     O_3   0.750000 0.750000 0.000050 -0.485931
O4    O     O_3   0.250000 0.250000 0.000050 -0.485931
O5    O     O_3   0.750000 0.750000 0.500050 -0.485931
O6    O     O_3   0.250000 0.250000 0.500050 -0.485931
O7    O     O_3   0.250000 0.750000 0.500050 -0.485931
O8    O     O_3   0.750000 0.250000 0.500050 -0.485931
O9    O     O_R   0.332000 0.730400 0.019680 -0.626398
O10   O     O_R   0.668000 0.269600 0.019680 -0.626395
O11   O     O_R   0.668000 0.730400 0.019680 -0.626400
O12   O     O_R   0.332000 0.269600 0.019680 -0.626401
O13   O     O_R   0.832000 0.230400 0.019680 -0.626398
O14   O     O_R   0.168000 0.769600 0.019680 -0.626395
O15   O     O_R   0.168000 0.230400 0.019680 -0.626400
O16   O     O_R   0.832000 0.769600 0.019680 -0.626401
O17   O     O_R   0.832000 0.730400 0.519680 -0.626398
O18   O     O_R   0.168000 0.269600 0.519680 -0.626395
O19   O     O_R   0.168000 0.730400 0.519680 -0.626400
O20   O     O_R   0.832000 0.269600 0.519680 -0.626401
O21   O     O_R   0.332000 0.230400 0.519680 -0.626398
O22   O     O_R   0.668000 0.769600 0.519680 -0.626395
O23   O     O_R   0.668000 0.230400 0.519680 -0.626400
O24   O     O_R   0.332000 0.769600 0.519680 -0.626401
O25   O     O_R   0.271510 0.824850 0.980420 -0.638366
O26   O     O_R   0.728490 0.175150 0.980420 -0.638366
O27   O     O_R   0.728490 0.824850 0.980420 -0.638366
O28   O     O_R   0.271510 0.175150 0.980420 -0.638365
O29   O     O_R   0.771510 0.324850 0.980420 -0.638366
O30   O     O_R   0.228490 0.675150 0.980420 -0.638366
O31   O     O_R   0.228490 0.324850 0.980420 -0.638366
O32   O     O_R   0.771510 0.675150 0.980420 -0.638365
O33   O     O_R   0.771510 0.824850 0.480420 -0.638366
O34   O     O_R   0.228490 0.175150 0.480420 -0.638366
O35   O     O_R   0.228490 0.824850 0.480420 -0.638366
O36   O     O_R   0.771510 0.175150 0.480420 -0.638365
O37   O     O_R   0.271510 0.324850 0.480420 -0.638366
O38   O     O_R   0.728490 0.675150 0.480420 -0.638366
O39   O     O_R   0.728490 0.324850 0.480420 -0.638366
O40   O     O_R   0.271510 0.675150 0.480420 -0.638365
O41   O     O_R   0.271510 0.769650 0.925230 -0.639338
O42   O     O_R   0.728490 0.230350 0.925230 -0.639339
O43   O     O_R   0.728490 0.769650 0.925230 -0.639339
O44   O     O_R   0.271510 0.230350 0.925230 -0.639339
O45   O     O_R   0.771510 0.269650 0.925230 -0.639338
O46   O     O_R   0.228490 0.730350 0.925230 -0.639339
O47   O     O_R   0.228490 0.269650 0.925230 -0.639339
O48   O     O_R   0.771510 0.730350 0.925230 -0.639339
O49   O     O_R   0.771510 0.769650 0.425230 -0.639338
O50   O     O_R   0.228490 0.230350 0.425230 -0.639339
O51   O     O_R   0.228490 0.769650 0.425230 -0.639339
O52   O     O_R   0.771510 0.230350 0.425230 -0.639339
O53   O     O_R   0.271510 0.269650 0.425230 -0.639338
O54   O     O_R   0.728490 0.730350 0.425230 -0.639339
O55   O     O_R   0.728490 0.269650 0.425230 -0.639339
O56   O     O_R   0.271510 0.730350 0.425230 -0.639339
O57   O     O_R   0.271520 0.730410 0.074880 -0.641141
O58   O     O_R   0.728480 0.269590 0.074880 -0.641141
O59   O     O_R   0.728480 0.730410 0.074880 -0.641141
O60   O     O_R   0.271520 0.269590 0.074880 -0.641142
O61   O     O_R   0.771520 0.230410 0.074880 -0.641141
O62   O     O_R   0.228480 0.769590 0.074880 -0.641141
O63   O     O_R   0.228480 0.230410 0.074880 -0.641141
O64   O     O_R   0.771520 0.769590 0.074880 -0.641142
O65   O     O_R   0.771520 0.730410 0.574880 -0.641141
O66   O     O_R   0.228480 0.269590 0.574880 -0.641141
O67   O     O_R   0.228480 0.730410 0.574880 -0.641141
O68   O     O_R   0.771520 0.269590 0.574880 -0.641142
O69   O     O_R   0.271520 0.230410 0.574880 -0.641141
O70   O     O_R   0.728480 0.769590 0.574880 -0.641141
O71   O     O_R   0.728480 0.230410 0.574880 -0.641141
O72   O     O_R   0.271520 0.769590 0.574880 -0.641142
O73   O     O_R   0.228530 0.824860 0.019650 -0.642150
O74   O     O_R   0.771470 0.175140 0.019650 -0.642150
O75   O     O_R   0.771470 0.824860 0.019650 -0.642150
O76   O     O_R   0.228530 0.175140 0.019650 -0.642150
O77   O     O_R   0.728530 0.324860 0.019650 -0.642150
O78   O     O_R   0.271470 0.675140 0.019650 -0.642150
O79   O     O_R   0.271470 0.324860 0.019650 -0.642150
O80   O     O_R   0.728530 0.675140 0.019650 -0.642150
O81   O     O_R   0.728530 0.824860 0.519650 -0.642150
O82   O     O_R   0.271470 0.175140 0.519650 -0.642150
O83   O     O_R   0.271470 0.824860 0.519650 -0.642150
O84   O     O_R   0.728530 0.175140 0.519650 -0.642150
O85   O     O_R   0.228530 0.324860 0.519650 -0.642150
O86   O     O_R   0.771470 0.675140 0.519650 -0.642150
O87   O     O_R   0.771470 0.324860 0.519650 -0.642150
O88   O     O_R   0.228530 0.675140 0.519650 -0.642150
O89   O     O_R   0.331990 0.769640 0.980440 -0.623136
O90   O     O_R   0.668010 0.230360 0.980440 -0.623138
O91   O     O_R   0.668010 0.769640 0.980440 -0.623134
O92   O     O_R   0.331990 0.230360 0.980440 -0.623133
O93   O     O_R   0.831990 0.269640 0.980440 -0.623136
O94   O     O_R   0.168010 0.730360 0.980440 -0.623138
O95   O     O_R   0.168010 0.269640 0.980440 -0.623134
O96   O     O_R   0.831990 0.730360 0.980440 -0.623133
O97   O     O_R   0.831990 0.769640 0.480440 -0.623136
O98   O     O_R   0.168010 0.230360 0.480440 -0.623138
O99   O     O_R   0.168010 0.769640 0.480440 -0.623134
O100  O     O_R   0.831990 0.230360 0.480440 -0.623133
O101  O     O_R   0.331990 0.269640 0.480440 -0.623136
O102  O     O_R   0.668010 0.730360 0.480440 -0.623138
O103  O     O_R   0.668010 0.269640 0.480440 -0.623134
O104  O     O_R   0.331990 0.730360 0.480440 -0.623133
Zn1   Zn    Zn3+2 0.219320 0.778060 0.028070 0.993949
Zn2   Zn    Zn3+2 0.780680 0.221940 0.028070 0.993948
Zn3   Zn    Zn3+2 0.780680 0.778060 0.028070 0.993947
Zn4   Zn    Zn3+2 0.219320 0.221940 0.028070 0.993947
Zn5   Zn    Zn3+2 0.719320 0.278060 0.028070 0.993949
Zn6   Zn    Zn3+2 0.280680 0.721940 0.028070 0.993948
Zn7   Zn    Zn3+2 0.280680 0.278060 0.028070 0.993947
Zn8   Zn    Zn3+2 0.719320 0.721940 0.028070 0.993947
Zn9   Zn    Zn3+2 0.719320 0.778060 0.528070 0.993949
Zn10  Zn    Zn3+2 0.280680 0.221940 0.528070 0.993948
Zn11  Zn    Zn3+2 0.280680 0.778060 0.528070 0.993947
Zn12  Zn    Zn3+2 0.719320 0.221940 0.528070 0.993947
Zn13  Zn    Zn3+2 0.219320 0.278060 0.528070 0.993949
Zn14  Zn    Zn3+2 0.780680 0.721940 0.528070 0.993948
Zn15  Zn    Zn3+2 0.780680 0.278060 0.528070 0.993947
Zn16  Zn    Zn3+2 0.219320 0.721940 0.528070 0.993947
Zn17  Zn    Zn3+2 0.280730 0.778060 0.972020 1.001054
Zn18  Zn    Zn3+2 0.719270 0.221940 0.972020 1.001053
Zn19  Zn    Zn3+2 0.719270 0.778060 0.972020 1.001055
Zn20  Zn    Zn3+2 0.280730 0.221940 0.972020 1.001055
Zn21  Zn    Zn3+2 0.780730 0.278060 0.972020 1.001054
Zn22  Zn    Zn3+2 0.219270 0.721940 0.972020 1.001053
Zn23  Zn    Zn3+2 0.219270 0.278060 0.972020 1.001055
Zn24  Zn    Zn3+2 0.780730 0.721940 0.972020 1.001055
Zn25  Zn    Zn3+2 0.780730 0.778060 0.472020 1.001054
Zn26  Zn    Zn3+2 0.219270 0.221940 0.472020 1.001053
Zn27  Zn    Zn3+2 0.219270 0.778060 0.472020 1.001055
Zn28  Zn    Zn3+2 0.780730 0.221940 0.472020 1.001055
Zn29  Zn    Zn3+2 0.280730 0.278060 0.472020 1.001054
Zn30  Zn    Zn3+2 0.719270 0.721940 0.472020 1.001053
Zn31  Zn    Zn3+2 0.719270 0.278060 0.472020 1.001055
Zn32  Zn    Zn3+2 0.280730 0.721940 0.472020 1.001055
Br1   Br    Br    0.044706 0.798747 0.054785 -0.411811
Br2   Br    Br    0.955296 0.201250 0.054782 -0.411812
Br3   Br    Br    0.955301 0.798758 0.054775 -0.411814
Br4   Br    Br    0.044701 0.201245 0.054777 -0.411814
Br5   Br    Br    0.544706 0.298747 0.054785 -0.411811
Br6   Br    Br    0.455296 0.701250 0.054782 -0.411812
Br7   Br    Br    0.455301 0.298758 0.054775 -0.411814
Br8   Br    Br    0.544701 0.701245 0.054777 -0.411814
Br9   Br    Br    0.544706 0.798747 0.554785 -0.411811
Br10  Br    Br    0.455296 0.201250 0.554782 -0.411812
Br11  Br    Br    0.455301 0.798758 0.554775 -0.411814
Br12  Br    Br    0.544701 0.201245 0.554777 -0.411814
Br13  Br    Br    0.044706 0.298747 0.554785 -0.411811
Br14  Br    Br    0.955296 0.701250 0.554782 -0.411812
Br15  Br    Br    0.955301 0.298758 0.554775 -0.411814
Br16  Br    Br    0.044701 0.701245 0.554777 -0.411814
Br17  Br    Br    0.192496 0.452921 0.947121 -0.387570
Br18  Br    Br    0.807503 0.547079 0.947120 -0.387569
Br19  Br    Br    0.807506 0.452921 0.947122 -0.387569
Br20  Br    Br    0.192494 0.547079 0.947122 -0.387570
Br21  Br    Br    0.692496 0.952920 0.947121 -0.387570
Br22  Br    Br    0.307503 0.047079 0.947120 -0.387569
Br23  Br    Br    0.307506 0.952921 0.947122 -0.387569
Br24  Br    Br    0.692494 0.047079 0.947122 -0.387570
Br25  Br    Br    0.692496 0.452921 0.447120 -0.387570
Br26  Br    Br    0.307503 0.547079 0.447120 -0.387569
Br27  Br    Br    0.307506 0.452921 0.447122 -0.387569
Br28  Br    Br    0.692494 0.547079 0.447122 -0.387570
Br29  Br    Br    0.192496 0.952920 0.447120 -0.387570
Br30  Br    Br    0.807503 0.047079 0.447120 -0.387569
Br31  Br    Br    0.807506 0.952921 0.447122 -0.387569
Br32  Br    Br    0.192494 0.047079 0.447122 -0.387570
Br33  Br    Br    0.044699 0.698329 0.948028 -0.389329
Br34  Br    Br    0.955299 0.301674 0.948030 -0.389326
Br35  Br    Br    0.955293 0.698317 0.948039 -0.389320
Br36  Br    Br    0.044705 0.301680 0.948036 -0.389322
Br37  Br    Br    0.544699 0.198329 0.948028 -0.389329
Br38  Br    Br    0.455299 0.801674 0.948030 -0.389326
Br39  Br    Br    0.455293 0.198317 0.948039 -0.389320
Br40  Br    Br    0.544705 0.801680 0.948036 -0.389322
Br41  Br    Br    0.544699 0.698329 0.448028 -0.389329
Br42  Br    Br    0.455299 0.301675 0.448030 -0.389326
Br43  Br    Br    0.455293 0.698317 0.448039 -0.389320
Br44  Br    Br    0.544705 0.301680 0.448036 -0.389322
Br45  Br    Br    0.044699 0.198329 0.448028 -0.389329
Br46  Br    Br    0.955299 0.801674 0.448030 -0.389326
Br47  Br    Br    0.955293 0.198317 0.448039 -0.389320
Br48  Br    Br    0.044705 0.801680 0.448036 -0.389322

loop_
_geom_bond_atom_site_label_1
_geom_bond_atom_site_label_2
_ccdc_geom_bond_type
C147  H145  S    
C113  C177  T    
C40   C71   A    
C320  C336  A    
C322  C358  A    
C89   Br33  S    
O54   Zn30  S    
C130  C140  S    
C234  C250  A    
C252  C268  A    
C6    O94   A    
C213  C229  A    
C107  C171  T    
C111  C175  T    
C281  C284  T    
C327  H15   S    
C94   H134  S    
C3    O11   A    
C282  C283  T    
C213  H45   S    
C188  C268  A    
C298  C352  S    
C135  C173  S    
C189  C269  A    
C30   H86   S    
C190  C270  A    
C90   H130  S    
O70   Zn9   S    
C87   Br15  S    
C77   H127  S    
C109  C173  T    
O48   Zn24  S    
C15   O103  A    
C149  H167  S    
C357  C365  S    
O57   Zn6   S    
C25   H81   S    
C160  O32   A    
C164  C230  S    
C205  H37   S    
O7    Zn32  S    
O86   Zn14  S    
C158  O78   A    
C253  Br21  S    
O61   Zn2   S    
O4    Zn23  S    
C203  H35   S    
C37   H93   S    
C95   H135  S    
C190  C206  A    
C123  C145  S    
C201  H33   S    
O56   Zn32  S    
C144  H174  S    
C191  H23   S    
C21   C365  T    
O65   Zn14  S    
C121  C147  S    
C122  C148  S    
C23   C367  T    
C13   O21   A    
C230  C246  A    
C33   C69   A    
C329  H65   S    
C85   C87   S    
C301  O54   A    
C38   C69   A    
C325  H13   S    
C101  C103  S    
C217  C233  A    
C73   C75   S    
O72   Zn11  S    
C339  H75   S    
C132  C170  S    
C203  C219  A    
C270  C286  S    
C337  H73   S    
C328  C344  A    
C235  H51   S    
C273  C289  S    
C263  Br31  S    
C136  C174  S    
C333  C346  A    
C194  C274  A    
C34   C50   A    
C317  H5    S    
C164  O84   A    
C79   Br7   S    
C9    O17   A    
C207  H39   S    
C25   C41   A    
C24   C368  T    
O84   Zn12  S    
C62   C310  S    
C264  C280  A    
O91   Zn19  S    
C22   C366  T    
O25   Zn17  S    
C28   C44   A    
C221  C237  A    
C1    C120  S    
C26   C66   A    
C305  O57   A    
C37   C53   A    
C16   O24   A    
C83   C131  S    
C319  C356  A    
C3    C118  S    
O29   Zn21  S    
C337  C349  A    
C90   C92   S    
C228  C244  A    
O99   Zn27  S    
C339  C351  A    
C343  C352  A    
C190  H22   S    
C100  C132  S    
C10   C111  S    
C94   C96   S    
O82   Zn10  S    
C335  C348  A    
C97   Br41  S    
C186  H18   S    
O22   Zn9   S    
C167  O87   A    
C128  C150  S    
C14   C107  S    
C145  H163  S    
C238  C254  A    
O19   Zn16  S    
C165  O37   A    
C116  C180  T    
C35   C51   A    
C142  C144  S    
C358  C366  S    
O7    Zn27  S    
C198  C214  A    
C251  C267  A    
C319  C335  A    
C77   C125  S    
O1    Zn22  S    
O4    Zn20  S    
C308  O63   A    
O5    Zn25  S    
C252  Br20  S    
C214  C230  A    
C79   C127  S    
C131  C169  S    
C212  C228  A    
C6    O14   A    
C20   C68   S    
C231  C247  A    
C324  C360  A    
C332  H68   S    
C47   H103  S    
C3    O91   A    
C166  O38   A    
C134  C176  S    
C54   C61   A    
C101  C133  S    
O104  Zn32  S    
O53   Zn29  S    
C302  O53   A    
C92   C124  S    
C139  H153  S    
C223  C239  A    
C309  O65   A    
C5    O13   A    
C2    O10   A    
C279  C295  S    
O21   Zn10  S    
C299  C349  S    
C96   H136  S    
C12   O20   A    
C137  H171  S    
C86   C88   S    
C211  H43   S    
C301  C347  S    
C74   Br2   S    
O58   Zn5   S    
C264  Br32  S    
C41   C57   A    
C196  C212  A    
C27   H83   S    
C244  H60   S    
C21   C69   S    
C78   Br6   S    
O62   Zn1   S    
C312  O68   A    
O85   Zn13  S    
C7    O95   A    
C33   C49   A    
C50   H106  S    
C300  C350  S    
C259  Br27  S    
C343  H79   S    
C192  C272  A    
C248  C264  A    
O66   Zn13  S    
C153  O25   A    
O6    Zn29  S    
C257  Br25  S    
C327  C360  A    
C207  C223  A    
C338  C350  A    
O83   Zn11  S    
C258  C274  A    
C315  C355  A    
C98   Br42  S    
C244  C260  A    
O31   Zn23  S    
C309  O70   A    
C245  C261  A    
C324  H12   S    
C164  O36   A    
C304  O55   A    
C185  C265  A    
C210  H42   S    
C325  C358  A    
C186  C202  A    
O63   Zn4   S    
C74   C76   S    
C199  C215  A    
C146  H148  S    
C15   C106  S    
C359  C367  S    
C28   C68   A    
O4    Zn7   S    
O3    Zn19  S    
O8    Zn28  S    
C149  C151  S    
C251  Br19  S    
O1    Zn17  S    
C198  H30   S    
C322  C338  A    
O2    Zn2   S    
C152  H150  S    
C278  C294  S    
O42   Zn18  S    
C55   H111  S    
C340  C352  A    
C249  C265  A    
O6    Zn10  S    
C78   H128  S    
C42   C58   A    
C125  C151  S    
O33   Zn25  S    
C161  C231  S    
C61   C309  S    
O46   Zn22  S    
C300  O47   A    
C160  C218  S    
C101  Br45  S    
C100  H140  S    
C330  H66   S    
O15   Zn4   S    
O28   Zn20  S    
C322  H10   S    
O20   Zn15  S    
C89   C91   S    
C102  C134  S    
O26   Zn18  S    
O52   Zn28  S    
C43   C59   A    
O3    Zn8   S    
C353  C361  S    
C266  C282  S    
C9    C112  S    
C336  H72   S    
C344  C351  A    
C32   H88   S    
C91   C123  S    
C11   C110  S    
C210  C226  A    
C35   H91   S    
C326  C357  A    
C236  C252  A    
C13   C108  S    
C33   H89   S    
C328  H16   S    
C86   C134  S    
C75   H121  S    
C93   C125  S    
C2    O90   A    
O68   Zn15  S    
C95   Br39  S    
C93   C95   S    
O55   Zn31  S    
C250  Br18  S    
C52   H108  S    
C151  H149  S    
C76   C124  S    
C219  C235  A    
C11   O19   A    
C206  H38   S    
C199  H31   S    
C97   C99   S    
O1    Zn1   S    
C200  H32   S    
O27   Zn19  S    
C191  C207  A    
C160  O80   A    
C40   C56   A    
C124  C146  S    
O7    Zn16  S    
C84   C132  S    
C142  H176  S    
C194  C210  A    
C232  C248  A    
C7    O15   A    
C154  O26   A    
O50   Zn26  S    
C48   H104  S    
O43   Zn19  S    
C145  H147  S    
C4    O92   A    
C274  C290  S    
C341  C350  A    
C129  C139  S    
O81   Zn9   S    
C313  C353  A    
O10   Zn5   S    
O102  Zn30  S    
C119  C183  T    
C19   C67   S    
O4    Zn4   S    
C16   C105  S    
C156  O76   A    
C32   C67   A    
C1    O9    A    
C112  C176  T    
C332  C348  A    
C216  H48   S    
C195  C275  A    
C4    C117  S    
C155  C221  S    
C73   Br1   S    
C326  C342  A    
C315  C331  A    
C165  O85   A    
C356  C364  S    
C24   C72   S    
C48   C59   A    
C98   H138  S    
O59   Zn8   S    
C80   H126  S    
C300  O44   A    
C77   Br5   S    
C104  C136  S    
O16   Zn3   S    
C302  O50   A    
C13   O101  A    
C30   C46   A    
C215  H47   S    
C46   H102  S    
C104  H144  S    
C81   C83   S    
C45   H101  S    
C229  C245  A    
C312  O71   A    
O5    Zn30  S    
C328  C359  A    
C305  O62   A    
C18   C66   S    
C43   H99   S    
O67   Zn16  S    
C320  H8    S    
C41   H97   S    
C202  C218  A    
O24   Zn11  S    
C108  C172  T    
O2    Zn18  S    
C189  H21   S    
C46   C57   A    
C127  C149  S    
C187  H19   S    
C110  C174  T    
C206  C222  A    
O12   Zn7   S    
C50   C62   A    
C185  H17   S    
C280  C296  S    
C247  C263  A    
C30   C65   A    
C27   C67   A    
C158  O30   A    
C35   C71   A    
C260  C276  A    
O35   Zn27  S    
C135  C141  S    
C261  C277  A    
C315  H3    S    
O41   Zn17  S    
C297  O46   A    
C56   H112  S    
O103  Zn31  S    
C31   C47   A    
C20   C364  T    
C258  Br26  S    
C53   H109  S    
C311  O72   A    
C22   C70   S    
C10   O18   A    
C91   Br35  S    
C36   C72   A    
O45   Zn21  S    
C90   Br34  S    
C166  O86   A    
C104  Br48  S    
C101  H141  S    
O3    Zn3   S    
C271  C287  S    
C153  O73   A    
C303  C345  S    
C94   Br38  S    
C321  C357  A    
C123  C177  S    
C93   Br37  S    
O64   Zn3   S    
C36   H92   S    
C121  C179  S    
C99   Br43  S    
C122  C180  S    
C137  C139  S    
C26   C42   A    
C138  H156  S    
O17   Zn14  S    
C204  C220  A    
C7    C114  S    
C237  C253  A    
C91   H131  S    
C293  C296  T    
C29   H85   S    
C156  O28   A    
O47   Zn23  S    
C294  C295  T    
C102  C104  S    
C89   H129  S    
C88   Br16  S    
C79   H125  S    
C148  H162  S    
C132  C138  S    
C26   H82   S    
C159  O31   A    
O2    Zn21  S    
C165  C227  S    
C289  C292  T    
C96   C128  S    
C249  Br17  S    
C290  C291  T    
C83   H113  S    
O36   Zn28  S    
C185  C201  A    
C198  C278  A    
C76   Br4   S    
O60   Zn7   S    
O3    Zn24  S    
O8    Zn31  S    
C136  C142  S    
C81   H115  S    
C254  Br22  S    
C143  H157  S    
C8    O96   A    
C320  C355  A    
C199  C279  A    
C140  H170  S    
C200  C280  A    
C324  C340  A    
C333  H69   S    
C306  O61   A    
C259  C275  A    
C97   C129  S    
C331  H67   S    
C34   C70   A    
O6    Zn13  S    
C246  C262  A    
C163  O35   A    
C39   C55   A    
C303  O56   A    
C186  C266  A    
C118  C182  T    
C151  H165  S    
C304  C346  S    
C37   C70   A    
C137  H155  S    
O11   Zn8   S    
C209  C225  A    
C256  Br24  S    
C59   C307  S    
C145  C147  S    
C129  C171  S    
C146  C148  S    
C197  C277  A    
C141  H159  S    
C334  C345  A    
C31   C68   A    
C233  H49   S    
C45   C58   A    
C196  H28   S    
C239  H55   S    
C233  C249  A    
O8    Zn12  S    
C297  O41   A    
C87   C135  S    
C51   C63   A    
C250  C266  A    
C298  O45   A    
C49   H105  S    
O40   Zn32  S    
C311  O67   A    
C44   H100  S    
C360  C368  S    
C310  O66   A    
C76   H122  S    
C168  O40   A    
O93   Zn21  S    
C316  C332  A    
C150  H152  S    
C141  C143  S    
C15   O23   A    
C88   H118  S    
O100  Zn28  S    
C131  C137  S    
C23   C71   S    
C162  O82   A    
C318  C353  A    
C319  H7    S    
C254  C270  A    
C161  O81   A    
C38   C54   A    
C267  C283  S    
C98   C130  S    
C196  C276  A    
C77   C79   S    
C128  C182  S    
C243  C259  A    
C314  C330  A    
C212  H44   S    
C80   Br8   S    
C241  C257  A    
C8    C113  S    
C74   C122  S    
C268  C284  S    
C146  H164  S    
C52   C64   A    
C105  C169  T    
C75   C123  S    
C80   C128  S    
C208  C224  A    
C245  H61   S    
C78   C126  S    
C197  C213  A    
C204  H36   S    
C242  H58   S    
C238  H54   S    
C54   H110  S    
C159  O79   A    
C163  O83   A    
C85   Br13  S    
C307  O59   A    
O49   Zn25  S    
C318  C334  A    
C255  Br23  S    
C257  C273  A    
C316  C356  A    
C11   O99   A    
C194  H26   S    
C313  H1    S    
C336  C347  A    
C153  C223  S    
C214  H46   S    
C303  O51   A    
O77   Zn5   S    
C14   O102  A    
C253  C269  A    
O95   Zn23  S    
C188  C204  A    
C154  O74   A    
O38   Zn30  S    
C81   Br9   S    
C224  C240  A    
O96   Zn24  S    
C275  C291  S    
C168  C226  S    
C133  C175  S    
C236  H52   S    
C49   C61   A    
C330  C346  A    
C32   C48   A    
C89   C121  S    
C44   C60   A    
C142  H160  S    
C263  C279  A    
C156  C222  S    
C157  O77   A    
C167  C225  S    
O44   Zn20  S    
O94   Zn22  S    
C78   C80   S    
C237  H53   S    
C299  O43   A    
C98   C100  S    
C1    O89   A    
C6    C115  S    
C298  O42   A    
C308  O60   A    
C161  O33   A    
C335  H71   S    
C141  H175  S    
C95   C127  S    
C166  C228  S    
C106  C170  T    
C29   C45   A    
C120  C184  T    
C97   H137  S    
C189  C205  A    
C51   H107  S    
C87   H117  S    
C82   H116  S    
C85   C133  S    
O89   Zn17  S    
C144  H158  S    
C18   C362  T    
O2    Zn5   S    
C323  C339  A    
C125  C183  S    
C195  H27   S    
C126  C184  S    
C317  C354  A    
C314  C354  A    
C235  C251  A    
O5    Zn14  S    
C193  H25   S    
C40   H96   S    
O30   Zn22  S    
C92   H132  S    
C74   H124  S    
C323  C359  A    
C93   H133  S    
C255  C271  A    
C256  C272  A    
C306  O58   A    
C152  H166  S    
C338  H74   S    
C215  C231  A    
C269  C285  S    
C143  H173  S    
C285  C288  T    
O101  Zn29  S    
C227  C243  A    
C286  C287  T    
C140  H154  S    
O74   Zn2   S    
C302  C348  S    
C193  C273  A    
C262  C278  A    
C354  C362  S    
C157  C219  S    
O78   Zn6   S    
C226  C242  A    
C84   Br12  S    
C225  C241  A    
C260  Br28  S    
C103  C135  S    
C82   C84   S    
C241  H57   S    
C200  C216  A    
C47   C60   A    
C81   C129  S    
C301  O49   A    
C243  H59   S    
C317  C333  A    
C159  C217  S    
C85   H119  S    
C90   C122  S    
C342  H78   S    
C39   C72   A    
C321  H9    S    
C82   C130  S    
C242  C258  A    
C124  C178  S    
C92   Br36  S    
C331  C347  A    
C187  C203  A    
C86   H120  S    
C17   C361  T    
C208  H40   S    
C84   H114  S    
C9    O97   A    
O39   Zn31  S    
C154  C224  S    
O90   Zn18  S    
O32   Zn24  S    
C323  H11   S    
C126  C152  S    
C34   H90   S    
C276  C292  S    
C31   H87   S    
C12   C109  S    
C28   H84   S    
C96   Br40  S    
C102  Br46  S    
O71   Zn12  S    
O37   Zn29  S    
C94   C126  S    
O87   Zn15  S    
C188  H20   S    
C150  H168  S    
O69   Zn10  S    
C133  C143  S    
C88   C136  S    
C130  C172  S    
C8    O16   A    
C14   O22   A    
C99   H139  S    
C25   C65   A    
C218  C234  A    
C168  O88   A    
C341  H77   S    
C138  H172  S    
O76   Zn4   S    
C155  O27   A    
C4    O12   A    
C114  C178  T    
C27   C43   A    
C134  C144  S    
C222  C238  A    
O8    Zn15  S    
C73   H123  S    
C334  H70   S    
C19   C363  T    
O51   Zn27  S    
C10   O98   A    
C195  C211  A    
C342  C349  A    
C60   C308  S    
C103  H143  S    
C53   C62   A    
C310  O69   A    
C193  C209  A    
C187  C267  A    
C55   C64   A    
C82   Br10  S    
C265  C281  S    
C56   C63   A    
O97   Zn25  S    
C57   C305  S    
O79   Zn7   S    
C138  C140  S    
O14   Zn1   S    
C327  C343  A    
C17   C65   S    
C197  H29   S    
C192  C208  A    
C313  C329  A    
C234  H50   S    
C5    C116  S    
C127  C181  S    
C150  C152  S    
C316  H4    S    
C63   C311  S    
O7    Zn11  S    
C239  C255  A    
C64   C312  S    
C103  Br47  S    
C325  C341  A    
C246  H62   S    
C86   Br14  S    
C83   Br11  S    
C344  H80   S    
C167  O39   A    
C191  C271  A    
C12   O100  A    
C5    O93   A    
C220  C236  A    
C148  H146  S    
C262  Br30  S    
C163  C229  S    
C36   C52   A    
C261  Br29  S    
C2    C119  S    
C192  H24   S    
O80   Zn8   S    
C155  O75   A    
O1    Zn6   S    
C272  C288  S    
C355  C363  S    
C73   C121  S    
C42   H98   S    
C99   C131  S    
C307  O64   A    
C100  Br44  S    
O5    Zn9   S    
C162  O34   A    
C201  C217  A    
O88   Zn16  S    
C329  C345  A    
O9    Zn6   S    
C58   C306  S    
C75   Br3   S    
O18   Zn13  S    
O98   Zn26  S    
O23   Zn12  S    
C297  C351  S    
C147  H161  S    
C209  H41   S    
C321  C337  A    
C205  C221  A    
O13   Zn2   S    
C240  C256  A    
C117  C181  T    
C39   H95   S    
O75   Zn3   S    
C162  C232  S    
C318  H6    S    
C340  H76   S    
C326  H14   S    
C139  H169  S    
C157  O29   A    
C202  H34   S    
C29   C66   A    
C240  H56   S    
O92   Zn20  S    
O6    Zn26  S    
C277  C293  S    
C158  C220  S    
O34   Zn26  S    
C314  H2    S    
C216  C232  A    
C211  C227  A    
C247  H63   S    
C299  O48   A    
C38   H94   S    
C149  H151  S    
C248  H64   S    
C115  C179  T    
C304  O52   A    
C102  H142  S    
O73   Zn1   S    
C16   O104  A    
