data_mof_unit_20796.cif
_audit_creation_date              2013-03-05T15:52:30-0500
_audit_creation_method            fapswitch 2.2
_symmetry_space_group_name_H-M    P1
_symmetry_Int_Tables_number       1
_space_group_crystal_system       triclinic
_cell_length_a                    27.748097
_cell_length_b                    10.859536
_cell_length_c                    9.596452
_cell_angle_alpha                 90.394897
_cell_angle_beta                  89.112318
_cell_angle_gamma                 93.011989
_cell_volume                      2887.3180906

loop_
_atom_site_label
_atom_site_type_symbol
_atom_site_description
_atom_site_fract_x
_atom_site_fract_y
_atom_site_fract_z
_atom_type_partial_charge
O1    O     O_R   0.500000 0.319640 0.618810 -0.606048
O2    O     O_R   0.500000 0.319660 0.381240 -0.578483
C1    C     C_R   0.503834 0.263329 0.499941 0.798896
O3    O     O_R   0.430260 0.500010 0.618770 -0.597092
O4    O     O_R   0.430270 0.500030 0.381200 -0.571358
C2    C     C_R   0.407747 0.504853 0.501029 0.805693
Cu1   Cu    Cu3+1 0.500000 0.499990 0.640660 0.902956
Cu2   Cu    Cu3+1 0.500000 0.500010 0.359340 0.925925
O5    O     O_R   0.500000 0.680340 0.618760 -0.616396
O6    O     O_R   0.500000 0.680360 0.381190 -0.593689
O7    O     O_R   0.569730 0.499970 0.618800 -0.600795
O8    O     O_R   0.569740 0.499990 0.381230 -0.596710
C3    C     C_R   0.497834 0.737704 0.501974 0.776935
C4    C     C_R   0.592507 0.499853 0.498972 0.776844
C5    C     C_R   0.175043 0.388247 0.516761 0.571083
O9    O     O_2   0.196989 0.288180 0.561765 -0.522833
N1    N     N_R   0.201874 0.493666 0.485368 -0.459272
C6    C     C_R   0.180939 0.596034 0.436478 0.607183
C7    C     C_R   0.277680 0.573113 0.594738 0.173022
C8    C     C_R   0.328790 0.585539 0.592501 0.020503
C9    C     C_R   0.329829 0.427946 0.409491 -0.263416
C10   C     C_R   0.279850 0.423943 0.405070 -0.125592
C11   C     C_R   0.253512 0.495462 0.497177 0.278828
C12   C     C_R   0.102051 0.490275 0.461991 -0.084138
C13   C     C_R   0.124840 0.383556 0.502270 -0.034723
C14   C     C_R   0.097549 0.272394 0.518811 -0.155987
C15   C     C_R   0.130182 0.599075 0.428563 -0.069034
C16   C     C_R   0.354820 0.507197 0.502471 -0.084663
H1    H     H_    0.349201 0.369030 0.338987 0.159123
H2    H     H_    0.261350 0.364573 0.329674 0.166952
H3    H     H_    0.115755 0.187748 0.534191 0.197986
C17   C     C_R   0.645521 0.497815 0.495584 -0.037490
C18   C     C_R   0.972896 0.387659 0.514299 0.036181
C19   C     C_R   0.976971 0.585911 0.393913 0.023499
C20   C     C_R   0.949502 0.487667 0.456361 0.070064
C21   C     C_R   0.945662 0.304147 0.599176 -0.205784
C22   C     C_R   0.895750 0.308150 0.609638 -0.136378
C23   C     C_R   0.871657 0.398721 0.539278 -0.003036
C24   C     C_R   0.898478 0.490316 0.463372 -0.082176
C25   C     C_R   0.874458 0.584581 0.395854 -0.074405
C26   C     C_R   0.823628 0.584457 0.409104 0.561441
N2    N     N_R   0.798397 0.492944 0.481080 -0.471479
C27   C     C_R   0.821278 0.401308 0.545821 0.540251
C28   C     C_R   0.720211 0.478489 0.364123 -0.102825
C29   C     C_R   0.670103 0.481461 0.368176 -0.219165
C30   C     C_R   0.672054 0.511458 0.618859 -0.242813
C31   C     C_R   0.722319 0.509321 0.614382 -0.098856
C32   C     C_R   0.746603 0.492782 0.486937 0.349857
O10   O     O_2   0.795243 0.312259 0.615297 -0.542933
C33   C     C_R   0.023336 0.379182 0.493489 0.023576
C34   C     C_R   0.051040 0.487411 0.454990 0.047579
C35   C     C_R   0.027910 0.591843 0.407403 0.032115
C36   C     C_R   0.047368 0.266763 0.503560 0.064158
H4    H     H_    0.650661 0.470411 0.271509 0.163999
H5    H     H_    0.738657 0.465448 0.265260 0.147171
H6    H     H_    0.876182 0.240789 0.674671 0.190029
H7    H     H_    0.962887 0.239838 0.664769 0.151366
O11   O     O_2   0.209608 0.693060 0.394632 -0.487396
C37   C     C_R   0.106313 0.705469 0.389136 0.220637
C38   C     C_R   0.952631 0.674843 0.320270 -0.252009
C39   C     C_R   0.902350 0.674153 0.318278 0.215226
O12   O     O_2   0.799246 0.675864 0.353986 -0.497813
C40   C     C_R   0.056225 0.700116 0.378495 -0.237763
H8    H     H_    0.972273 0.743360 0.257801 0.165782
H9    H     H_    0.654066 0.524596 0.718412 0.160074
H10   H     H_    0.742441 0.521352 0.709724 0.150175
H11   H     H_    0.039734 0.784591 0.353583 0.151895
H12   H     H_    0.493511 0.108776 0.281396 0.161165
C41   C     C_R   0.536867 0.126494 0.746685 -0.163177
H13   H     H_    0.555792 0.215906 0.740715 0.165885
C42   C     C_R   0.533790 0.070245 0.876564 -0.160261
H14   H     H_    0.548041 0.118090 0.967574 0.135801
C43   C     C_R   0.510793 0.954350 0.889688 -0.143958
H15   H     H_    0.505782 0.913112 0.991650 0.141802
C44   C     C_R   0.495501 0.889574 0.771054 -0.195073
H16   H     H_    0.475881 0.802920 0.789755 0.172624
C45   C     C_R   0.502738 0.940584 0.635814 0.089617
C46   C     C_R   0.516535 0.067067 0.627660 0.095591
C47   C     C_R   0.508565 0.129877 0.501678 -0.116132
C48   C     C_R   0.498599 0.062880 0.379576 -0.211089
H17   H     H_    0.489315 0.886637 0.284380 0.164534
C49   C     C_R   0.494758 0.935631 0.382086 -0.214534
C50   C     C_R   0.496574 0.872564 0.508533 -0.110239
H18   H     H_    0.444833 0.363808 0.135892 0.139553
C51   C     C_R   0.564889 0.662638 0.142097 -0.195084
H19   H     H_    0.567709 0.669938 0.251986 0.211294
C52   C     C_R   0.596414 0.743446 0.069724 -0.221910
H20   H     H_    0.620457 0.804370 0.129211 0.153127
C53   C     C_R   0.596567 0.745381 0.924733 0.106816
C54   C     C_R   0.564928 0.663118 0.854571 -0.203155
H21   H     H_    0.566635 0.671064 0.744659 0.205818
C55   C     C_R   0.532150 0.579603 0.924453 0.146434
C56   C     C_R   0.532024 0.579703 0.073731 0.196273
N3    N     N_R   0.500460 0.501210 0.147910 -0.207072
C57   C     C_R   0.469453 0.424980 0.077017 -0.077186
C58   C     C_R   0.468255 0.425408 0.929550 0.176599
N4    N     N_R   0.500480 0.501290 0.852040 -0.210971
I1    I     I_    0.235712 0.666440 0.747898 -0.320429
I2    I     I_    0.139536 0.884086 0.349926 -0.277966
I3    I     I_    0.874615 0.810785 0.186795 -0.321278
C59   C     C_3   0.629117 0.833419 0.838542 -0.395698
C60   C     C_3   0.656434 0.935884 0.921275 -0.362629
C61   C     C_3   0.683531 0.026912 0.823812 -0.762214
H22   H     H_    0.709891 0.978554 0.757749 0.266838
H23   H     H_    0.657796 0.072463 0.755935 0.249025
H24   H     H_    0.703397 0.098941 0.886233 0.250794
H25   H     H_    0.630553 0.987292 0.985944 0.221145
H26   H     H_    0.682957 0.894745 0.990441 0.233367
H27   H     H_    0.655562 0.778704 0.779929 0.196163
H28   H     H_    0.606416 0.877886 0.760816 0.212198
C62   C     C_3   0.429368 0.340065 0.866444 -0.372009
C63   C     C_3   0.378872 0.387342 0.894768 -0.392468
C64   C     C_3   0.339923 0.306317 0.822970 -0.768857
H29   H     H_    0.346477 0.304550 0.708542 0.253624
H30   H     H_    0.339620 0.210674 0.863416 0.252428
H31   H     H_    0.304030 0.343880 0.843671 0.264817
H32   H     H_    0.370883 0.388137 0.008597 0.213758
H33   H     H_    0.377381 0.483200 0.856176 0.241568
H34   H     H_    0.433772 0.326065 0.754616 0.265182
H35   H     H_    0.431437 0.246838 0.912690 0.167646
C65   C     C_3   0.023607 0.141638 0.464478 -0.400380
C66   C     C_3   0.000803 0.145941 0.319638 -0.323015
C67   C     C_3   0.986460 0.017270 0.265604 -0.803648
H36   H     H_    0.019212 0.965581 0.244001 0.252931
H37   H     H_    0.962974 0.966730 0.343199 0.268920
H38   H     H_    0.966465 0.024406 0.166916 0.264526
H39   H     H_    0.968033 0.200309 0.324403 0.234030
H40   H     H_    0.026855 0.190936 0.244173 0.232649
H41   H     H_    0.051090 0.070632 0.460907 0.218451
H42   H     H_    0.996712 0.106869 0.542544 0.194052
C68   C     C_3   0.353779 0.690504 0.674431 -0.426620
C69   C     C_3   0.347497 0.814594 0.602319 -0.302553
C70   C     C_3   0.361711 0.923387 0.697256 -0.814111
H43   H     H_    0.337866 0.923068 0.791396 0.269784
H44   H     H_    0.399674 0.918695 0.729887 0.249802
H45   H     H_    0.357993 0.011144 0.640558 0.248558
H46   H     H_    0.370395 0.819620 0.506138 0.212360
H47   H     H_    0.309424 0.823256 0.571224 0.269705
H48   H     H_    0.339129 0.691553 0.782693 0.224820
H49   H     H_    0.392920 0.680229 0.685304 0.207190

loop_
_geom_bond_atom_site_label_1
_geom_bond_atom_site_label_2
_geom_bond_distance
_ccdc_geom_bond_type
H12   C48   1.083533 S    
C52   H20   1.081167 S    
C26   N2    1.369753 A    
C59   C60   1.536511 S    
C37   I2    2.136640 S    
C17   C29   1.405557 A    
C20   C24   1.418179 A    
C57   C58   1.416116 A    
C12   C15   1.417310 A    
C65   H42   1.103505 S    
C1    C47   1.462248 S    
H17   C49   1.083559 S    
C67   H36   1.109109 S    
C45   C46   1.408755 A    
C19   C35   1.419426 A    
Cu1   O7    1.942991 S    
C56   N3    1.382387 A    
C21   C22   1.389996 A    
O4    C2    1.302306 A    
O7    C4    1.303577 A    
C67   H37   1.110593 S    
C45   C50   1.430936 A    
C59   H27   1.111892 S    
C5    O9    1.349959 S    
C18   C21   1.405713 A    
C62   H34   1.088731 S    
C19   C20   1.409796 A    
C43   H15   1.082848 S    
C66   H39   1.110081 S    
C41   C42   1.391257 A    
O5    C3    1.289710 A    
C68   H49   1.104224 S    
C60   C61   1.526491 S    
C22   H6    1.083264 S    
C51   C56   1.413261 A    
C6    O11   1.346171 S    
C2    C16   1.470022 S    
C62   C63   1.537082 S    
C69   C70   1.526021 S    
C70   H45   1.110913 S    
C60   H26   1.111578 S    
C10   H2    1.083039 S    
C31   H10   1.082812 S    
C64   H31   1.110506 S    
C12   C34   1.416768 A    
C14   H3    1.083958 S    
C9    C10   1.386519 A    
C19   C38   1.407472 A    
C43   C44   1.394108 A    
C41   C46   1.418091 A    
N3    C57   1.350518 A    
C26   O12   1.345989 S    
O3    Cu1   1.949767 S    
C63   C64   1.527011 S    
C7    I1    2.143373 S    
C55   N4    1.382252 A    
N1    C6    1.370001 A    
C51   C52   1.388006 A    
C23   C24   1.410405 A    
C58   C62   1.515729 S    
C40   H11   1.076390 S    
C33   C36   1.426038 A    
C34   C35   1.413983 A    
Cu1   Cu2   2.699675 S    
Cu2   N3    2.028948 S    
C12   C13   1.408241 A    
C30   H9    1.083057 S    
C48   C49   1.380721 A    
C21   H7    1.078354 S    
C4    C17   1.472236 S    
C24   C25   1.416392 A    
C42   C43   1.386485 A    
C46   C47   1.418201 A    
C27   O10   1.349859 S    
C67   H38   1.110211 S    
N2    C32   1.437314 S    
C8    C16   1.423746 A    
C18   C33   1.418413 A    
C51   H19   1.060767 S    
C9    H1    1.083963 S    
O6    C3    1.314053 A    
C25   C39   1.418583 A    
C38   C39   1.395255 A    
O1    C1    1.296138 A    
H18   C57   1.082932 S    
C7    C11   1.409420 A    
C44   H16   1.076835 S    
C22   C23   1.400882 A    
C54   C55   1.415038 A    
C31   C32   1.402234 A    
Cu2   O8    1.949762 S    
C58   N4    1.393660 A    
C33   C34   1.418133 A    
C60   H25   1.111777 S    
C61   H23   1.111263 S    
N1    C11   1.438167 S    
C44   C45   1.421861 A    
C65   C66   1.538120 S    
O3    C2    1.302234 A    
C25   C26   1.414145 A    
C9    C16   1.401289 A    
O8    C4    1.303083 A    
C29   H4    1.083116 S    
C52   C53   1.391638 A    
C70   H43   1.111416 S    
C39   I3    2.135841 S    
N2    C27   1.366196 A    
C8    C68   1.523082 S    
C68   C69   1.538333 S    
C53   C54   1.396337 A    
C14   C36   1.400443 A    
C28   C29   1.392406 A    
C64   H29   1.110472 S    
C5    N1    1.365247 A    
C30   C31   1.396142 A    
Cu1   N4    2.028696 S    
C53   C59   1.520174 S    
O1    Cu1   1.968272 S    
C17   C30   1.405917 A    
O2    Cu2   1.971201 S    
C6    C15   1.413738 A    
C59   H28   1.112589 S    
C65   H41   1.112637 S    
C35   C40   1.406209 A    
O4    Cu2   1.942994 S    
C3    C50   1.467669 S    
C37   C40   1.393311 A    
C38   H8    1.078639 S    
C7    C8    1.417386 A    
O2    C1    1.305105 A    
C13   C14   1.399552 A    
C42   H14   1.082574 S    
C36   C65   1.525836 S    
C63   H33   1.110312 S    
C28   H5    1.082973 S    
C54   H21   1.059012 S    
C63   H32   1.111312 S    
C55   C56   1.432482 A    
C18   C20   1.415479 A    
C61   H24   1.110399 S    
C66   H40   1.112355 S    
C41   H13   1.080776 S    
C68   H48   1.109957 S    
C47   C48   1.398551 A    
Cu1   O5    1.971201 S    
C23   C27   1.400118 A    
C5    C13   1.400331 A    
Cu2   O6    1.968272 S    
C49   C50   1.400360 A    
C61   H22   1.110898 S    
C70   H44   1.107409 S    
C10   C11   1.395985 A    
C62   H35   1.112787 S    
C15   C37   1.418087 A    
C69   H46   1.112434 S    
C66   C67   1.522402 S    
C69   H47   1.111111 S    
C28   C32   1.400621 A    
C64   H30   1.110871 S    
