data_mof_unit_43702.cif
_audit_creation_date              2012-12-10T16:55:01-0500
_audit_creation_method            fapswitch 2.2
_symmetry_space_group_name_H-M    P1
_symmetry_Int_Tables_number       1
_space_group_crystal_system       triclinic
_cell_length_a                    7.770723
_cell_length_b                    8.574774
_cell_length_c                    15.726034
_cell_angle_alpha                 90.824508
_cell_angle_beta                  85.839619
_cell_angle_gamma                 93.633026
_cell_volume                      1042.94816332

loop_
_atom_site_label
_atom_site_type_symbol
_atom_type_description
_atom_site_fract_x
_atom_site_fract_y
_atom_site_fract_z
_atom_type_partial_charge
C1    C     C_R   0.545775 0.794731 0.497813 0.961780
C2    C     C_2   0.430127 0.041790 0.503446 -0.379635
C3    C     C_R   0.501995 0.499893 0.661577 0.904664
C4    C     C_R   0.454225 0.205269 0.502192 0.962032
C5    C     C_R   0.498024 0.500059 0.338422 0.903482
C6    C     C_3   0.377630 0.616089 0.954456 -0.471328
C7    C     C_3   0.687900 0.547614 0.945298 -0.450563
C8    C     C_3   0.686528 0.543355 0.043969 -0.038832
C9    C     C_1   0.494179 0.500519 0.249706 -0.177837
C10   C     C_3   0.505552 0.496895 0.917069 0.338134
C11   C     C_3   0.371142 0.615455 0.052717 -0.408911
C12   C     C_3   0.499233 0.499820 0.082730 0.338621
C13   C     C_3   0.443144 0.333699 0.050890 -0.511118
C14   C     C_3   0.444580 0.331651 0.952081 -0.033817
C15   C     C_1   0.494706 0.500474 0.174369 -0.074422
C16   C     C_1   0.507099 0.497561 0.825536 -0.075460
C17   C     C_1   0.506106 0.498569 0.750269 -0.178678
C18   C     C_2   0.569874 0.958210 0.496569 -0.378442
H1    H     H_    0.401666 0.735521 0.077255 0.174346
H2    H     H_    0.786061 0.469860 0.916546 0.159241
H3    H     H_    0.727209 0.666948 0.921097 0.167363
H4    H     H_    0.770886 0.449968 0.061254 0.136687
H5    H     H_    0.309509 0.304402 0.934323 0.143773
H6    H     H_    0.310517 0.298462 0.078420 0.167240
H7    H     H_    0.888484 0.705725 0.058290 0.176490
H8    H     H_    0.697018 0.785241 0.054706 0.188580
H9    H     H_    0.492515 0.100830 0.931654 0.175117
H10   H     H_    0.672775 0.217449 0.939163 0.185579
H11   H     H_    0.245747 0.586379 0.933250 0.169393
H12   H     H_    0.237286 0.580108 0.078480 0.170228
H13   H     H_    0.530248 0.247294 0.073541 0.166686
H14   H     H_    0.701866 0.009254 0.490012 0.180748
H15   H     H_    0.298136 0.990746 0.510004 0.180591
H16   H     H_    0.013451 0.381958 0.436580 0.191915
H17   H     H_    0.986548 0.618041 0.563420 0.191841
H18   H     H_    0.418387 0.735718 0.931102 0.177098
N1    N     N_2   0.950340 0.457950 0.477370 -0.172524
N2    N     N_2   0.049660 0.542050 0.522630 -0.172683
N3    N     N_3   0.757452 0.691648 0.078943 -0.461024
N4    N     N_3   0.551502 0.209829 0.914118 -0.462257
O1    O     O_R   0.389240 0.738570 0.505550 -0.613177
O2    O     O_R   0.678400 0.711630 0.491050 -0.630568
O3    O     O_R   0.355360 0.513470 0.630110 -0.614221
O4    O     O_R   0.644510 0.486530 0.615610 -0.620450
O5    O     O_R   0.321600 0.288370 0.508950 -0.630887
O6    O     O_R   0.610760 0.261430 0.494450 -0.613058
O7    O     O_R   0.355490 0.513470 0.384390 -0.623083
O8    O     O_R   0.644640 0.486530 0.369890 -0.610352
Zn1   Zn    Zn3+2 0.306930 0.517990 0.509680 0.944638
Zn2   Zn    Zn3+2 0.693070 0.482010 0.490320 0.947063

loop_
_geom_bond_atom_site_label_1
_geom_bond_atom_site_label_2
_ccdc_geom_bond_type
C14   H5    S    
C6    C10   S    
C7    C10   S    
C8    H4    S    
C11   C12   S    
C5    C9    S    
N1    N2    D    
C8    N3    S    
C2    C18   D    
H16   N1    S    
O6    Zn2   S    
C2    C4    S    
C12   C15   S    
O5    Zn1   S    
H9    N4    S    
C8    C12   S    
C3    O3    A    
H17   N2    S    
O8    Zn2   S    
C9    C15   T    
C7    C8    S    
O7    Zn1   S    
N2    Zn1   S    
C4    O6    A    
C13   C14   S    
H7    N3    S    
N1    Zn2   S    
C5    O7    A    
C11   H1    S    
C1    C18   S    
O2    Zn2   S    
C2    H15   S    
O1    Zn1   S    
C6    H18   S    
C3    C17   S    
C4    O5    A    
H8    N3    S    
C5    O8    A    
C3    O4    A    
C18   H14   S    
H10   N4    S    
C14   N4    S    
C1    O2    A    
C6    H11   S    
C12   C13   S    
C13   H6    S    
C7    H2    S    
C10   C14   S    
O4    Zn2   S    
C6    C11   S    
O3    Zn1   S    
C10   C16   S    
C7    H3    S    
C13   H13   S    
C1    O1    A    
C11   H12   S    
C16   C17   T    
