data_mof_unit_9461.cif
_audit_creation_date              2012-12-11T15:18:34-0500
_audit_creation_method            fapswitch 2.2
_symmetry_space_group_name_H-M    P1
_symmetry_Int_Tables_number       1
_space_group_crystal_system       triclinic
_cell_length_a                    6.93126
_cell_length_b                    19.925073
_cell_length_c                    23.910206
_cell_angle_alpha                 93.504003
_cell_angle_beta                  90.803407
_cell_angle_gamma                 88.516989
_cell_volume                      3294.60626441

loop_
_atom_site_label
_atom_site_type_symbol
_atom_type_description
_atom_site_fract_x
_atom_site_fract_y
_atom_site_fract_z
_atom_type_partial_charge
O1    O     O_R   0.620100 0.812200 0.810870 -0.547467
O2    O     O_R   0.379900 0.187800 0.189130 -0.524029
O3    O     O_R   0.296960 0.671650 0.794750 -0.515444
O4    O     O_R   0.703040 0.328350 0.205250 -0.537826
O5    O     O_R   0.120160 0.687800 0.689130 -0.496656
O6    O     O_R   0.879840 0.312200 0.310870 -0.496597
C1    C     C_R   0.468557 0.646589 0.804209 0.754221
C2    C     C_R   0.531930 0.352833 0.195247 0.787903
O7    O     O_R   0.290810 0.810670 0.817290 -0.554273
O8    O     O_R   0.709190 0.189330 0.182710 -0.568682
O9    O     O_R   0.113980 0.827820 0.711840 -0.534328
O10   O     O_R   0.886020 0.172180 0.288160 -0.536155
C3    C     C_R   0.458864 0.831639 0.834350 0.689316
C4    C     C_R   0.541436 0.167956 0.165981 0.716417
O11   O     O_R   0.626290 0.672180 0.788160 -0.554029
O12   O     O_R   0.373710 0.327820 0.211840 -0.540237
O13   O     O_3   0.451520 0.755460 0.715370 -0.354102
O14   O     O_3   0.548480 0.244540 0.284630 -0.356013
V1    V     V_3+5 0.179200 0.748980 0.756420 1.517873
V2    V     V_3+5 0.820800 0.251020 0.243580 1.512196
O15   O     O_R   0.783880 0.828350 0.705250 -0.544464
O16   O     O_R   0.216120 0.171650 0.294750 -0.548074
C5    C     C_R   0.950317 0.852685 0.695017 0.813634
C6    C     C_R   0.049684 0.147311 0.304978 0.808445
O17   O     O_R   0.790030 0.689320 0.682700 -0.549960
O18   O     O_R   0.209970 0.310680 0.317300 -0.540777
C7    C     C_R   0.959820 0.667501 0.666125 0.795486
C8    C     C_R   0.040117 0.332340 0.333984 0.805277
V3    V     V_3+5 0.678400 0.751010 0.743570 1.471103
V4    V     V_3+5 0.321600 0.248990 0.256430 1.523567
O19   O     O_3   0.955950 0.744540 0.784620 -0.388701
O20   O     O_3   0.044050 0.255460 0.215380 -0.386287
C9    C     C_R   0.865666 0.426485 0.389727 0.591414
C10   C     C_R   0.133108 0.572405 0.611311 0.551839
C11   C     C_R   0.027153 0.382151 0.383030 -0.208827
C12   C     C_R   0.972760 0.617340 0.617299 -0.167167
C13   C     C_R   0.176096 0.385484 0.423350 -0.230045
C14   C     C_R   0.825222 0.614353 0.576617 -0.277581
C15   C     C_R   0.164601 0.431267 0.470273 0.027137
C16   C     C_R   0.836459 0.568103 0.530046 0.086723
C17   C     C_R   0.004651 0.476152 0.476750 -0.047365
C18   C     C_R   0.996236 0.522960 0.523931 -0.006258
C19   C     C_R   0.854023 0.474474 0.435917 -0.012084
C20   C     C_R   0.146900 0.524564 0.564886 -0.055166
C21   C     C_R   0.312406 0.432738 0.510681 -0.119955
C22   C     C_R   0.689539 0.566908 0.489285 -0.224823
C23   C     C_R   0.305527 0.478016 0.557695 0.196902
C24   C     C_R   0.697107 0.521218 0.442328 0.220143
H1    H     H_    0.300330 0.351488 0.418679 0.175289
H2    H     H_    0.701895 0.648817 0.580848 0.170762
H3    H     H_    0.435388 0.398195 0.505812 0.156063
H4    H     H_    0.567581 0.601954 0.493648 0.134453
C25   C     C_R   0.951591 0.913673 0.663098 -0.232610
C26   C     C_R   0.048409 0.086319 0.336893 -0.232603
C27   C     C_R   0.914490 0.034341 0.662389 0.682863
C28   C     C_R   0.085522 0.965650 0.337599 0.679895
C29   C     C_R   0.911032 0.975733 0.690942 -0.337334
C30   C     C_R   0.088980 0.024261 0.309048 -0.337377
C31   C     C_R   0.989390 0.909776 0.605240 0.550372
C32   C     C_R   0.010597 0.090211 0.394750 0.550067
C33   C     C_R   0.978015 0.968771 0.573676 -0.101112
C34   C     C_R   0.021985 0.031216 0.426312 -0.100812
C35   C     C_R   0.949851 0.031571 0.604459 -0.083069
C36   C     C_R   0.050158 0.968417 0.395528 -0.079733
C37   C     C_R   0.996603 0.968723 0.513528 0.106127
C38   C     C_R   0.003401 0.031262 0.486459 0.104189
C39   C     C_R   0.996683 0.091384 0.520740 -0.135757
C40   C     C_R   0.003334 0.908601 0.479247 -0.138203
C41   C     C_R   0.962963 0.091492 0.577716 -0.116638
C42   C     C_R   0.037056 0.908496 0.422271 -0.122597
H5    H     H_    0.952312 0.139596 0.601372 0.199633
H6    H     H_    0.047718 0.860392 0.398614 0.195023
H7    H     H_    0.118428 0.021097 0.264546 0.188720
H8    H     H_    0.881591 0.978899 0.735444 0.188280
H9    H     H_    0.021287 0.139890 0.505430 0.215219
H10   H     H_    0.978746 0.860095 0.494557 0.213214
C43   C     C_R   0.490544 0.584592 0.835226 -0.095827
C44   C     C_R   0.517951 0.414126 0.163427 -0.095564
C45   C     C_R   0.606407 0.469125 0.837905 -0.039747
C46   C     C_R   0.516013 0.535507 0.163145 -0.154541
C47   C     C_R   0.575868 0.526466 0.808444 0.109979
C48   C     C_R   0.526050 0.477157 0.192534 0.111824
C49   C     C_R   0.440663 0.584734 0.892460 0.136788
C50   C     C_R   0.499661 0.409716 0.104179 0.099751
C51   C     C_R   0.500325 0.529104 0.925018 0.008208
C52   C     C_R   0.510903 0.469092 0.073400 0.052813
C53   C     C_R   0.571311 0.469727 0.895471 -0.093679
C54   C     C_R   0.508665 0.532261 0.104389 -0.072074
C55   C     C_R   0.498526 0.529995 0.985304 -0.047243
C56   C     C_R   0.525277 0.468739 0.013344 -0.009793
C57   C     C_R   0.588874 0.411038 0.981190 -0.171099
C58   C     C_R   0.497570 0.590788 0.018479 -0.249780
C59   C     C_R   0.613748 0.411689 0.923808 0.617379
C60   C     C_R   0.503827 0.592048 0.076561 0.645946
H11   H     H_    0.665237 0.424344 0.815626 0.213913
H12   H     H_    0.517765 0.583687 0.186769 0.198581
H13   H     H_    0.639532 0.366062 0.000020 0.191731
H14   H     H_    0.508327 0.638577 0.000324 0.168022
C61   C     C_R   0.671852 0.065256 0.109935 0.127896
C62   C     C_R   0.328441 0.933987 0.890776 0.158653
C63   C     C_R   0.533048 0.118715 0.116574 -0.141539
C64   C     C_R   0.467501 0.880475 0.884125 -0.185440
C65   C     C_R   0.381793 0.124205 0.076787 0.175309
C66   C     C_R   0.616863 0.874578 0.924875 0.171209
C67   C     C_R   0.366238 0.075964 0.031045 0.026564
C68   C     C_R   0.630743 0.922695 0.970419 0.070427
C69   C     C_R   0.506083 0.023290 0.023939 -0.058894
C70   C     C_R   0.491559 0.975484 0.977327 -0.081642
C71   C     C_R   0.660430 0.018230 0.063173 -0.001122
C72   C     C_R   0.338188 0.980641 0.937878 -0.002964
C73   C     C_R   0.213092 0.079435 0.992117 -0.237717
C74   C     C_R   0.783817 0.918981 0.009261 -0.196837
C75   C     C_R   0.198329 0.032917 0.946560 0.677440
C76   C     C_R   0.799682 0.965715 0.054600 0.650773
H15   H     H_    0.101480 0.118284 0.996348 0.160456
H16   H     H_    0.894789 0.879838 0.004695 0.195096
F1    F     F_    0.721569 0.423052 0.350686 -0.654723
F2    F     F_    0.272339 0.575189 0.651705 -0.732678
F3    F     F_    0.684381 0.354998 0.895960 -0.650635
F4    F     F_    0.507535 0.652718 0.105752 -0.650658
N1    N     N_3   0.450404 0.346395 0.076509 -0.671709
H17   H     H_    0.320357 0.331226 0.092763 0.246689
H18   H     H_    0.557808 0.310605 0.085343 0.214686
N2    N     N_3   0.310558 0.637435 0.913463 -0.663099
H19   H     H_    0.228405 0.622170 0.946488 0.257437
H20   H     H_    0.388113 0.680482 0.925052 0.213707
N3    N     N_3   0.540447 0.482009 0.252465 -0.582558
H21   H     H_    0.664098 0.508820 0.263852 0.265676
H22   H     H_    0.420816 0.509881 0.267989 0.243971
N4    N     N_3   0.626958 0.523468 0.750432 -0.642146
H23   H     H_    0.505436 0.536924 0.726959 0.280803
H24   H     H_    0.734710 0.558079 0.744915 0.241096
N5    N     N_3   0.819740 0.056334 0.151769 -0.549818
H25   H     H_    0.916765 0.095511 0.151265 0.236936
H26   H     H_    0.756734 0.055993 0.191229 0.228154
N6    N     N_3   0.181449 0.943246 0.848744 -0.550715
H27   H     H_    0.083702 0.904266 0.849108 0.236123
H28   H     H_    0.245062 0.943637 0.809372 0.228975
N7    N     N_3   0.247669 0.180354 0.082751 -0.666852
H29   H     H_    0.108714 0.162422 0.087252 0.230440
H30   H     H_    0.252090 0.207646 0.046830 0.242785
N8    N     N_3   0.752716 0.818717 0.921751 -0.662915
H31   H     H_    0.678268 0.773780 0.916048 0.226365
H32   H     H_    0.845589 0.823642 0.888326 0.249725
F5    F     F_    0.043987 0.039702 0.911574 -0.636696
F6    F     F_    0.954391 0.958931 0.089445 -0.633641
N9    N     N_3   0.462089 0.474343 0.597244 -0.627544
H33   H     H_    0.407823 0.462895 0.635995 0.291266
H34   H     H_    0.530372 0.520526 0.600856 0.281156
N10   N     N_3   0.546594 0.524021 0.400752 -0.571302
H35   H     H_    0.414417 0.518930 0.420312 0.232225
H36   H     H_    0.546191 0.571695 0.384733 0.229023
F7    F     F_    0.952200 0.151198 0.417520 -0.713180
F8    F     F_    0.047758 0.848786 0.582470 -0.714486
F9    F     F_    0.882713 0.094150 0.691633 -0.634474
F10   F     F_    0.117308 0.905843 0.308353 -0.639209

loop_
_geom_bond_atom_site_label_1
_geom_bond_atom_site_label_2
_ccdc_geom_bond_type
C10   F2    S    
V4    O20   S    
C62   C72   A    
C24   N10   S    
C69   C71   A    
C17   C18   A    
N4    H24   S    
N9    H33   S    
O4    C2    A    
V1    O19   S    
C74   C76   A    
C25   C31   A    
C58   H14   S    
C15   C17   A    
C68   C74   A    
C27   F9    S    
C67   C69   A    
O9    V1    S    
O16   C6    A    
C11   C13   A    
C50   C52   A    
O3    C1    A    
V2    O20   S    
C52   C54   A    
C43   C49   A    
C6    C26   S    
C61   C71   A    
C22   H4    S    
O13   V3    S    
C61   N5    S    
C32   C34   A    
C75   F5    S    
C41   H5    S    
O7    C3    A    
C32   F7    S    
C34   C36   A    
O13   V1    S    
O5    C7    A    
C60   F4    S    
O7    V1    S    
O6    C8    A    
C73   C75   A    
C35   C41   A    
C8    C11   S    
O8    V2    S    
C27   C35   A    
C69   C70   A    
C28   C36   A    
O3    V1    S    
O14   V4    S    
C36   C42   A    
C49   N2    S    
C46   H12   S    
C19   C24   A    
C10   C12   A    
C20   C23   A    
C28   F10   S    
C15   C21   A    
C51   C53   A    
C38   C39   A    
C67   C73   A    
C2    O12   A    
C46   C54   A    
C2    C44   S    
C17   C19   A    
C18   C20   A    
C66   N8    S    
C45   C53   A    
C31   F8    S    
O11   V3    S    
C22   C24   A    
C21   C23   A    
O17   V3    S    
C9    F1    S    
C23   N9    S    
C31   C33   A    
C34   C38   A    
C9    C19   A    
C10   C20   A    
C76   F6    S    
C46   C48   A    
C52   C56   A    
C45   C47   A    
C25   C29   A    
N6    H27   S    
C4    C63   S    
C26   C32   A    
C1    O11   A    
C50   N1    S    
O15   V3    S    
C39   C41   A    
C29   H8    S    
C16   C22   A    
N3    H22   S    
C45   H11   S    
C65   N7    S    
C57   C59   A    
C13   H1    S    
C44   C48   A    
C43   C47   A    
V3    O19   S    
C37   C40   A    
O10   V2    S    
C62   C64   A    
C65   C67   A    
C40   H10   S    
C57   H13   S    
C55   C58   A    
C64   C66   A    
C72   C75   A    
N1    H17   S    
C71   C76   A    
O5    V1    S    
C40   C42   A    
C49   C51   A    
O18   V4    S    
C27   C29   A    
O8    C4    A    
N5    H25   S    
N10   H36   S    
C39   H9    S    
O1    V3    S    
C56   C57   A    
N3    H21   S    
C74   H16   S    
N8    H32   S    
N6    H28   S    
N2    H20   S    
C26   C30   A    
C51   C55   A    
O16   V4    S    
C61   C63   A    
N10   H35   S    
C33   C35   A    
C16   C18   A    
C42   H6    S    
N7    H29   S    
C70   C72   A    
C66   C68   A    
C14   H2    S    
C7    C12   S    
O17   C7    A    
O6    V2    S    
O10   C6    A    
O18   C8    A    
C1    C43   S    
O2    V4    S    
O15   C5    A    
N4    H23   S    
C55   C56   A    
C13   C15   A    
C12   C14   A    
C14   C16   A    
N7    H30   S    
C58   C60   A    
C68   C70   A    
C53   C59   A    
C5    C25   S    
O9    C5    A    
C9    C11   A    
C28   C30   A    
O14   V2    S    
C33   C37   A    
N9    H34   S    
O2    C4    A    
C48   N3    S    
N1    H18   S    
C47   N4    S    
O4    V2    S    
C44   C50   A    
O1    C3    A    
C63   C65   A    
C37   C38   A    
N5    H26   S    
C54   C60   A    
C21   H3    S    
N8    H31   S    
C73   H15   S    
C59   F3    S    
C3    C64   S    
O12   V4    S    
C62   N6    S    
C30   H7    S    
N2    H19   S    
