data_mof_unit_67411.cif
_audit_creation_date              2012-10-26T19:39:09-0400
_audit_creation_method            fapswitch 2.2
_symmetry_space_group_name_H-M    P1
_symmetry_Int_Tables_number       1
_space_group_crystal_system       triclinic
_cell_length_a                    12.056355
_cell_length_b                    12.591877
_cell_length_c                    7.508374
_cell_angle_alpha                 90.31816
_cell_angle_beta                  108.694685
_cell_angle_gamma                 89.995726
_cell_volume                      1079.70480402

loop_
_atom_site_label
_atom_site_type_symbol
_atom_type_description
_atom_site_fract_x
_atom_site_fract_y
_atom_site_fract_z
_atom_type_partial_charge
C1    C     C_R   0.346718 0.853305 0.452663 0.549433
C2    C     C_2   0.741483 0.774222 0.573995 0.319314
C3    C     C_2   0.744385 0.223462 0.573749 0.310353
C4    C     C_2   0.255616 0.776537 0.426250 0.310349
C5    C     C_2   0.758517 0.725777 0.426005 0.319315
C6    C     C_2   0.241483 0.274222 0.573995 0.319313
C7    C     C_2   0.244384 0.723463 0.573750 0.310352
C8    C     C_2   0.755615 0.276538 0.426251 0.310351
C9    C     C_3   0.261846 0.979128 0.926931 0.095223
C10   C     C_3   0.155460 0.996035 0.753581 -0.354081
C11   C     C_3   0.738153 0.020874 0.073077 0.095218
C12   C     C_R   0.653282 0.146695 0.547337 0.549432
C13   C     C_3   0.844541 0.003954 0.246420 -0.354082
C14   C     C_3   0.761846 0.479129 0.926923 0.095219
C15   C     C_3   0.655461 0.496047 0.753577 -0.354084
C16   C     C_3   0.238153 0.520872 0.073078 0.095219
C17   C     C_3   0.344540 0.503950 0.246423 -0.354081
C18   C     C_R   0.652922 0.853172 0.546993 0.546960
C19   C     C_R   0.347078 0.146828 0.453007 0.546962
C20   C     C_R   0.846718 0.353305 0.452663 0.549433
C21   C     C_R   0.153282 0.646695 0.547337 0.549431
C22   C     C_R   0.152922 0.353172 0.546993 0.546960
C23   C     C_R   0.847078 0.646828 0.453007 0.546960
C24   C     C_2   0.258517 0.225777 0.426005 0.319314
Cu1   Cu    Cu3+1 0.517640 0.000000 0.687200 1.157355
Cu2   Cu    Cu3+1 0.482360 0.000000 0.312800 1.157348
Cu3   Cu    Cu3+1 0.017640 0.500000 0.687200 1.157352
Cu4   Cu    Cu3+1 0.982360 0.500000 0.312800 1.157350
F1    F     F_    0.692020 0.746843 0.245414 -0.594365
F2    F     F_    0.307979 0.253157 0.754586 -0.594367
F3    F     F_    0.321084 0.735516 0.750932 -0.656114
F4    F     F_    0.678912 0.264487 0.249070 -0.656120
F5    F     F_    0.192020 0.246843 0.245414 -0.594365
F6    F     F_    0.807980 0.753157 0.754586 -0.594365
F7    F     F_    0.821087 0.235513 0.750930 -0.656116
F8    F     F_    0.178915 0.764485 0.249069 -0.656120
H1    H     H_    0.238908 0.007096 0.050777 0.184597
H2    H     H_    0.825073 0.030151 0.374691 0.138507
H3    H     H_    0.738910 0.507085 0.050777 0.184595
H4    H     H_    0.781016 0.392495 0.939123 0.206560
H5    H     H_    0.674932 0.469850 0.625309 0.138509
H6    H     H_    0.580158 0.449314 0.765907 0.130488
H7    H     H_    0.631290 0.581456 0.739979 0.193921
H8    H     H_    0.218983 0.607506 0.060885 0.206562
H9    H     H_    0.261088 0.492919 0.949221 0.184593
H10   H     H_    0.368711 0.418541 0.260014 0.193924
H11   H     H_    0.419841 0.550683 0.234093 0.130486
H12   H     H_    0.281016 0.892494 0.939150 0.206566
H13   H     H_    0.325070 0.530143 0.374694 0.138507
H14   H     H_    0.174924 0.969806 0.625325 0.138503
H15   H     H_    0.080150 0.949322 0.765938 0.130498
H16   H     H_    0.131303 0.081445 0.739940 0.193915
H17   H     H_    0.718982 0.107509 0.060881 0.206562
H18   H     H_    0.761087 0.992919 0.949219 0.184594
H19   H     H_    0.868711 0.918546 0.260018 0.193922
H20   H     H_    0.919842 0.050684 0.234087 0.130489
N1    N     N_2   0.455760 0.000000 0.031460 0.110591
N2    N     N_2   0.544240 0.000000 0.968540 0.110590
N3    N     N_2   0.955760 0.500000 0.031460 0.110588
N4    N     N_2   0.044240 0.500000 0.968540 0.110588
O1    O     O_R   0.398880 0.887420 0.621600 -0.471827
O2    O     O_R   0.630920 0.112580 0.694560 -0.532114
O3    O     O_R   0.630920 0.887420 0.694560 -0.481112
O4    O     O_R   0.369080 0.112580 0.305440 -0.481118
O5    O     O_R   0.869080 0.387420 0.305440 -0.532111
O6    O     O_R   0.130920 0.612580 0.694560 -0.532110
O7    O     O_R   0.130920 0.387420 0.694560 -0.481110
O8    O     O_R   0.869080 0.612580 0.305440 -0.481112
O9    O     O_3   0.356640 0.037578 0.907452 -0.408029
O10   O     O_3   0.643359 0.962418 0.092544 -0.408023
O11   O     O_3   0.856641 0.537584 0.907457 -0.408022
O12   O     O_R   0.601120 0.112580 0.378400 -0.471834
O13   O     O_3   0.143358 0.462415 0.092542 -0.408020
O14   O     O_R   0.601120 0.887420 0.378400 -0.445645
O15   O     O_R   0.398880 0.112580 0.621600 -0.445643
O16   O     O_R   0.898880 0.387420 0.621600 -0.471833
O17   O     O_R   0.101120 0.612580 0.378400 -0.471835
O18   O     O_R   0.101120 0.387420 0.378400 -0.445646
O19   O     O_R   0.898880 0.612580 0.621600 -0.445646
O20   O     O_R   0.369080 0.887420 0.305440 -0.532115

loop_
_geom_bond_atom_site_label_1
_geom_bond_atom_site_label_2
_ccdc_geom_bond_type
C4    F8    S    
C21   O6    A    
C2    C18   S    
Cu2   O12   S    
C14   O11   S    
C10   H16   S    
C11   O10   S    
C8    C20   S    
Cu4   O8    S    
C9    O9    S    
Cu3   O19   S    
Cu3   N4    S    
C18   O3    A    
C6    C22   S    
N4    O13   S    
C20   O16   A    
Cu1   O3    S    
Cu2   O4    S    
C3    C12   S    
C14   H3    S    
C16   C17   S    
Cu4   O18   S    
C9    C10   S    
C16   H8    S    
C11   H17   S    
C13   H20   S    
C2    F6    S    
C12   O12   A    
N3    N4    D    
C18   O14   A    
C4    C7    D    
C10   H15   S    
C5    F1    S    
C7    F3    S    
C16   O13   S    
C8    F4    S    
C20   O5    A    
C17   H10   S    
C22   O18   A    
C3    C8    D    
C17   H13   S    
N2    O10   S    
Cu1   Cu2   S    
C7    C21   S    
Cu2   O20   S    
Cu1   O15   S    
C23   O8    A    
C12   O2    A    
C5    C23   S    
C3    F7    S    
C19   O4    A    
C6    C24   D    
C9    H1    S    
Cu1   O1    S    
Cu4   O17   S    
C15   H5    S    
C13   H2    S    
C11   H18   S    
C6    F2    S    
C2    C5    D    
Cu1   N2    S    
Cu3   O16   S    
C10   H14   S    
Cu4   N3    S    
C17   H11   S    
C15   H6    S    
C1    O1    A    
C16   H9    S    
C24   F5    S    
C1    C4    S    
C23   O19   A    
C19   O15   A    
Cu4   O5    S    
C15   H7    S    
Cu3   O6    S    
C11   C13   S    
N1    N2    D    
Cu2   O14   S    
C19   C24   S    
Cu1   O2    S    
Cu2   N1    S    
C22   O7    A    
Cu3   O7    S    
C14   H4    S    
C9    H12   S    
C21   O17   A    
Cu3   Cu4   S    
C1    O20   A    
C14   C15   S    
N1    O9    S    
N3    O11   S    
C13   H19   S    
