data_mof_unit_62237.cif
_audit_creation_date              2013-03-05T16:23:24-0500
_audit_creation_method            fapswitch 2.2
_symmetry_space_group_name_H-M    P1
_symmetry_Int_Tables_number       1
_space_group_crystal_system       triclinic
_cell_length_a                    21.612331
_cell_length_b                    21.660206
_cell_length_c                    22.180525
_cell_angle_alpha                 119.580877
_cell_angle_beta                  119.494206
_cell_angle_gamma                 89.62245
_cell_volume                      7466.41463423

loop_
_atom_site_label
_atom_site_type_symbol
_atom_site_description
_atom_site_fract_x
_atom_site_fract_y
_atom_site_fract_z
_atom_type_partial_charge
O1    O     O_R   0.448270 0.091610 0.500010 -0.617076
O2    O     O_R   0.551720 0.091610 0.499980 -0.621966
C1    C     C_R   0.499748 0.119949 0.499531 0.914175
O3    O     O_R   0.509700 0.061430 0.622870 -0.599539
O4    O     O_R   0.613150 0.061430 0.622840 -0.606545
C2    C     C_R   0.581179 0.081106 0.662163 0.895217
Zn1   Zn    Zn3+2 0.430930 0.000000 0.500020 1.016143
Zn2   Zn    Zn3+2 0.569070 0.000000 0.499980 1.037671
O5    O     O_R   0.448280 0.908390 0.500020 -0.625346
O6    O     O_R   0.551730 0.908390 0.499990 -0.608752
O7    O     O_R   0.386850 0.938570 0.377160 -0.612889
O8    O     O_R   0.490300 0.938570 0.377130 -0.607210
C3    C     C_R   0.499917 0.879419 0.499173 0.869656
C4    C     C_R   0.418842 0.918807 0.337824 0.898208
C5    C     C_3   0.668804 0.254592 0.953613 0.199656
C6    C     C_3   0.782736 0.261753 0.949992 -0.511371
C7    C     C_3   0.834093 0.309243 0.047544 0.318671
H1    H     H_    0.728353 0.362848 0.074528 0.181310
H2    H     H_    0.657209 0.293713 0.933372 0.119228
H3    H     H_    0.812302 0.229785 0.921859 0.250480
H4    H     H_    0.767294 0.299685 0.928503 0.167775
H5    H     H_    0.838667 0.368813 0.070091 0.102084
C8    C     C_1   0.876057 0.373915 0.249080 -0.064307
C9    C     C_3   0.711085 0.207077 0.917566 0.060727
C10   C     C_3   0.719700 0.302660 0.050890 -0.617309
C11   C     C_3   0.796559 0.287666 0.082609 0.011405
C12   C     C_3   0.779345 0.202130 0.046926 0.172720
C13   C     C_3   0.736202 0.155884 0.949407 -0.388028
C14   C     C_1   0.840423 0.335141 0.174120 0.085518
C15   C     C_1   0.664250 0.162191 0.826072 0.009373
C16   C     C_1   0.626018 0.125196 0.751076 -0.119895
H6    H     H_    0.687485 0.109660 0.920332 0.216383
H7    H     H_    0.771456 0.128743 0.927673 0.237486
H8    H     H_    0.740842 0.188450 0.061336 0.147853
H9    H     H_    0.691888 0.291299 0.076942 0.239419
C17   C     C_R   0.444570 0.218058 0.495002 0.069823
C18   C     C_R   0.500048 0.185070 0.497993 -0.137929
C19   C     C_R   0.558042 0.217840 0.500195 -0.229409
H10   H     H_    0.602750 0.193912 0.502855 0.214635
C20   C     C_R   0.560319 0.283692 0.502350 0.300455
C21   C     C_R   0.502146 0.315046 0.499829 -0.188575
C22   C     C_R   0.445144 0.279774 0.494753 0.002262
C23   C     C_3   0.376658 0.285941 0.495674 0.115553
C24   C     C_3   0.376060 0.214719 0.495723 -0.442573
H11   H     H_    0.387115 0.336827 0.553619 0.111515
H12   H     H_    0.388044 0.224540 0.555106 0.190121
H13   H     H_    0.328397 0.164232 0.437368 0.240139
C25   C     C_3   0.220333 0.736003 0.048374 -0.442136
C26   C     C_3   0.334946 0.749544 0.047754 -0.345703
C27   C     C_3   0.286821 0.704014 0.950867 -0.464254
H14   H     H_    0.170527 0.627287 0.929595 0.186391
H15   H     H_    0.237100 0.700105 0.072538 0.195208
H16   H     H_    0.388495 0.787347 0.073723 0.232734
H17   H     H_    0.350162 0.710588 0.067772 0.181090
H18   H     H_    0.283313 0.644162 0.925090 0.200176
H19   H     H_    0.314627 0.723723 0.929781 0.205680
C28   C     C_1   0.125440 0.626150 0.751075 -0.094948
C29   C     C_3   0.290712 0.793685 0.082404 0.132824
C30   C     C_3   0.172690 0.686325 0.951339 -0.351156
C31   C     C_3   0.207249 0.712327 0.917599 0.132916
C32   C     C_3   0.216030 0.796973 0.952137 0.194950
C33   C     C_3   0.263412 0.844684 0.050084 0.090958
C34   C     C_1   0.162339 0.664900 0.826103 -0.007597
C35   C     C_1   0.336639 0.837964 0.173879 -0.024508
C36   C     C_1   0.374231 0.874753 0.248888 -0.122342
H20   H     H_    0.227119 0.869310 0.071734 0.180198
H21   H     H_    0.185930 0.765213 0.070440 0.213057
H22   H     H_    0.114091 0.687140 0.926101 0.218975
H23   H     H_    0.246061 0.813477 0.930970 0.151455
C37   C     C_R   0.495155 0.811431 0.558466 0.124885
C38   C     C_R   0.502825 0.814582 0.501255 -0.097668
C39   C     C_R   0.521098 0.757484 0.451742 -0.173668
H24   H     H_    0.531736 0.761131 0.410511 0.162495
C40   C     C_R   0.520517 0.692964 0.451254 -0.177606
H25   H     H_    0.531102 0.647324 0.410121 0.155592
C41   C     C_R   0.503898 0.687168 0.502189 -0.083989
C42   C     C_R   0.496637 0.748593 0.559662 0.189432
C43   C     C_3   0.436057 0.752727 0.574639 -0.495866
C44   C     C_3   0.434536 0.822145 0.573402 -0.447370
H26   H     H_    0.383942 0.704886 0.521028 0.186457
H27   H     H_    0.456396 0.764499 0.637187 0.264142
H28   H     H_    0.381412 0.814578 0.519297 0.220281
H29   H     H_    0.454238 0.873979 0.635301 0.232305
O9    O     O_R   0.908570 0.551750 0.500020 -0.600287
O10   O     O_R   0.908540 0.448310 0.500030 -0.614854
C45   C     C_R   0.879924 0.500181 0.499991 0.895200
O11   O     O_R   0.938770 0.490290 0.377140 -0.625024
O12   O     O_R   0.938740 0.386860 0.377150 -0.590213
C46   C     C_R   0.919101 0.418845 0.337912 0.876096
Zn3   Zn    Zn3+2 0.000200 0.569060 0.500000 1.067717
Zn4   Zn    Zn3+2 0.000160 0.430940 0.500000 1.048866
O13   O     O_R   0.091820 0.551690 0.499970 -0.622458
O14   O     O_R   0.091790 0.448250 0.499980 -0.607298
O15   O     O_R   0.061630 0.613140 0.622850 -0.559326
O16   O     O_R   0.061600 0.509710 0.622860 -0.624966
C47   C     C_R   0.119555 0.499097 0.498863 0.882287
C48   C     C_R   0.081328 0.581179 0.662131 0.905473
O17   O     O_R   0.626360 0.534710 0.569400 -0.550698
O18   O     O_R   0.557050 0.465350 0.430680 -0.644938
C49   C     C_R   0.620363 0.500936 0.500210 0.926659
O19   O     O_R   0.534700 0.443070 0.569360 -0.603533
O20   O     O_R   0.465400 0.373710 0.430650 -0.580190
C50   C     C_R   0.499634 0.380104 0.499939 0.955542
Zn5   Zn    Zn3+2 0.546320 0.546310 0.592620 1.161580
Zn6   Zn    Zn3+2 0.453780 0.453690 0.407380 1.050690
O21   O     O_R   0.443050 0.534650 0.569320 -0.576971
O22   O     O_R   0.373740 0.465290 0.430600 -0.612849
O23   O     O_R   0.534700 0.626290 0.569350 -0.575335
O24   O     O_R   0.465390 0.556930 0.430640 -0.637106
C51   C     C_R   0.379556 0.500137 0.500002 0.860284
C52   C     C_R   0.500032 0.620468 0.500278 0.848899
C53   C     C_R   0.806149 0.567979 0.549909 0.056051
C54   C     C_R   0.814916 0.500682 0.502160 -0.162390
C55   C     C_R   0.762718 0.432412 0.461290 -0.170838
H30   H     H_    0.770295 0.379599 0.427075 0.183028
C56   C     C_R   0.697846 0.432135 0.459962 -0.094899
H31   H     H_    0.655996 0.379460 0.425300 0.200071
C57   C     C_R   0.686678 0.500087 0.501627 -0.126766
C58   C     C_R   0.742365 0.567271 0.549821 0.054725
C59   C     C_3   0.735540 0.634418 0.546299 -0.021563
C60   C     C_3   0.807493 0.636416 0.548371 0.193892
H32   H     H_    0.685121 0.621054 0.486272 0.062486
H33   H     H_    0.798924 0.625475 0.489826 0.076699
C61   C     C_R   0.252089 0.554064 0.569387 0.005977
C62   C     C_R   0.185432 0.497639 0.499526 -0.072991
C63   C     C_R   0.184840 0.435125 0.434755 -0.159150
H34   H     H_    0.134012 0.388514 0.382570 0.182813
C64   C     C_R   0.249184 0.435320 0.434781 -0.120047
H35   H     H_    0.247631 0.388785 0.382398 0.220542
C65   C     C_R   0.314097 0.496997 0.501071 -0.182328
C66   C     C_R   0.316363 0.553474 0.570799 0.132499
C67   C     C_3   0.340728 0.636433 0.613637 0.245610
C68   C     C_3   0.269496 0.636637 0.611913 -0.538067
H36   H     H_    0.342516 0.653183 0.574478 0.064540
H37   H     H_    0.278209 0.664636 0.674320 0.223953
H38   H     H_    0.229441 0.652518 0.570500 0.207388
N1    N     N_R   0.596743 0.208536 0.921681 0.232356
O25   O     O_R   0.593660 0.164336 0.944591 -0.375588
O26   O     O_R   0.534747 0.214518 0.872841 -0.357108
N2    N     N_R   0.845923 0.181268 0.086226 0.266867
O27   O     O_R   0.882821 0.210192 0.166224 -0.331362
O28   O     O_R   0.858305 0.122637 0.040898 -0.292535
N3    N     N_R   0.621936 0.317958 0.508735 0.190693
O29   O     O_R   0.652901 0.390083 0.558289 -0.398606
O30   O     O_R   0.654420 0.276771 0.475174 -0.375875
N4    N     N_R   0.311985 0.273148 0.418499 0.228876
O31   O     O_R   0.319357 0.273135 0.363678 -0.349838
O32   O     O_R   0.246373 0.264990 0.406197 -0.356805
N5    N     N_R   0.325457 0.907049 0.086254 0.215385
O33   O     O_R   0.330976 0.975258 0.137042 -0.308545
O34   O     O_R   0.373106 0.895793 0.065257 -0.373254
S1    S     S_3+6 0.129200 0.818068 0.911754 0.052079
O35   O     O_2   0.147137 0.899301 0.943574 -0.178110
O36   O     O_2   0.083554 0.772420 0.817585 -0.255931
O37   O     O_3   0.079415 0.802274 0.944692 -0.553877
H39   H     H_    0.032623 0.761769 0.893345 0.384556
N6    N     N_R   0.741545 0.698108 0.619730 0.282018
O38   O     O_R   0.744175 0.691482 0.676124 -0.302815
O39   O     O_R   0.733013 0.758662 0.622279 -0.315626
S2    S     S_3+6 0.889295 0.713680 0.641757 0.128795
O40   O     O_2   0.956003 0.702696 0.637407 -0.226428
O41   O     O_2   0.878160 0.784700 0.648063 -0.219053
O42   O     O_3   0.904570 0.719504 0.726740 -0.490679
H40   H     H_    0.932734 0.772664 0.773518 0.414341
S3    S     S_3+6 0.424120 0.683213 0.717367 0.062531
O43   O     O_2   0.491345 0.683488 0.713093 -0.238387
O44   O     O_2   0.427105 0.762638 0.769060 -0.262132
O45   O     O_3   0.425888 0.639360 0.762887 -0.503184
H41   H     H_    0.389926 0.653338 0.778766 0.353082
S4    S     S_3+6 0.928588 0.305226 0.083896 0.062149
O46   O     O_2   0.928183 0.226240 0.035458 -0.217700
O47   O     O_2   0.964310 0.351607 0.069843 -0.276287
O48   O     O_3   0.979847 0.339758 0.186725 -0.541648
H42   H     H_    0.030119 0.335730 0.200316 0.392837

loop_
_geom_bond_atom_site_label_1
_geom_bond_atom_site_label_2
_geom_bond_distance
_ccdc_geom_bond_type
C29   C33   1.561743 S    
C44   H29   1.111569 S    
S3    O43   1.502074 D    
C33   N5    1.470079 S    
C21   C22   1.380208 A    
C17   C22   1.339672 A    
O42   H40   0.990305 S    
C64   H35   1.082991 S    
Zn5   O21   2.013719 S    
C55   H30   1.083589 S    
O10   Zn4   2.013374 S    
O48   H42   0.990539 S    
C5    H2    1.115550 S    
Zn6   O22   2.016075 S    
C11   C12   1.571255 S    
C63   H34   1.083818 S    
N2    O27   1.301015 A    
C40   C41   1.400466 A    
C61   C68   1.491302 S    
C45   C54   1.429071 S    
C7    C11   1.570501 S    
C8    C14   1.196627 T    
C17   C18   1.381939 A    
N2    O28   1.301958 A    
N4    O31   1.301687 A    
N5    O34   1.301416 A    
O10   C45   1.279089 A    
C15   C16   1.196334 T    
O7    C4    1.282148 A    
O17   Zn5   2.016072 S    
C5    C10   1.552291 S    
S4    O46   1.502504 D    
C26   H17   1.113448 S    
O13   C47   1.278863 A    
C56   H31   1.083397 S    
O20   Zn6   2.019918 S    
N3    O30   1.301376 A    
C59   N6    1.465813 S    
O5    C3    1.280367 A    
C57   C58   1.388971 A    
O11   Zn3   1.994173 S    
N6    O38   1.302151 A    
C24   H12   1.111484 S    
C6    C7    1.557130 S    
C60   S2    1.796518 S    
C68   H38   1.111991 S    
C8    C46   1.417276 S    
C28   C34   1.197028 T    
C37   C38   1.391108 A    
C7    H5    1.113835 S    
C24   H13   1.112129 S    
C6    H3    1.112359 S    
O12   C46   1.282684 A    
C2    C16   1.418217 S    
C30   C31   1.551518 S    
O19   C50   1.263563 A    
O1    Zn1   2.021922 S    
C37   C42   1.374246 A    
C53   C58   1.377755 A    
S3    O44   1.503182 D    
O20   C50   1.264955 A    
H1    C10   1.114127 S    
O9    Zn3   2.018201 S    
O3    Zn1   1.994006 S    
C53   C54   1.397184 A    
C59   H32   1.113083 S    
Zn3   O15   1.996263 S    
N4    O32   1.300467 A    
C12   H8    1.114020 S    
C29   C35   1.459461 S    
C19   H10   1.083134 S    
O18   Zn6   2.013719 S    
C40   H25   1.083544 S    
C33   H20   1.114824 S    
S2    O42   1.682574 S    
O45   H41   0.990432 S    
C13   H6    1.111161 S    
C67   S3    1.791046 S    
C39   C40   1.392301 A    
C7    S4    1.809435 S    
C67   C68   1.521056 S    
C3    C38   1.427707 S    
O15   C48   1.282963 A    
C10   C11   1.558028 S    
C42   C43   1.493300 S    
C27   H19   1.113284 S    
C26   C29   1.550693 S    
C21   C50   1.408684 S    
C61   C66   1.374087 A    
C31   C32   1.568157 S    
O1    C1    1.281311 A    
S2    O41   1.503221 D    
N6    O39   1.300524 A    
Zn1   O7    1.996159 S    
C23   C24   1.543365 S    
C18   C19   1.412227 A    
C30   H22   1.108588 S    
Zn4   O14   2.018200 S    
N1    O26   1.301015 A    
Zn3   O13   2.013374 S    
O18   C49   1.267773 A    
S1    O37   1.683496 S    
Zn2   O8    1.994009 S    
C28   C48   1.418703 S    
O14   C47   1.274356 A    
C41   C42   1.392674 A    
C23   H11   1.111959 S    
C10   H9    1.113605 S    
C67   H36   1.109903 S    
O3    C2    1.282164 A    
C5    C9    1.558244 S    
S1    O36   1.502824 D    
C13   H7    1.111076 S    
O19   Zn5   2.017572 S    
O17   C49   1.266536 A    
O11   C46   1.283600 A    
C62   C63   1.399685 A    
O22   C51   1.272291 A    
C31   C34   1.459857 S    
C17   C24   1.491220 S    
O4    Zn2   1.996156 S    
C49   C57   1.418210 S    
C22   C23   1.494518 S    
C66   C67   1.497702 S    
Zn5   O23   2.019915 S    
C59   C60   1.533229 S    
C25   C30   1.548002 S    
C54   C55   1.404502 A    
O21   C51   1.267703 A    
C32   H23   1.112786 S    
Zn1   O5    2.016983 S    
Zn6   O24   2.017569 S    
C20   C21   1.414952 A    
C63   C64   1.390356 A    
C37   C44   1.492488 S    
C43   C44   1.517183 S    
Zn2   O6    2.021922 S    
O2    Zn2   2.016981 S    
C9    C13   1.552663 S    
O9    C45   1.280225 A    
C39   H24   1.083522 S    
O6    C3    1.275200 A    
C64   C65   1.403226 A    
C44   H28   1.112139 S    
C55   C56   1.387758 A    
C58   C59   1.497072 S    
O16   C48   1.283999 A    
C6    H4    1.113556 S    
C25   C29   1.551708 S    
S3    O45   1.682709 S    
N1    O25   1.301422 A    
C51   C65   1.429185 S    
C27   H18   1.113616 S    
O23   C52   1.266756 A    
C27   C31   1.553050 S    
C35   C36   1.196549 T    
O24   C52   1.271415 A    
O2    C1    1.274545 A    
O8    C4    1.281753 A    
C53   C60   1.500288 S    
C23   N4    1.463381 S    
N5    O33   1.301091 A    
S2    O40   1.501425 D    
C19   C20   1.403754 A    
C43   H27   1.111170 S    
O4    C2    1.281534 A    
O12   Zn4   1.996264 S    
S4    O47   1.502943 D    
C41   C52   1.426082 S    
C26   H16   1.109978 S    
C5    N1    1.469369 S    
C4    C36   1.418571 S    
C56   C57   1.396677 A    
C47   C62   1.416886 S    
C65   C66   1.396099 A    
C43   H26   1.111932 S    
C25   H21   1.113151 S    
C32   C33   1.563049 S    
C32   S1    1.808415 S    
C9    C15   1.459624 S    
C60   H33   1.112050 S    
Zn4   O16   1.994171 S    
C25   H15   1.113403 S    
C12   N2    1.476376 S    
H14   C30   1.113444 S    
S1    O35   1.502604 D    
C1    C18   1.427831 S    
C11   C14   1.460640 S    
C6    C9    1.550604 S    
C26   C27   1.546854 S    
C20   N3    1.438007 S    
O37   H39   0.990251 S    
C68   H37   1.111457 S    
C38   C39   1.404021 A    
N3    O29   1.300280 A    
C61   C62   1.387628 A    
C12   C13   1.561622 S    
S4    O48   1.681490 S    
