data_mof_unit_58084.cif
_audit_creation_date              2012-12-11T17:38:31-0500
_audit_creation_method            fapswitch 2.2
_symmetry_space_group_name_H-M    P1
_symmetry_Int_Tables_number       1
_space_group_crystal_system       triclinic
_cell_length_a                    24.912833
_cell_length_b                    7.111755
_cell_length_c                    22.657388
_cell_angle_alpha                 90.05402
_cell_angle_beta                  96.276664
_cell_angle_gamma                 89.98087
_cell_volume                      3990.2339304

loop_
_atom_site_label
_atom_site_type_symbol
_atom_type_description
_atom_site_fract_x
_atom_site_fract_y
_atom_site_fract_z
_atom_type_partial_charge
O1    O     O_R   0.551910 0.505710 0.449140 -0.537046
O2    O     O_R   0.448090 0.005710 0.550860 -0.537122
O3    O     O_R   0.442510 0.174130 0.436530 -0.534611
O4    O     O_R   0.557490 0.674130 0.563470 -0.534191
C1    C     C_R   0.423747 0.344464 0.421565 0.720045
C2    C     C_R   0.575958 0.844629 0.578750 0.721843
O5    O     O_R   0.551150 0.175880 0.442070 -0.540258
O6    O     O_R   0.448850 0.675880 0.557930 -0.540596
O7    O     O_R   0.557510 0.007410 0.556440 -0.532696
O8    O     O_R   0.442490 0.507410 0.443560 -0.531634
C3    C     C_R   0.568789 0.344332 0.428860 0.691236
C4    C     C_R   0.431213 0.844444 0.571079 0.690813
O9    O     O_3   0.501960 0.339800 0.537520 -0.370851
O10   O     O_3   0.498040 0.839800 0.462480 -0.370704
V1    V     V_3+5 0.499640 0.064240 0.493040 1.395668
V2    V     V_3+5 0.500360 0.564240 0.506960 1.396903
C5    C     C_R   0.160030 0.069935 0.805921 -0.160248
C6    C     C_R   0.837489 0.572524 0.191544 -0.162003
H1    H     H_    0.168083 0.182147 0.775802 0.101169
H2    H     H_    0.828708 0.685670 0.221089 0.103815
C7    C     C_R   0.118794 0.090959 0.843539 0.071726
C8    C     C_R   0.879356 0.593095 0.154743 0.072421
C9    C     C_R   0.108900 0.941571 0.883474 -0.073620
C10   C     C_R   0.890291 0.442391 0.115622 -0.073671
C11   C     C_R   0.140182 0.776156 0.881956 -0.199996
C12   C     C_R   0.859242 0.276485 0.117009 -0.200228
H3    H     H_    0.134167 0.659631 0.911241 0.126908
H4    H     H_    0.865931 0.159146 0.088229 0.126645
C13   C     C_R   0.180378 0.758381 0.843687 -0.153016
C14   C     C_R   0.818402 0.259209 0.154459 -0.153225
H5    H     H_    0.203630 0.629538 0.843935 0.113731
H6    H     H_    0.795438 0.129784 0.154223 0.114267
C15   C     C_R   0.190774 0.905694 0.805883 0.110264
C16   C     C_R   0.807057 0.407613 0.191498 0.110129
C17   C     C_1   0.232690 0.889465 0.766455 -0.058781
C18   C     C_1   0.764856 0.390995 0.230513 -0.070785
C19   C     C_1   0.267307 0.878401 0.732919 -0.065233
C20   C     C_1   0.730370 0.378846 0.264162 -0.063261
C21   C     C_R   0.340915 0.022467 0.684473 -0.177008
C22   C     C_R   0.657993 0.522559 0.314520 -0.175164
H7    H     H_    0.335959 0.149771 0.709573 0.117314
H8    H     H_    0.662792 0.650270 0.289664 0.116780
C23   C     C_R   0.380381 0.016882 0.644933 -0.182386
C24   C     C_R   0.619223 0.517153 0.354847 -0.182091
H9    H     H_    0.404758 0.140867 0.640156 0.130340
H10   H     H_    0.595221 0.641643 0.360384 0.130100
C25   C     C_R   0.388933 0.852261 0.612857 -0.069148
C26   C     C_R   0.610788 0.352136 0.386645 -0.067159
C27   C     C_R   0.356411 0.694269 0.620710 -0.195210
C28   C     C_R   0.642827 0.193562 0.377692 -0.198770
H11   H     H_    0.362023 0.566984 0.595773 0.120599
H12   H     H_    0.637008 0.065729 0.402184 0.118409
C29   C     C_R   0.315721 0.699659 0.659363 0.107828
C30   C     C_R   0.682806 0.198293 0.338032 0.108050
C31   C     C_R   0.308224 0.865713 0.691933 0.108977
C32   C     C_R   0.690088 0.365113 0.305798 0.115967
C33   C     C_3   0.756116 0.756196 0.805719 -0.434366
C34   C     C_3   0.251301 0.294640 0.187235 -0.419417
C35   C     C_3   0.755754 0.092428 0.789503 0.042046
C36   C     C_3   0.232037 0.611201 0.227285 0.041523
C37   C     C_3   0.711242 0.084707 0.735440 -0.336292
C38   C     C_3   0.276428 0.591013 0.281011 -0.329589
H13   H     H_    0.740058 0.780722 0.849017 0.153489
H14   H     H_    0.264549 0.360096 0.146680 0.157018
H15   H     H_    0.733370 0.085371 0.829491 0.087678
H16   H     H_    0.253711 0.653924 0.188999 0.086769
H17   H     H_    0.671811 0.123878 0.750198 0.124703
H18   H     H_    0.312725 0.670752 0.271878 0.125212
H19   H     H_    0.718403 0.194019 0.702370 0.142055
H20   H     H_    0.263634 0.661006 0.320862 0.142764
C39   C     C_1   0.621540 0.854955 0.624330 -0.214691
C40   C     C_1   0.377571 0.353950 0.376638 -0.213438
C41   C     C_3   0.792975 0.918009 0.790729 0.246776
C42   C     C_3   0.206004 0.415547 0.210526 0.239628
C43   C     C_3   0.708899 0.726800 0.754616 0.011637
C44   C     C_3   0.300053 0.270005 0.236402 0.010672
C45   C     C_3   0.709021 0.886092 0.706011 0.237047
C46   C     C_3   0.289945 0.379825 0.294890 0.230302
C47   C     C_3   0.763620 0.858249 0.677860 -0.079244
C48   C     C_3   0.237864 0.286313 0.316085 -0.079824
C49   C     C_3   0.811898 0.878933 0.728063 -0.359541
C50   C     C_3   0.189016 0.315328 0.266804 -0.372405
C51   C     C_1   0.660653 0.867871 0.661253 -0.074535
C52   C     C_1   0.338155 0.364244 0.340002 -0.071074
C53   C     C_1   0.840251 0.931699 0.837305 -0.069577
C54   C     C_1   0.159218 0.431179 0.163559 -0.065974
C55   C     C_1   0.878530 0.942350 0.875318 -0.194868
C56   C     C_1   0.121216 0.442457 0.125168 -0.197171
H21   H     H_    0.836228 0.748585 0.729724 0.123860
H22   H     H_    0.171297 0.176886 0.253436 0.134741
H23   H     H_    0.840432 0.987719 0.716318 0.153681
H24   H     H_    0.155674 0.391691 0.284511 0.158180
H25   H     H_    0.764675 0.710966 0.661159 0.116230
H26   H     H_    0.244997 0.132050 0.319480 0.119150
H27   H     H_    0.782489 0.634830 0.813934 0.153012
H28   H     H_    0.234944 0.154009 0.173148 0.130471
H29   H     H_    0.718376 0.595557 0.731293 0.090110
H30   H     H_    0.300104 0.117866 0.248246 0.077287
O11   O     O_R   0.057480 0.291690 0.056480 -0.531965
O12   O     O_R   0.942520 0.791690 0.943520 -0.532215
O13   O     O_R   0.948840 0.619880 0.057940 -0.538630
O14   O     O_R   0.051160 0.119880 0.942060 -0.538597
C57   C     C_R   0.932076 0.451588 0.072471 0.677826
C58   C     C_R   0.067722 0.951367 0.927317 0.678153
O15   O     O_R   0.057480 0.621520 0.063480 -0.533208
O16   O     O_R   0.942520 0.121520 0.936520 -0.532610
O17   O     O_R   0.051910 0.789880 0.949130 -0.537017
O18   O     O_R   0.948090 0.289880 0.050870 -0.537337
C59   C     C_R   0.076059 0.452730 0.078967 0.716308
C60   C     C_R   0.923904 0.952673 0.921144 0.715956
O19   O     O_3   0.998020 0.455790 0.962510 -0.371823
O20   O     O_3   0.001980 0.955790 0.037490 -0.372123
V3    V     V_3+5 0.000370 0.731410 0.006960 1.380108
V4    V     V_3+5 0.999630 0.231410 0.993040 1.380405
C61   C     C_3   0.783881 0.281784 0.798436 -0.362833
C62   C     C_3   0.827725 0.326703 0.758428 -0.752806
H31   H     H_    0.863139 0.233705 0.768551 0.224645
H32   H     H_    0.811848 0.319957 0.710898 0.213743
H33   H     H_    0.843501 0.469180 0.768547 0.204394
H34   H     H_    0.750286 0.380829 0.791223 0.167245
H35   H     H_    0.801640 0.296662 0.845458 0.178922
C63   C     C_3   0.193545 0.780207 0.233026 -0.356845
C64   C     C_3   0.151461 0.758832 0.276790 -0.756569
H36   H     H_    0.118325 0.664865 0.258153 0.222598
H37   H     H_    0.169849 0.706925 0.320370 0.219771
H38   H     H_    0.132994 0.897581 0.284178 0.203292
H39   H     H_    0.219089 0.903549 0.246529 0.162534
H40   H     H_    0.172081 0.814180 0.188682 0.181286
C65   C     C_3   0.086422 0.272467 0.837614 -0.351639
C66   C     C_3   0.028964 0.239102 0.807476 -0.284656
C67   C     C_3   0.997402 0.423165 0.799942 -0.750000
H41   H     H_    0.994035 0.489095 0.843802 0.247006
H42   H     H_    0.017807 0.522615 0.771897 0.218201
H43   H     H_    0.956136 0.394946 0.778041 0.205088
H44   H     H_    0.031120 0.175599 0.762933 0.183099
H45   H     H_    0.006691 0.140275 0.833804 0.189966
H46   H     H_    0.086266 0.343247 0.881167 0.192046
H47   H     H_    0.106243 0.375299 0.810009 0.163150
C68   C     C_3   0.911041 0.776031 0.160444 -0.351388
C69   C     C_3   0.968321 0.746481 0.191561 -0.284534
C70   C     C_3   0.998987 0.932384 0.198810 -0.750259
H48   H     H_    0.001929 0.998123 0.154880 0.247226
H49   H     H_    0.978157 0.030939 0.226815 0.217500
H50   H     H_    0.040428 0.906758 0.220570 0.209181
H51   H     H_    0.965878 0.684685 0.236248 0.182965
H52   H     H_    0.991408 0.647677 0.166024 0.191004
H53   H     H_    0.911494 0.844818 0.116659 0.190955
H54   H     H_    0.890448 0.879298 0.187248 0.164165
C71   C     C_3   0.773521 0.983449 0.623567 -0.347075
C72   C     C_3   0.735308 0.943604 0.566937 -0.305161
C73   C     C_3   0.759491 0.006507 0.511284 -0.802525
H55   H     H_    0.768926 0.159174 0.513667 0.229797
H56   H     H_    0.796859 0.925938 0.505938 0.233632
H57   H     H_    0.729764 0.980146 0.471980 0.226551
H58   H     H_    0.725988 0.790977 0.562880 0.193621
H59   H     H_    0.697306 0.023753 0.568470 0.203145
H60   H     H_    0.772013 0.135118 0.634167 0.167470
H61   H     H_    0.815463 0.954683 0.613387 0.181747
C74   C     C_3   0.221848 0.345153 0.378132 -0.345677
C75   C     C_3   0.258742 0.264439 0.431118 -0.303079
C76   C     C_3   0.229320 0.249994 0.486598 -0.792379
H62   H     H_    0.211878 0.388376 0.496784 0.232738
H63   H     H_    0.196394 0.144310 0.479875 0.227855
H64   H     H_    0.258150 0.205609 0.524935 0.224091
H65   H     H_    0.273705 0.122307 0.420655 0.192400
H66   H     H_    0.293798 0.359069 0.441910 0.198110
H67   H     H_    0.219697 0.499704 0.382891 0.165372
H68   H     H_    0.180326 0.291080 0.381253 0.184082
C77   C     C_3   0.281319 0.526790 0.665266 -0.378124
C78   C     C_3   0.224669 0.551579 0.632300 -0.294234
C79   C     C_3   0.190451 0.375773 0.637721 -0.772308
H69   H     H_    0.210255 0.250934 0.620072 0.234984
H70   H     H_    0.184611 0.350681 0.684938 0.225641
H71   H     H_    0.150278 0.395122 0.612003 0.216010
H72   H     H_    0.203824 0.672941 0.650598 0.201522
H73   H     H_    0.227997 0.579832 0.584630 0.191114
H74   H     H_    0.300423 0.402555 0.646322 0.171805
H75   H     H_    0.278768 0.496432 0.713010 0.175923
C80   C     C_3   0.715406 0.021973 0.329666 -0.382168
C81   C     C_3   0.775288 0.044454 0.353260 -0.298866
C82   C     C_3   0.803330 0.853628 0.360517 -0.777351
H76   H     H_    0.785199 0.767627 0.394124 0.232654
H77   H     H_    0.799422 0.776886 0.317573 0.231219
H78   H     H_    0.846863 0.874163 0.375541 0.215630
H79   H     H_    0.796500 0.129712 0.322067 0.202294
H80   H     H_    0.779325 0.118058 0.396721 0.202141
H81   H     H_    0.698404 0.902839 0.353331 0.177253
H82   H     H_    0.711740 0.984001 0.281789 0.169917
C83   C     C_3   0.654276 0.677799 0.778145 -0.336773
C84   C     C_3   0.625289 0.839470 0.805766 -0.739691
H83   H     H_    0.653093 0.920192 0.837820 0.215909
H84   H     H_    0.605777 0.933172 0.770666 0.220531
H85   H     H_    0.592690 0.781237 0.830078 0.209384
H86   H     H_    0.626287 0.616782 0.741514 0.176706
H87   H     H_    0.661712 0.564869 0.811988 0.168591
C85   C     C_3   0.355972 0.291974 0.212636 -0.324311
C86   C     C_3   0.372565 0.490951 0.197018 -0.750034
H88   H     H_    0.339315 0.566489 0.170594 0.216330
H89   H     H_    0.386830 0.570453 0.237836 0.220013
H90   H     H_    0.407065 0.482796 0.169959 0.209886
H91   H     H_    0.387934 0.233155 0.245566 0.174913
H92   H     H_    0.355988 0.203398 0.172144 0.171826

loop_
_geom_bond_atom_site_label_1
_geom_bond_atom_site_label_2
_ccdc_geom_bond_type
C79   H69   S    
O12   C60   A    
C84   H83   S    
C61   H35   S    
O13   V3    S    
C77   C78   S    
C29   C31   A    
C66   H44   S    
O1    C3    A    
O2    V1    S    
C67   H43   S    
O2    C4    A    
O11   V4    S    
C76   H62   S    
C34   C44   S    
C64   H36   S    
C25   C27   A    
C55   C60   S    
C78   H73   S    
C82   H76   S    
C30   C80   S    
O5    C3    A    
C79   H70   S    
C68   H53   S    
C28   C30   A    
O16   V4    S    
O15   V3    S    
C43   C83   S    
C44   C46   S    
C47   H25   S    
C1    C40   S    
C70   H49   S    
O16   C60   A    
C46   C48   S    
C64   H37   S    
C80   H81   S    
C78   C79   S    
C45   C51   S    
C44   H30   S    
C61   C62   S    
O11   C59   A    
C13   C15   A    
C43   H29   S    
C50   H24   S    
C62   H31   S    
C38   H20   S    
C36   C38   S    
C73   H57   S    
O18   V4    S    
C63   H39   S    
C86   H89   S    
C35   C61   S    
C34   H28   S    
O17   V3    S    
C44   C85   S    
C84   H85   S    
C5    H1    S    
C83   H86   S    
C21   C31   A    
C65   H47   S    
C9    C58   S    
C37   C45   S    
C27   H11   S    
C28   H12   S    
C73   H55   S    
C85   H91   S    
C57   O18   A    
O10   V2    S    
C75   H66   S    
C71   H61   S    
C35   C41   S    
C16   C18   S    
C29   C77   S    
C47   C71   S    
C49   H21   S    
O5    V1    S    
C36   H16   S    
O13   C57   A    
C72   H59   S    
C11   C13   A    
C3    C26   S    
C83   C84   S    
C5    C15   A    
C2    O7    A    
C4    C25   S    
C41   C49   S    
O20   V3    S    
C76   H63   S    
C24   H10   S    
C33   H13   S    
C39   C51   T    
C78   H72   S    
C53   C55   T    
C34   H14   S    
C2    C39   S    
C79   H71   S    
C30   C32   A    
C68   H54   S    
C35   C37   S    
C14   C16   A    
C54   C56   T    
C69   C70   S    
O4    C2    A    
C82   H77   S    
C69   H52   S    
C47   C49   S    
C48   C74   S    
C21   C23   A    
C80   H82   S    
C22   C32   A    
C8    C68   S    
C5    C7    A    
C64   H38   S    
C49   H23   S    
O4    V2    S    
C86   H90   S    
O14   C58   A    
O14   V4    S    
C6    C16   A    
C83   H87   S    
C22   H8    S    
C74   C75   S    
O6    C4    A    
C41   C53   S    
C67   H42   S    
C45   C47   S    
C20   C32   S    
O1    V2    S    
C75   H65   S    
C42   C54   S    
C36   C63   S    
C26   C28   A    
C43   C45   S    
C7    C65   S    
C40   C52   T    
C37   H17   S    
C62   H32   S    
C56   C59   S    
C48   C50   S    
C74   H68   S    
C12   C14   A    
C72   H58   S    
O9    V1    S    
C8    C10   A    
C70   H50   S    
C48   H26   S    
C67   H41   S    
C77   H75   S    
C76   H64   S    
O3    V1    S    
C81   C82   S    
C34   C42   S    
C65   C66   S    
C42   C50   S    
C82   H78   S    
C37   H19   S    
O15   C59   A    
C84   H84   S    
C17   C19   T    
C6    C8    A    
C33   C41   S    
C38   C46   S    
C66   H45   S    
O12   V3    S    
C10   C12   A    
C85   C86   S    
O3    C1    A    
C69   H51   S    
C68   C69   S    
C11   H3    S    
C12   H4    S    
C50   H22   S    
C62   H33   S    
C38   H18   S    
C81   H80   S    
C10   C57   S    
C75   C76   S    
C33   C43   S    
C7    C9    A    
C66   C67   S    
O7    V1    S    
C1    O8    A    
C13   H5    S    
O8    V2    S    
C70   H48   S    
C35   H15   S    
C18   C20   T    
C14   H6    S    
C23   C25   A    
C27   C29   A    
C36   C42   S    
C15   C17   S    
C74   H67   S    
O19   V4    S    
C6    H2    S    
C73   H56   S    
C63   H40   S    
C86   H88   S    
C77   H74   S    
C81   H79   S    
C80   C81   S    
C19   C31   S    
C46   C52   S    
C22   C24   A    
C9    C11   A    
C65   H46   S    
C21   H7    S    
O6    V2    S    
C61   H34   S    
C33   H27   S    
O9    V2    S    
O10   V1    S    
C63   C64   S    
C71   C72   S    
C71   H60   S    
C23   H9    S    
C58   O17   A    
C24   C26   A    
C85   H92   S    
C72   C73   S    
