data_mof_unit_22917.cif
_audit_creation_date              2012-10-26T21:02:38-0400
_audit_creation_method            fapswitch 2.2
_symmetry_space_group_name_H-M    P1
_symmetry_Int_Tables_number       1
_space_group_crystal_system       triclinic
_cell_length_a                    12.317053
_cell_length_b                    13.144221
_cell_length_c                    15.064288
_cell_angle_alpha                 77.443116
_cell_angle_beta                  101.3341
_cell_angle_gamma                 116.557746
_cell_volume                      2115.53352808

loop_
_atom_site_label
_atom_site_type_symbol
_atom_type_description
_atom_site_fract_x
_atom_site_fract_y
_atom_site_fract_z
_atom_type_partial_charge
C1    C     C_R   0.854819 0.285853 0.509789 0.552790
C2    C     C_R   0.905093 0.512687 0.796942 -0.142543
C3    C     C_R   0.998461 0.498475 0.768208 -0.013138
C4    C     C_R   0.999350 0.499448 0.671242 0.548461
C5    C     C_R   0.091294 0.483127 0.832413 -0.137385
C6    C     C_R   0.275983 0.022717 0.373986 0.102183
C7    C     C_R   0.227565 0.835290 0.466682 -0.025779
C8    C     C_R   0.812811 0.081235 0.575433 0.093370
C9    C     C_R   0.731336 0.965985 0.591507 -0.130667
C10   C     C_R   0.609472 0.930049 0.556319 -0.140911
C11   C     C_R   0.565446 0.008371 0.500662 0.025836
C12   C     C_R   0.092537 0.482843 0.111007 0.011341
C13   C     C_R   0.650970 0.122174 0.473777 -0.005472
C14   C     C_R   0.439346 0.976567 0.469622 0.009229
C15   C     C_R   0.401491 0.054107 0.404785 0.081382
C16   C     C_R   0.145005 0.713664 0.486241 0.549877
C17   C     C_R   0.489989 0.160179 0.370085 -0.122742
C18   C     C_R   0.612385 0.192869 0.402929 -0.135848
C19   C     C_R   0.349623 0.869814 0.502222 -0.146663
C20   C     C_R   0.189980 0.912255 0.404475 -0.115338
C21   C     C_R   0.773112 0.161446 0.517362 0.033327
C22   C     C_R   0.347806 0.329181 0.646961 -0.152106
C23   C     C_R   0.811889 0.526886 0.011159 -0.134551
C24   C     C_R   0.758965 0.645274 0.375533 0.045609
C25   C     C_R   0.662104 0.676789 0.348500 -0.161759
C26   C     C_R   0.558858 0.621979 0.395218 -0.138011
C27   C     C_R   0.551211 0.534411 0.470165 -0.006287
C28   C     C_R   0.000186 0.499857 0.328810 0.544325
C29   C     C_R   0.653116 0.505190 0.495494 0.180534
C30   C     C_R   0.447022 0.475094 0.521011 -0.014354
C31   C     C_R   0.447419 0.388452 0.595719 0.035206
C32   C     C_R   0.547296 0.361453 0.619240 -0.178331
C33   C     C_R   0.647644 0.418497 0.570455 -0.102480
C34   C     C_R   0.811538 0.526707 0.918595 -0.134788
C35   C     C_R   0.341666 0.497532 0.501538 0.036594
C36   C     C_R   0.247643 0.355661 0.624482 0.044748
C37   C     C_R   0.092492 0.483580 0.203337 -0.137122
C38   C     C_R   0.999802 0.498893 0.232003 -0.012631
C39   C     C_R   0.906314 0.513183 0.167924 -0.140547
C40   C     C_R   0.905009 0.512561 0.075417 0.011680
C41   C     C_R   0.998533 0.497506 0.046746 0.061796
C42   C     C_R   0.904338 0.512256 0.889395 0.011647
C43   C     C_R   0.998198 0.497364 0.953692 0.061795
C44   C     C_R   0.091886 0.482576 0.925012 0.010448
C45   C     C_R   0.184738 0.467788 0.989305 -0.133326
C46   C     C_R   0.185064 0.467921 0.081860 -0.132024
Cu1   Cu    Cu3+1 0.098270 0.475420 0.521130 0.943254
Cu2   Cu    Cu3+1 0.901730 0.524580 0.478870 0.911464
H1    H     H_    0.164890 0.472617 0.252678 0.125459
H2    H     H_    0.834287 0.524693 0.189854 0.124790
H3    H     H_    0.333309 0.561652 0.445918 0.118198
H4    H     H_    0.838713 0.688390 0.338896 0.123674
H5    H     H_    0.486732 0.649915 0.371351 0.100422
H6    H     H_    0.667084 0.744004 0.291114 0.104121
H7    H     H_    0.719188 0.391523 0.594522 0.183831
H8    H     H_    0.739528 0.538383 0.032489 0.106517
H9    H     H_    0.738931 0.538060 0.869861 0.108852
H10   H     H_    0.832956 0.524058 0.747543 0.127165
H11   H     H_    0.163584 0.472026 0.810483 0.126504
H12   H     H_    0.465385 0.218925 0.317020 0.143199
H13   H     H_    0.257114 0.456312 0.967976 0.107702
H14   H     H_    0.257657 0.456531 0.130591 0.111219
H15   H     H_    0.094613 0.885103 0.377346 0.117456
H16   H     H_    0.250640 0.168179 0.344500 0.228490
H17   H     H_    0.143081 0.062181 0.289410 0.227034
H18   H     H_    0.931407 0.094441 0.690779 0.217998
H19   H     H_    0.974749 0.069898 0.600650 0.227744
H20   H     H_    0.372023 0.810242 0.555084 0.125012
H21   H     H_    0.552955 0.839471 0.572278 0.108175
H22   H     H_    0.762093 0.904058 0.634354 0.116239
H23   H     H_    0.676326 0.273286 0.369866 0.150146
H24   H     H_    0.170618 0.310436 0.663910 0.140712
H25   H     H_    0.548205 0.295361 0.676424 0.111643
H26   H     H_    0.347558 0.262883 0.704199 0.093785
N1    N     N_R   0.246280 0.438190 0.553160 -0.234708
N2    N     N_R   0.754320 0.561190 0.447410 -0.235463
N3    N     N_3   0.236896 0.101721 0.309957 -0.645018
N4    N     N_3   0.935283 0.116314 0.620100 -0.615594
O1    O     O_R   0.972510 0.318130 0.526570 -0.452218
O2    O     O_R   0.806530 0.359650 0.490890 -0.538799
O3    O     O_R   0.082980 0.479210 0.647590 -0.505589
O4    O     O_R   0.917000 0.520730 0.611900 -0.522746
O5    O     O_R   0.193470 0.640350 0.509110 -0.507629
O6    O     O_R   0.027490 0.681870 0.473430 -0.502744
O7    O     O_R   0.083000 0.479270 0.388100 -0.509288
O8    O     O_R   0.917020 0.520790 0.352410 -0.518386

loop_
_geom_bond_atom_site_label_1
_geom_bond_atom_site_label_2
_ccdc_geom_bond_type
C24   H4    S    
C24   C25   A    
C1    C21   S    
C27   C29   A    
H16   N3    S    
Cu2   N2    S    
C34   C42   A    
Cu1   O1    S    
C23   H8    S    
C29   N2    A    
C45   C46   A    
C35   N1    A    
C26   C27   A    
C37   C38   A    
C13   C18   A    
C46   H14   S    
Cu1   O7    S    
C30   C31   A    
C11   C14   A    
C23   C40   A    
C29   C33   A    
C16   O6    A    
C12   C37   A    
C6    C15   A    
C4    O3    A    
Cu1   Cu2   S    
C8    C9    A    
C34   H9    S    
Cu1   O5    S    
C9    C10   A    
C27   C30   A    
C8    N4    S    
C41   C43   A    
H19   N4    S    
C8    C21   A    
H18   N4    S    
H17   N3    S    
C22   C31   A    
C5    H11   S    
C19   H20   S    
C9    H22   S    
C12   C46   A    
C39   C40   A    
C24   N2    A    
C6    N3    S    
C25   C26   A    
C16   O5    A    
Cu2   O6    S    
C43   C44   A    
C12   C41   A    
C36   N1    A    
C37   H1    S    
C31   C32   A    
C28   C38   S    
C23   C34   A    
C17   C18   A    
C13   C21   A    
C33   H7    S    
C25   H6    S    
C30   C35   A    
C7    C16   S    
C5    C44   A    
C7    C19   A    
C35   H3    S    
C1    O1    A    
Cu2   O8    S    
C42   C43   A    
C22   H26   S    
C3    C4    S    
C26   H5    S    
C32   H25   S    
C22   C36   A    
C44   C45   A    
C18   H23   S    
C15   C17   A    
C40   C41   A    
C14   C19   A    
C3    C5    A    
C2    H10   S    
C6    C20   A    
C32   C33   A    
Cu2   O2    S    
C20   H15   S    
C2    C3    A    
Cu1   N1    S    
C28   O8    A    
C11   C13   A    
C38   C39   A    
C2    C42   A    
C45   H13   S    
Cu2   O4    S    
Cu1   O3    S    
C10   C11   A    
C17   H12   S    
C10   H21   S    
C39   H2    S    
C4    O4    A    
C7    C20   A    
C28   O7    A    
C1    O2    A    
C14   C15   A    
C36   H24   S    
