data_mof_unit_56755.cif
_audit_creation_date              2012-10-26T19:42:41-0400
_audit_creation_method            fapswitch 2.2
_symmetry_space_group_name_H-M    P1
_symmetry_Int_Tables_number       1
_space_group_crystal_system       triclinic
_cell_length_a                    19.344058
_cell_length_b                    10.791648
_cell_length_c                    9.674321
_cell_angle_alpha                 90.758261
_cell_angle_beta                  89.977134
_cell_angle_gamma                 95.186419
_cell_volume                      2011.11063794

loop_
_atom_site_label
_atom_site_type_symbol
_atom_type_description
_atom_site_fract_x
_atom_site_fract_y
_atom_site_fract_z
_atom_type_partial_charge
C1    C     C_R   0.499136 0.262847 0.498940 0.643064
C2    C     C_R   0.852093 0.474784 0.487032 0.036769
C3    C     C_R   0.367848 0.112042 0.548574 0.407616
C4    C     C_R   0.367278 0.497404 0.500241 0.665093
C5    C     C_R   0.307708 0.041216 0.588688 0.353286
C6    C     C_R   0.308571 0.914247 0.613375 0.019436
C7    C     C_R   0.370218 0.857148 0.589985 0.362286
C8    C     C_R   0.431217 0.926391 0.541986 -0.071704
C9    C     C_R   0.430954 0.057053 0.529448 -0.108807
C10   C     C_R   0.493700 0.128332 0.495800 0.048303
C11   C     C_R   0.553438 0.070997 0.462764 0.399582
C12   C     C_R   0.290235 0.493220 0.500988 -0.000537
C13   C     C_R   0.552254 0.942983 0.464886 -0.027831
C14   C     C_R   0.492551 0.870340 0.504531 -0.009400
C15   C     C_R   0.580201 0.695438 0.143187 0.351560
C16   C     C_R   0.496695 0.736645 0.501183 0.653161
C17   C     C_R   0.603294 0.804828 0.075493 -0.069690
C18   C     C_R   0.602482 0.805968 0.932022 -0.022990
C19   C     C_R   0.578016 0.697137 0.861087 0.387804
C20   C     C_R   0.538024 0.596350 0.926783 0.026402
C21   C     C_R   0.538649 0.595754 0.075728 0.083504
C22   C     C_R   0.463012 0.409214 0.071150 0.119037
C23   C     C_R   0.928116 0.484369 0.484422 0.369845
C24   C     C_R   0.463820 0.409819 0.923490 0.534678
C25   C     C_R   0.632035 0.495744 0.500104 0.604261
C26   C     C_R   0.249984 0.446433 0.615350 0.000432
C27   C     C_R   0.176524 0.439793 0.609490 -0.051775
C28   C     C_R   0.144005 0.485874 0.492028 -0.062752
C29   C     C_R   0.184204 0.532406 0.380665 0.440006
C30   C     C_R   0.256164 0.535632 0.384633 0.411558
C31   C     C_2   0.283721 0.399575 0.738854 0.431105
C32   C     C_2   0.244106 0.843146 0.662683 0.350654
C33   C     C_2   0.419615 0.307915 0.139939 0.350553
C34   C     C_R   0.068150 0.490364 0.486575 0.359294
C35   C     C_2   0.635288 0.912253 0.157749 0.247986
C36   C     C_2   0.638114 0.912260 0.855026 0.362373
C37   C     C_2   0.132935 0.378317 0.720993 0.324604
C38   C     C_2   0.848475 0.334548 0.695440 0.309246
C39   C     C_2   0.698907 0.339093 0.701056 0.241393
C40   C     C_R   0.813568 0.409117 0.592009 0.022723
C41   C     C_R   0.740647 0.414809 0.598262 -0.016770
C42   C     C_R   0.707647 0.486400 0.499832 0.021609
C43   C     C_R   0.746924 0.545195 0.393715 -0.110861
C44   C     C_R   0.818148 0.539190 0.387230 -0.129386
Cu1   Cu    Cu3+1 0.500000 0.499990 0.640660 1.215847
Cu2   Cu    Cu3+1 0.500000 0.500010 0.359340 1.129342
F1    F     F_    0.362547 0.233606 0.522505 -0.654195
F2    F     F_    0.248172 0.097733 0.604403 -0.627040
F3    F     F_    0.370580 0.735466 0.619117 -0.592989
F4    F     F_    0.607363 0.687425 0.269455 -0.656262
F5    F     F_    0.606510 0.686734 0.735996 -0.592295
F6    F     F_    0.425654 0.319501 0.851003 -0.571333
F7    F     F_    0.153621 0.578499 0.268374 -0.514746
F8    F     F_    0.292591 0.584450 0.275043 -0.536459
F9    F     F_    0.613441 0.139655 0.430146 -0.575054
H1    H     H_    0.599237 0.899845 0.440877 0.184181
H2    H     H_    0.827287 0.323139 0.798823 0.136361
H3    H     H_    0.664701 0.382173 0.772141 0.137349
H4    H     H_    0.722626 0.598104 0.316106 0.187665
H5    H     H_    0.847352 0.588821 0.306310 0.152084
H6    H     H_    0.293135 0.302354 0.744806 0.209304
H7    H     H_    0.196671 0.888865 0.673960 0.173835
H8    H     H_    0.396452 0.322074 0.239372 0.169974
H9    H     H_    0.668930 0.897058 0.244380 0.173437
H10   H     H_    0.676838 0.976699 0.904903 0.159478
H11   H     H_    0.083404 0.327949 0.695314 0.153473
N1    N     N_R   0.031658 0.452794 0.371294 -0.106936
N2    N     N_R   0.962702 0.450115 0.370111 -0.176255
N3    N     N_R   0.964670 0.525708 0.597958 -0.177789
N4    N     N_R   0.033486 0.528930 0.598847 -0.191991
N5    N     N_R   0.500660 0.501210 0.147910 -0.295666
N6    N     N_R   0.500680 0.501290 0.852040 -0.244707
O1    O     O_R   0.499990 0.319640 0.618810 -0.441609
O2    O     O_2   0.242822 0.733421 0.692380 -0.406196
O3    O     O_2   0.408749 0.205362 0.085251 -0.416988
O4    O     O_2   0.622559 0.018335 0.132116 -0.453186
O5    O     O_2   0.624505 0.929393 0.734103 -0.424594
O6    O     O_2   0.150645 0.385407 0.842144 -0.384423
O7    O     O_2   0.899784 0.281864 0.665240 -0.449567
O8    O     O_2   0.702738 0.226966 0.706899 -0.430905
O9    O     O_R   0.500000 0.319660 0.381240 -0.521885
O10   O     O_R   0.400140 0.499970 0.618820 -0.411027
O11   O     O_R   0.400150 0.500000 0.381250 -0.487186
O12   O     O_R   0.500000 0.680340 0.618760 -0.395154
O13   O     O_R   0.500010 0.680360 0.381190 -0.447334
O14   O     O_R   0.599850 0.500000 0.618750 -0.476994
O15   O     O_R   0.599860 0.500030 0.381180 -0.425575
O16   O     O_2   0.299981 0.469948 0.835635 -0.352711

loop_
_geom_bond_atom_site_label_1
_geom_bond_atom_site_label_2
_ccdc_geom_bond_type
C24   F6    S    
C6    C32   S    
C41   C42   A    
C31   H6    S    
Cu1   O10   S    
C25   O15   A    
C7    C8    A    
C39   C41   S    
Cu1   Cu2   S    
C30   F8    S    
C26   C27   A    
C21   N5    A    
C28   C29   A    
C27   C37   S    
C36   O5    D    
C32   O2    D    
C5    C6    A    
C38   O7    D    
C1    O9    A    
C38   H2    S    
C16   O12   A    
Cu1   O1    S    
C18   C19   A    
C15   F4    S    
C23   N3    A    
C33   O3    D    
C19   C20   A    
C2    C44   A    
C8    C9    A    
C35   H9    S    
C4    C12   S    
C9    C10   A    
C34   N4    A    
C43   H4    S    
C13   H1    S    
C28   C34   S    
C26   C31   S    
C13   C14   A    
Cu1   N6    S    
C5    F2    S    
C35   O4    D    
N1    N2    A    
C7    F3    S    
C36   H10   S    
C39   H3    S    
C12   C26   A    
C23   N2    A    
C25   C42   S    
C43   C44   A    
C29   C30   A    
C3    C9    A    
C19   F5    S    
Cu2   O9    S    
C33   H8    S    
C37   H11   S    
C17   C18   A    
Cu2   N5    S    
C40   C41   A    
C16   O13   A    
C22   C24   A    
Cu1   O12   S    
C42   C43   A    
C22   N5    A    
C2    C23   S    
C11   F9    S    
C24   N6    A    
Cu2   O15   S    
C15   C17   A    
C22   C33   S    
C8    C14   A    
C31   O16   D    
C12   C30   A    
C1    C10   S    
C3    C5    A    
C34   N1    A    
C6    C7    A    
C37   O6    D    
C1    O1    A    
C39   O8    D    
Cu2   O13   S    
Cu1   O14   S    
C32   H7    S    
C38   C40   S    
C11   C13   A    
C4    O11   A    
C29   F7    S    
C44   H5    S    
C3    F1    S    
C25   O14   A    
C14   C16   S    
N3    N4    A    
C10   C11   A    
Cu2   O11   S    
C2    C40   A    
C15   C21   A    
C4    O10   A    
C20   C21   A    
C27   C28   A    
C20   N6    A    
C17   C35   S    
C18   C36   S    
