data_mof_unit_54411.cif
_audit_creation_date              2012-12-10T20:52:13-0500
_audit_creation_method            fapswitch 2.2
_symmetry_space_group_name_H-M    P1
_symmetry_Int_Tables_number       1
_space_group_crystal_system       triclinic
_cell_length_a                    10.772615
_cell_length_b                    8.890604
_cell_length_c                    8.237582
_cell_angle_alpha                 89.866849
_cell_angle_beta                  93.271612
_cell_angle_gamma                 90.086448
_cell_volume                      787.666158887

loop_
_atom_site_label
_atom_site_type_symbol
_atom_type_description
_atom_site_fract_x
_atom_site_fract_y
_atom_site_fract_z
_atom_type_partial_charge
C1    C     C_R   0.499870 0.218616 0.500099 0.933512
C2    C     C_R   0.739720 0.500120 0.505115 0.867818
C3    C     C_R   0.164530 0.661875 0.038036 -0.220972
C4    C     C_R   0.795355 0.720318 0.010082 -0.203296
C5    C     C_R   0.090979 0.622670 0.162255 -0.120395
C6    C     C_R   0.846437 0.624744 0.897204 -0.067286
C7    C     C_R   0.083203 0.471295 0.208637 0.091356
C8    C     C_R   0.885214 0.682708 0.749921 0.083057
C9    C     C_R   0.130607 0.357106 0.115522 -0.165946
C10   C     C_R   0.874088 0.837385 0.717705 -0.204467
C11   C     C_R   0.200912 0.395555 0.984969 0.259186
C12   C     C_R   0.500345 0.781388 0.499954 0.932066
C13   C     C_R   0.823420 0.933828 0.831132 0.264808
C14   C     C_R   0.224580 0.549635 0.956771 -0.087138
C15   C     C_R   0.783720 0.874212 0.977481 -0.117514
C16   C     C_R   0.926926 0.420622 0.392101 -0.269342
C17   C     C_R   0.069142 0.588068 0.619760 -0.240739
C18   C     C_3   0.252071 0.272626 0.883324 -0.853040
C19   C     C_3   0.813233 0.099204 0.795303 -0.922498
C20   C     C_R   0.871442 0.495748 0.516448 -0.076963
C21   C     C_R   0.124610 0.509701 0.496736 -0.091515
C22   C     C_R   0.941689 0.583106 0.631037 0.013059
C23   C     C_R   0.050697 0.442452 0.372634 0.006111
C24   C     C_1   0.500111 0.065404 0.500229 -0.210560
C25   C     C_1   0.500330 0.934592 0.499950 -0.197768
C26   C     C_R   0.259005 0.505344 0.497082 0.859260
H1    H     H_    0.290150 0.589904 0.876306 0.183284
H2    H     H_    0.123979 0.662710 0.698000 0.151590
H3    H     H_    0.354445 0.279576 0.883879 0.266689
H4    H     H_    0.228442 0.159511 0.930285 0.208214
H5    H     H_    0.210855 0.280179 0.757218 0.245812
H6    H     H_    0.770355 0.160793 0.895030 0.239900
H7    H     H_    0.907246 0.146836 0.780054 0.239984
H8    H     H_    0.755053 0.117190 0.681325 0.244340
H9    H     H_    0.744448 0.946663 0.066725 0.133748
H10   H     H_    0.180371 0.779227 0.010242 0.140830
H11   H     H_    0.765612 0.675287 0.123597 0.170732
H12   H     H_    0.051451 0.710786 0.233956 0.134166
H13   H     H_    0.856068 0.505916 0.924485 0.136859
H14   H     H_    0.120443 0.240671 0.151880 0.123036
H15   H     H_    0.905108 0.882639 0.604582 0.133104
H16   H     H_    0.871045 0.365993 0.295264 0.159788
N1    N     N_1   0.500020 0.500030 0.073640 -0.048824
N2    N     N_1   0.499980 0.499970 0.926360 -0.074293
O1    O     O_R   0.499990 0.285340 0.636850 -0.621180
O2    O     O_R   0.500010 0.714660 0.363150 -0.618244
O3    O     O_R   0.500010 0.285350 0.363100 -0.612369
O4    O     O_R   0.499990 0.714650 0.636900 -0.612480
O5    O     O_R   0.316750 0.500000 0.636870 -0.653342
O6    O     O_R   0.683250 0.500000 0.363130 -0.640093
O7    O     O_R   0.316770 0.500020 0.363120 -0.595805
O8    O     O_R   0.683230 0.499980 0.636880 -0.611960
Zn1   Zn    Zn3+2 0.499990 0.499990 0.682780 0.947322
Zn2   Zn    Zn3+2 0.500010 0.500010 0.317220 0.968402

loop_
_geom_bond_atom_site_label_1
_geom_bond_atom_site_label_2
_ccdc_geom_bond_type
C8    C22   S    
N1    N2    T    
C11   C18   S    
C18   H4    S    
C14   H1    S    
N1    Zn2   S    
C17   C22   A    
C12   O4    A    
C12   C25   S    
C16   C20   A    
O7    Zn2   S    
O2    Zn2   S    
C4    C15   A    
C21   C23   A    
O1    Zn1   S    
C18   H3    S    
C5    H12   S    
C24   C25   T    
C10   H15   S    
C9    C11   A    
C1    O1    A    
O6    Zn2   S    
C3    C14   A    
C2    O8    A    
C3    H10   S    
O3    Zn2   S    
C7    C23   S    
C19   H6    S    
C8    C10   A    
C21   C26   S    
C20   C22   A    
C16   C23   A    
C5    C7    A    
C13   C15   A    
O4    Zn1   S    
C11   C14   A    
O5    Zn1   S    
C4    C6    A    
C13   C19   S    
C2    C20   S    
C16   H16   S    
C4    H11   S    
C1    C24   S    
C12   O2    A    
C19   H7    S    
C26   O5    A    
C15   H9    S    
C7    C9    A    
C6    H13   S    
C1    O3    A    
C6    C8    A    
C18   H5    S    
C2    O6    A    
C26   O7    A    
C17   H2    S    
N2    Zn1   S    
C10   C13   A    
C9    H14   S    
C17   C21   A    
O8    Zn1   S    
C3    C5    A    
C19   H8    S    
