data_mof_unit_19558.cif
_audit_creation_date              2013-03-05T15:43:42-0500
_audit_creation_method            fapswitch 2.2
_symmetry_space_group_name_H-M    P1
_symmetry_Int_Tables_number       1
_space_group_crystal_system       triclinic
_cell_length_a                    14.98222
_cell_length_b                    10.648797
_cell_length_c                    10.034914
_cell_angle_alpha                 88.406333
_cell_angle_beta                  90.12676
_cell_angle_gamma                 90.089537
_cell_volume                      1600.37147043

loop_
_atom_site_label
_atom_site_type_symbol
_atom_site_description
_atom_site_fract_x
_atom_site_fract_y
_atom_site_fract_z
_atom_type_partial_charge
O1    O     O_R   0.499990 0.319060 0.613040 -0.551874
O2    O     O_R   0.500010 0.319100 0.386900 -0.623687
C1    C     C_R   0.492383 0.262402 0.502118 0.851743
O3    O     O_R   0.367830 0.499950 0.613080 -0.616375
O4    O     O_R   0.367860 0.499990 0.386940 -0.578208
C2    C     C_R   0.326863 0.500040 0.499840 0.914397
Zn1   Zn    Zn3+2 0.499980 0.499970 0.650990 1.042516
Zn2   Zn    Zn3+2 0.500020 0.500030 0.349010 1.052507
O5    O     O_R   0.499990 0.680900 0.613100 -0.595972
O6    O     O_R   0.500010 0.680940 0.386960 -0.588101
O7    O     O_R   0.632140 0.500010 0.613060 -0.629034
O8    O     O_R   0.632170 0.500050 0.386920 -0.635655
C3    C     C_R   0.498052 0.737740 0.497807 0.964018
C4    C     C_R   0.673181 0.499867 0.500103 0.875553
C5    C     C_R   0.814534 0.550808 0.606787 -0.167294
C6    C     C_R   0.768956 0.500030 0.500159 -0.089153
C7    C     C_R   0.814108 0.450492 0.392896 -0.148067
C8    C     C_R   0.906751 0.448568 0.391567 -0.027634
C9    C     C_R   0.953604 0.503132 0.498480 0.015895
C10   C     C_R   0.907169 0.555190 0.607015 0.037104
C11   C     C_R   0.952979 0.395657 0.284435 0.217764
C12   C     C_R   0.046370 0.397770 0.283084 0.219111
C13   C     C_R   0.093027 0.452056 0.389372 -0.023635
C14   C     C_R   0.046548 0.505683 0.496783 0.000750
C15   C     C_R   0.093411 0.560482 0.603384 -0.010881
C16   C     C_R   0.047220 0.615314 0.709226 0.257382
C17   C     C_R   0.953909 0.611574 0.712020 0.098427
C18   C     C_R   0.185684 0.450299 0.392994 -0.103102
C19   C     C_R   0.231216 0.502232 0.498928 -0.086404
C20   C     C_R   0.186104 0.557033 0.603176 -0.098012
H1    H     H_    0.776453 0.588978 0.687398 0.174843
H2    H     H_    0.776109 0.412879 0.311243 0.195676
H3    H     H_    0.223443 0.405776 0.315640 0.202657
H4    H     H_    0.224058 0.596418 0.683980 0.205052
C21   C     C_2   0.445270 0.934929 0.400209 0.365268
C22   C     C_2   0.495459 0.870979 0.490603 -0.376599
H5    H     H_    0.539730 0.918485 0.558831 0.158145
C23   C     C_2   0.454429 0.070593 0.395654 -0.304192
C24   C     C_2   0.461699 0.134019 0.508897 0.069256
H6    H     H_    0.465223 0.115659 0.298549 0.210723
C25   C     C_2   0.571357 0.492198 0.926219 -0.076701
N1    N     N_2   0.500970 0.501330 0.852150 -0.172733
H7    H     H_    0.634915 0.471682 0.880242 0.174076
H8    H     H_    0.446642 0.544451 0.893469 0.219931
C26   C     C_2   0.570124 0.518668 0.072315 -0.039653
N2    N     N_2   0.500990 0.501360 0.147810 -0.034463
H9    H     H_    0.631427 0.551918 0.116989 0.146078
N3    N     N_R   0.431279 0.081286 0.635308 0.220038
O9    O     O_R   0.475552 0.101168 0.744460 -0.324546
O10   O     O_R   0.356674 0.018624 0.642311 -0.294248
I1    I     I_    0.400043 0.375362 0.094162 -0.066710
N4    N     N_R   0.905620 0.340567 0.175934 0.225047
O11   O     O_R   0.857051 0.240612 0.197041 -0.345193
O12   O     O_R   0.918877 0.381622 0.054239 -0.303118
N5    N     N_R   0.093236 0.341026 0.175473 0.232086
O13   O     O_R   0.144659 0.408795 0.097764 -0.295098
O14   O     O_R   0.078975 0.223847 0.148504 -0.261656
N6    N     N_R   0.094914 0.677064 0.812854 0.218878
O15   O     O_R   0.095631 0.629477 0.933610 -0.263872
O16   O     O_R   0.138343 0.780606 0.786208 -0.298368
I2    I     I_    0.886628 0.698366 0.874104 -0.139090
N7    N     N_R   0.384905 0.875766 0.309058 0.245269
O17   O     O_R   0.368373 0.929306 0.193523 -0.298893
O18   O     O_R   0.333651 0.784040 0.350554 -0.341965

loop_
_geom_bond_atom_site_label_1
_geom_bond_atom_site_label_2
_geom_bond_distance
_ccdc_geom_bond_type
O4    Zn2   2.017127 S    
Zn1   O7    2.017125 S    
C13   C14   1.418317 A    
C5    H1    1.079878 S    
C12   N5    1.437090 S    
C10   C17   1.411318 A    
C8    C11   1.411068 A    
C16   N6    1.434455 S    
C25   N1    1.291063 D    
C5    C10   1.388596 A    
C21   C22   1.347671 D    
N7    O18   1.301382 A    
Zn2   O8    2.015289 S    
C21   C23   1.450410 S    
N5    O13   1.300797 A    
N3    O10   1.301909 A    
O2    C1    1.294579 A    
N6    O15   1.300426 A    
C1    C24   1.441528 S    
O1    Zn1   1.974117 S    
C11   C12   1.399434 A    
C14   C15   1.417004 A    
C23   H6    1.086480 S    
C25   H7    1.084223 S    
C16   C17   1.398839 A    
N7    O17   1.301153 A    
N1    H8    1.028856 S    
C22   H5    1.086657 S    
O3    Zn1   2.015293 S    
Zn2   O6    1.974117 S    
C18   C19   1.389084 A    
N4    O12   1.301162 A    
C18   H3    1.081951 S    
C9    C14   1.392859 A    
C21   N7    1.441565 S    
C4    C6    1.434918 S    
N5    O14   1.301400 A    
O4    C2    1.289935 A    
O7    C4    1.290781 A    
Zn2   N2    2.018765 S    
Zn1   N1    2.019099 S    
O3    C2    1.290303 A    
C6    C7    1.389402 A    
C20   H4    1.082996 S    
C19   C20   1.389257 A    
C5    C6    1.389735 A    
C26   N2    1.294556 D    
C2    C19   1.433239 S    
C23   C24   1.342138 D    
N4    O11   1.301168 A    
C3    C22   1.419257 S    
C7    C8    1.388277 A    
C8    C9    1.418255 A    
C26   H9    1.084376 S    
C15   C20   1.389307 A    
Zn1   O5    1.953445 S    
C7    H2    1.082314 S    
O5    C3    1.291007 A    
C12   C13   1.410740 A    
N3    O9    1.301458 A    
C25   C26   1.500752 S    
C17   I2    2.146984 S    
C15   C16   1.409594 A    
C13   C18   1.388741 A    
N6    O16   1.301037 A    
N2    I1    2.099447 S    
C11   N4    1.436628 S    
O2    Zn2   1.953443 S    
C9    C10   1.419749 A    
O8    C4    1.290089 A    
C24   N3    1.447181 S    
O1    C1    1.285518 A    
O6    C3    1.281265 A    
