data_mof_unit_30116.cif
_audit_creation_date              2013-03-05T16:13:56-0500
_audit_creation_method            fapswitch 2.2
_symmetry_space_group_name_H-M    P1
_symmetry_Int_Tables_number       1
_space_group_crystal_system       triclinic
_cell_length_a                    10.65038
_cell_length_b                    9.798722
_cell_length_c                    17.168076
_cell_angle_alpha                 90.179561
_cell_angle_beta                  90.816385
_cell_angle_gamma                 89.532054
_cell_volume                      1791.4125705

loop_
_atom_site_label
_atom_site_type_symbol
_atom_site_description
_atom_site_fract_x
_atom_site_fract_y
_atom_site_fract_z
_atom_type_partial_charge
O1    O     O_R   0.316770 0.614620 0.500000 -0.603538
O2    O     O_R   0.683230 0.385380 0.500000 -0.598762
O3    O     O_R   0.683230 0.614620 0.500000 -0.620279
O4    O     O_R   0.316770 0.385380 0.500000 -0.607959
C1    C     C_R   0.260211 0.500699 0.498935 1.022410
C2    C     C_R   0.739816 0.499288 0.499896 0.989615
O5    O     O_R   0.500010 0.614710 0.389120 -0.591501
O6    O     O_R   0.499990 0.385290 0.610880 -0.593976
O7    O     O_R   0.499990 0.614710 0.610880 -0.575709
O8    O     O_R   0.500010 0.385290 0.389120 -0.576353
C3    C     C_R   0.063535 0.442287 0.434903 0.196720
C4    C     C_R   0.936644 0.559849 0.562471 0.204680
C5    C     C_R   0.933618 0.438939 0.436425 0.206384
C6    C     C_R   0.066295 0.563655 0.560665 0.201127
C7    C     C_R   0.503809 0.499613 0.351771 1.001734
C8    C     C_R   0.499579 0.500240 0.648366 1.020631
Zn1   Zn    Zn3+2 0.500000 0.653120 0.500000 1.085819
Zn2   Zn    Zn3+2 0.500000 0.346880 0.500000 1.088578
C9    C     C_R   0.872155 0.497130 0.500337 -0.338384
C10   C     C_R   0.127886 0.503083 0.497694 -0.347588
N1    N     N_R   0.500000 0.857200 0.500000 -0.111628
N2    N     N_R   0.500000 0.142800 0.500000 -0.110806
C11   C     C_R   0.612895 0.611912 0.848117 0.212397
C12   C     C_R   0.596596 0.363488 0.153813 0.204834
C13   C     C_R   0.628913 0.609744 0.156159 0.210269
C14   C     C_R   0.578769 0.365891 0.849006 0.199837
C15   C     C_R   0.558652 0.620310 0.773321 0.232607
C16   C     C_R   0.542034 0.370184 0.227532 0.228744
C17   C     C_R   0.575194 0.617597 0.230194 0.197485
C18   C     C_R   0.523833 0.373246 0.774398 0.194119
C19   C     C_R   0.520222 0.499484 0.734027 -0.299675
C20   C     C_R   0.533748 0.497145 0.267570 -0.320885
C21   C     C_R   0.590237 0.071513 0.540295 0.044575
C22   C     C_R   0.409812 0.928492 0.459663 0.044719
C23   C     C_R   0.409864 0.072656 0.459613 0.033955
C24   C     C_R   0.590354 0.927347 0.540178 0.037971
C25   C     C_R   0.624442 0.484720 0.884896 -0.191097
C26   C     C_R   0.638370 0.483110 0.118347 -0.178327
C27   C     C_1   0.650748 0.481727 0.966588 0.194805
C28   C     C_1   0.655242 0.481389 0.036086 0.193227
H1    H     H_    0.662162 0.125942 0.572521 0.168945
H2    H     H_    0.337862 0.874067 0.427465 0.174181
H3    H     H_    0.337916 0.127973 0.427408 0.188292
H4    H     H_    0.662638 0.872001 0.572041 0.188446
N3    N     N_R   0.651975 0.733831 0.888112 0.254336
O9    O     O_R   0.765053 0.742174 0.917277 -0.226351
O10   O     O_R   0.574870 0.836596 0.895549 -0.200416
N4    N     N_R   0.604396 0.235278 0.113177 0.255696
O11   O     O_R   0.505312 0.159805 0.103895 -0.210073
O12   O     O_R   0.711028 0.193971 0.085144 -0.214591
N5    N     N_R   0.670026 0.731663 0.118032 0.253420
O13   O     O_R   0.597150 0.838695 0.113791 -0.195293
O14   O     O_R   0.780753 0.735625 0.087136 -0.233818
N6    N     N_R   0.583127 0.238217 0.889929 0.255323
O15   O     O_R   0.689518 0.191227 0.917130 -0.222894
O16   O     O_R   0.481168 0.168492 0.899855 -0.210576
N7    N     N_R   0.544630 0.751956 0.737649 0.251244
O17   O     O_R   0.641544 0.830509 0.729966 -0.266665
O18   O     O_R   0.432946 0.799803 0.721553 -0.246966
N8    N     N_R   0.495287 0.246908 0.261041 0.253468
O19   O     O_R   0.375787 0.234253 0.273517 -0.271998
O20   O     O_R   0.570169 0.143239 0.272972 -0.235860
N9    N     N_R   0.565240 0.748561 0.267190 0.257077
O21   O     O_R   0.455691 0.806643 0.274315 -0.288253
O22   O     O_R   0.666061 0.816443 0.285280 -0.267941
N10   N     N_R   0.471380 0.251984 0.740249 0.255746
O23   O     O_R   0.538977 0.141313 0.734311 -0.270940
O24   O     O_R   0.354407 0.250863 0.717302 -0.273224
N11   N     N_R   0.129662 0.387080 0.369365 0.246985
O25   O     O_R   0.102649 0.266386 0.342467 -0.250085
O26   O     O_R   0.210852 0.461248 0.333093 -0.347984
N12   N     N_R   0.871036 0.612684 0.628778 0.235227
O27   O     O_R   0.892392 0.735727 0.654053 -0.262541
O28   O     O_R   0.795585 0.534553 0.667003 -0.403808
N13   N     N_R   0.864020 0.386310 0.370830 0.225440
O29   O     O_R   0.869962 0.446689 0.303620 -0.314770
O30   O     O_R   0.807029 0.269839 0.375891 -0.297918
N14   N     N_R   0.135870 0.619724 0.625146 0.249462
O31   O     O_R   0.188677 0.538886 0.676086 -0.319343
O32   O     O_R   0.158423 0.749917 0.627884 -0.261760

loop_
_geom_bond_atom_site_label_1
_geom_bond_atom_site_label_2
_geom_bond_distance
_ccdc_geom_bond_type
N10   O24   1.301370 A    
N9    O22   1.301062 A    
C11   N3    1.437615 S    
O2    Zn2   1.990622 S    
C22   H2    1.081634 S    
O3    C2    1.276418 A    
C17   N9    1.433893 S    
C7    C20   1.484829 S    
N1    C24   1.364989 A    
N3    O9    1.300750 A    
C8    C19   1.483902 S    
N2    C23   1.365120 A    
O1    C1    1.272720 A    
O7    C8    1.294988 A    
C17   C20   1.421605 A    
O8    C7    1.293706 A    
C18   C19   1.419790 A    
N14   O32   1.300646 A    
N7    O18   1.301292 A    
C21   C24   1.412630 A    
N8    O20   1.301269 A    
C22   C23   1.412628 A    
N3    O10   1.301273 A    
N11   O26   1.300809 A    
C5    N13   1.436105 S    
O5    Zn1   1.939292 S    
C12   C26   1.401184 A    
C11   C15   1.402915 A    
C23   H3    1.081524 S    
O4    Zn2   1.984573 S    
N4    O12   1.300777 A    
N10   O23   1.301281 A    
C4    N12   1.437094 S    
O6    C8    1.295515 A    
O2    C2    1.272805 A    
C14   N6    1.436840 S    
C16   N8    1.435384 S    
C13   C17   1.402926 A    
N6    O16   1.301201 A    
C3    C10   1.402958 A    
C5    C9    1.402866 A    
C15   C19   1.421042 A    
N5    O13   1.301234 A    
C12   N4    1.437482 S    
C6    C10   1.400413 A    
C16   C20   1.422147 A    
N12   O28   1.300291 A    
C15   N7    1.435461 S    
C27   C28   1.193449 T    
C1    C10   1.409168 S    
N14   O31   1.300628 A    
N12   O27   1.300786 A    
N1    C22   1.365035 A    
C11   C25   1.402624 A    
O6    Zn2   1.939290 S    
N8    O19   1.300603 A    
N5    O14   1.300882 A    
N13   O29   1.300930 A    
C13   N5    1.438395 S    
C2    C9    1.409353 S    
C13   C26   1.402147 A    
N13   O30   1.300724 A    
C18   N10   1.436939 S    
O7    Zn1   1.941605 S    
N4    O11   1.301216 A    
C4    C6    1.382430 A    
C14   C18   1.402379 A    
C24   H4    1.081230 S    
N2    C21   1.365013 A    
N6    O15   1.300667 A    
Zn2   N2    1.999723 S    
C12   C16   1.401280 A    
O4    C1    1.276219 A    
C3    N11   1.437760 S    
C14   C25   1.402947 A    
O1    Zn1   1.990623 S    
C21   H1    1.081703 S    
C25   C27   1.426624 S    
C26   C28   1.426213 S    
C3    C5    1.384942 A    
N7    O17   1.301058 A    
O8    Zn2   1.941606 S    
C4    C9    1.403294 A    
O5    C7    1.296219 A    
O3    Zn1   1.984572 S    
C6    N14   1.433839 S    
N11   O25   1.301167 A    
Zn1   N1    1.999723 S    
N9    O21   1.301124 A    
