data_mof_unit_20071.cif
_audit_creation_date              2013-03-05T15:45:36-0500
_audit_creation_method            fapswitch 2.2
_symmetry_space_group_name_H-M    P1
_symmetry_Int_Tables_number       1
_space_group_crystal_system       triclinic
_cell_length_a                    8.605405
_cell_length_b                    14.858855
_cell_length_c                    19.222811
_cell_angle_alpha                 93.035023
_cell_angle_beta                  93.582972
_cell_angle_gamma                 92.293992
_cell_volume                      2447.39067542

loop_
_atom_site_label
_atom_site_type_symbol
_atom_site_description
_atom_site_fract_x
_atom_site_fract_y
_atom_site_fract_z
_atom_type_partial_charge
P1    P     P_3+3 0.937730 0.712710 0.546710 0.470184
O1    O     O_2   0.108370 0.727470 0.525290 -0.405989
O2    O     O_3   0.865330 0.611210 0.531230 -0.394374
O3    O     O_3   0.346360 0.671710 0.401620 -0.404217
O4    O     O_2   0.240959 0.834003 0.425250 -0.291971
O5    O     O_3   0.942014 0.745514 0.637916 -0.581247
O6    O     O_3   0.367171 0.800001 0.305920 -0.534107
H1    H     H_    0.368295 0.667346 0.266059 0.142471
C1    C     C_3   0.506296 0.755390 0.203248 -0.472427
P2    P     P_3+3 0.357970 0.428340 0.344000 0.499604
P3    P     P_3+3 0.907056 0.607226 0.276546 0.402303
O7    O     O_2   0.182890 0.456530 0.332150 -0.357988
O8    O     O_3   0.933230 0.625130 0.368420 -0.399442
O9    O     O_2   0.057201 0.570087 0.247504 -0.409670
O10   O     O_3   0.304591 0.313574 0.330358 -0.523573
O11   O     O_3   0.876640 0.710359 0.236835 -0.622137
C2    C     C_3   0.006324 0.772305 0.242487 0.151007
H2    H     H_    0.115868 0.737274 0.252446 0.138857
C3    C     C_3   0.016966 0.818956 0.170635 -0.150978
C4    C     C_3   0.845699 0.341791 0.325892 0.341933
H3    H     H_    0.730897 0.371169 0.329738 0.019387
H4    H     H_    0.935786 0.392130 0.347153 0.148600
C5    C     C_3   0.873284 0.321930 0.248260 -0.764856
H5    H     H_    0.761259 0.318642 0.216862 0.158914
H6    H     H_    0.941806 0.379582 0.229278 0.173598
Ba1   Ba    Ba6+2 0.150350 0.545800 0.464500 1.566171
C6    C     C_3   0.025183 0.696338 0.688693 0.251622
C7    C     C_3   0.905297 0.647188 0.733204 -0.662471
H7    H     H_    0.901749 0.574142 0.719345 0.203788
H8    H     H_    0.789525 0.669974 0.719073 0.202691
C8    C     C_3   0.426240 0.256364 0.343434 0.376949
H9    H     H_    0.527470 0.291408 0.372876 0.078780
C9    C     C_3   0.477386 0.209138 0.275658 -0.679436
H10   H     H_    0.400567 0.148418 0.259344 0.220453
H11   H     H_    0.596945 0.186017 0.286442 0.252648
P4    P     P_3+3 0.872570 0.287280 0.453240 0.507333
O12   O     O_2   0.701930 0.272470 0.474700 -0.363268
O13   O     O_3   0.944970 0.388780 0.468720 -0.413654
O14   O     O_3   0.463940 0.328280 0.598320 -0.369829
O15   O     O_3   0.846485 0.262928 0.362763 -0.527967
P5    P     P_3+3 0.901870 0.378009 0.723830 0.486816
O16   O     O_3   0.372010 0.546630 0.581240 -0.431544
O17   O     O_3   0.877070 0.374860 0.631520 -0.354640
O18   O     O_2   0.764511 0.431379 0.750421 -0.400581
O19   O     O_3   0.860826 0.268823 0.751087 -0.520277
Ba2   Ba    Ba6+2 0.659830 0.454190 0.535450 1.572061
P6    P     P_3+3 0.382401 0.786884 0.396037 0.505632
C10   C     C_3   0.445724 0.729249 0.273222 0.182461
H12   H     H_    0.551470 0.713176 0.305098 0.051772
H13   H     H_    0.603831 0.711277 0.192618 0.176972
O20   O     O_3   0.438280 0.453360 0.418700 -0.405195
C11   C     C_3   0.523120 0.741006 0.672682 0.341851
H14   H     H_    0.622284 0.713077 0.645998 0.098583
C12   C     C_3   0.579857 0.815387 0.730753 -0.477058
H15   H     H_    0.482737 0.860750 0.739691 0.187839
P7    P     P_3+3 0.448293 0.562702 0.670190 0.440211
O21   O     O_2   0.627420 0.543410 0.667830 -0.376049
O22   O     O_3   0.435683 0.674334 0.704009 -0.578388
C13   C     C_3   0.919004 0.199765 0.707618 0.354948
H16   H     H_    0.026439 0.221576 0.684446 0.112416
C14   C     C_3   0.951547 0.117414 0.752137 -0.563566
H17   H     H_    0.845600 0.072319 0.751955 0.228976
H18   H     H_    0.982695 0.139191 0.807559 0.255246
P8    P     P_3+3 0.437969 0.209604 0.598260 0.520220
C15   C     C_3   0.491128 0.230067 0.737560 0.301801
O23   O     O_2   0.562807 0.170893 0.552536 -0.368383
O24   O     O_3   0.488781 0.165699 0.680560 -0.508875
H19   H     H_    0.562316 0.290591 0.725617 0.126371
C16   C     C_3   0.567321 0.189796 0.804304 -0.465325
H20   H     H_    0.678029 0.162818 0.790922 0.202669
C17   C     C_R   0.008745 0.940816 0.531695 -0.032966
C18   C     C_R   0.821281 0.804913 0.501565 0.335294
C19   C     C_R   0.665858 0.779211 0.479361 -0.358896
C20   C     C_R   0.575230 0.834091 0.436291 0.156661
C21   C     C_R   0.636361 0.921158 0.420983 -0.141529
C22   C     C_R   0.774636 0.958750 0.458180 0.030401
C23   C     C_R   0.870509 0.900544 0.497223 0.049724
C24   C     C_R   0.951979 0.094482 0.492893 0.013158
C25   C     C_R   0.056491 0.034509 0.526374 0.006767
C26   C     C_R   0.989314 0.192057 0.496712 0.152237
C27   C     C_R   0.132842 0.220807 0.531453 -0.394820
C28   C     C_R   0.241299 0.162938 0.559328 0.128957
C29   C     C_R   0.204826 0.070436 0.556339 -0.273766
C30   C     C_R   0.815509 0.053971 0.457719 -0.040078
H21   H     H_    0.739201 0.097866 0.430473 0.205403
C31   C     C_R   0.615605 0.520187 0.294507 -0.336780
C32   C     C_R   0.471832 0.477078 0.272619 0.229874
C33   C     C_R   0.431554 0.464290 0.199107 -0.088808
C34   C     C_R   0.545043 0.484712 0.149874 0.070467
C35   C     C_R   0.695582 0.515525 0.176244 -0.347369
C36   C     C_R   0.729242 0.537162 0.247329 0.254936
C37   C     C_R   0.533865 0.546918 0.025986 -0.026292
C38   C     C_R   0.454992 0.546627 0.959257 -0.026455
C39   C     C_R   0.371858 0.468049 0.930098 0.117755
C40   C     C_R   0.358644 0.393830 0.972221 -0.152801
C41   C     C_R   0.419632 0.398723 0.041872 -0.140700
C42   C     C_R   0.504492 0.476039 0.071398 0.051810
C43   C     C_R   0.145710 0.433883 0.835939 -0.183108
C44   C     C_R   0.092016 0.431238 0.763848 0.242610
C45   C     C_R   0.344807 0.494521 0.733545 0.355112
C46   C     C_R   0.402966 0.488820 0.802575 -0.315412
C47   C     C_R   0.304642 0.462743 0.855364 -0.022852
C48   C     C_R   0.190592 0.466979 0.716583 -0.308528
H22   H     H_    0.524142 0.507922 0.815458 0.171276
H23   H     H_    0.297379 0.332102 0.951720 0.159646
H24   H     H_    0.400856 0.341014 0.072877 0.139556
H25   H     H_    0.787987 0.525200 0.142036 0.202485
H26   H     H_    0.146557 0.471596 0.664550 0.178706
C49   C     C_2   0.954288 0.235628 0.233686 1.274827
O25   O     O_2   0.082002 0.237961 0.209449 -0.679939
O26   O     O_R   0.880970 0.152743 0.245676 -0.757524
H27   H     H_    0.946908 0.099714 0.233774 0.329157
C50   C     C_2   0.130281 0.761376 0.736078 1.081020
O27   O     O_2   0.127860 0.842633 0.730223 -0.605252
O28   O     O_R   0.223849 0.728173 0.790104 -0.820239
H28   H     H_    0.273234 0.778323 0.823023 0.321935
N1    N     N_3   0.121750 0.630854 0.656389 -0.224327
H29   H     H_    0.198852 0.663927 0.626084 0.168708
H30   H     H_    0.052462 0.585538 0.623525 0.159940
C51   C     C_2   0.920868 0.660711 0.811988 1.082223
O29   O     O_2   0.924504 0.736523 0.840276 -0.599935
O30   O     O_R   0.918960 0.585985 0.852640 -0.797454
H31   H     H_    0.921837 0.603896 0.904333 0.361988
C52   C     C_2   0.362313 0.184374 0.385983 1.021561
O31   O     O_2   0.222433 0.164521 0.382167 -0.589343
O32   O     O_R   0.464078 0.135433 0.425583 -0.806176
H32   H     H_    0.406203 0.086320 0.448658 0.367825
C53   C     C_2   0.392026 0.735525 0.141537 1.130742
O33   O     O_2   0.370368 0.791790 0.098130 -0.591307
O34   O     O_R   0.321868 0.649145 0.130616 -0.837562
H33   H     H_    0.260733 0.639859 0.083806 0.334604
N2    N     N_3   0.478276 0.268669 0.218014 -0.193779
H34   H     H_    0.363740 0.271920 0.197616 0.220604
H35   H     H_    0.536132 0.236450 0.178101 0.141568
N3    N     N_3   0.420502 0.780209 0.620512 -0.220436
H36   H     H_    0.484216 0.827082 0.594508 0.119167
H37   H     H_    0.334604 0.814415 0.645301 0.129005
N4    N     N_3   0.621483 0.775862 0.797404 -0.172996
H38   H     H_    0.647356 0.828290 0.835412 0.177930
H39   H     H_    0.524399 0.741850 0.814625 0.176928
C54   C     C_2   0.715019 0.874076 0.709900 1.128598
O35   O     O_2   0.832702 0.885974 0.748774 -0.568897
O36   O     O_R   0.703247 0.918740 0.648050 -0.836610
H40   H     H_    0.800512 0.956684 0.640763 0.308028
N5    N     N_3   0.566793 0.849000 0.207174 -0.187633
H41   H     H_    0.479258 0.894154 0.214850 0.179997
H42   H     H_    0.646759 0.857355 0.250332 0.156635
N6    N     N_3   0.873231 0.862638 0.149897 -0.195123
H43   H     H_    0.846341 0.909725 0.189152 0.126060
H44   H     H_    0.783733 0.813559 0.141327 0.178969
N7    N     N_3   0.803437 0.172901 0.650989 -0.131165
H45   H     H_    0.833906 0.112815 0.625860 0.071534
H46   H     H_    0.809443 0.220446 0.613329 0.177699
N8    N     N_3   0.075067 0.063495 0.725814 -0.129172
H47   H     H_    0.180621 0.100442 0.733185 0.205427
H48   H     H_    0.052248 0.052569 0.672304 0.112481
C55   C     C_2   0.330390 0.258207 0.749767 0.796192
O37   O     O_2   0.259410 0.294475 0.703536 -0.673559
O38   O     O_R   0.260927 0.242462 0.811956 -0.834377
H49   H     H_    0.149410 0.260270 0.811022 0.349120
N9    N     N_3   0.602508 0.259182 0.861035 -0.195146
H50   H     H_    0.500132 0.280301 0.881584 0.172764
H51   H     H_    0.654813 0.316125 0.841171 0.194905
C56   C     C_2   0.477311 0.109249 0.829377 1.162468
O39   O     O_2   0.431844 0.110680 0.888475 -0.606698
O40   O     O_R   0.449380 0.032046 0.785127 -0.760500
H52   H     H_    0.385886 0.983511 0.807169 0.325437
N10   N     N_3   0.597882 0.699370 0.506471 -0.177955
H53   H     H_    0.480408 0.706106 0.513959 0.162209
H54   H     H_    0.604914 0.644524 0.471722 0.162671
C57   C     C_2   0.568706 0.968926 0.360919 1.034187
O41   O     O_2   0.427831 0.972206 0.349619 -0.564717
O42   O     O_R   0.668978 0.009501 0.316139 -0.792425
H55   H     H_    0.611410 0.032660 0.273629 0.315539
C58   C     C_2   0.333630 0.014026 0.579248 1.051866
O43   O     O_2   0.362637 0.003411 0.641208 -0.593372
O44   O     O_R   0.425430 0.975799 0.529653 -0.817146
H56   H     H_    0.528827 0.957812 0.550916 0.341731
C59   C     C_2   0.177709 0.314300 0.535870 1.131279
O45   O     O_2   0.135781 0.361904 0.583166 -0.636860
O46   O     O_R   0.274931 0.348459 0.488832 -0.756020
H57   H     H_    0.314296 0.409921 0.508122 0.384777
N11   N     N_3   0.090832 0.888098 0.579561 -0.172769
H58   H     H_    0.104102 0.922135 0.628104 0.168441
H59   H     H_    0.196249 0.872446 0.559505 0.168969
N12   N     N_3   0.460661 0.628219 0.922410 -0.180220
H60   H     H_    0.550878 0.625521 0.888693 0.116394
H61   H     H_    0.354094 0.636539 0.894899 0.178634
C60   C     C_2   0.663281 0.615000 0.039043 0.944595
O47   O     O_2   0.796905 0.591352 0.034961 -0.660533
O48   O     O_R   0.632655 0.706536 0.041327 -0.782237
H62   H     H_    0.728882 0.745883 0.034783 0.319114
C61   C     C_2   0.989951 0.840659 0.302962 1.076177
O49   O     O_2   0.082548 0.905065 0.313094 -0.547680
O50   O     O_R   0.872713 0.831657 0.349106 -0.794829
H63   H     H_    0.800100 0.776791 0.339918 0.291091
N13   N     N_3   0.277915 0.432318 0.173078 -0.208461
H64   H     H_    0.220872 0.486267 0.151959 0.200413
H65   H     H_    0.211998 0.409143 0.212387 0.180536
C62   C     C_2   0.039562 0.408798 0.890658 1.075742
O51   O     O_2   0.037901 0.456349 0.944506 -0.613900
O52   O     O_R   0.946691 0.329476 0.882699 -0.793565
H66   H     H_    0.887066 0.318209 0.925474 0.326277
N14   N     N_3   0.644292 0.547850 0.366231 -0.158406
H67   H     H_    0.738228 0.514039 0.387778 0.163329
H68   H     H_    0.665108 0.617302 0.369586 0.103772
N15   N     N_3   0.145476 0.887261 0.172881 -0.161210
H69   H     H_    0.234013 0.869539 0.207809 0.171176
H70   H     H_    0.109862 0.950345 0.190877 0.158055
N16   N     N_3   0.045413 0.749767 0.116428 -0.160371
H71   H     H_    0.040114 0.778354 0.067756 0.175511
H72   H     H_    0.958197 0.698732 0.114512 0.202966

loop_
_geom_bond_atom_site_label_1
_geom_bond_atom_site_label_2
_geom_bond_distance
_ccdc_geom_bond_type
C44   C48   1.392291 A    
C57   O41   1.221528 D    
C21   C22   1.427353 A    
O32   H32   1.005059 S    
C29   C58   1.475633 S    
C3    N16   1.463289 S    
C19   C20   1.414341 A    
C2    C61   1.519773 S    
C40   C41   1.404335 A    
C16   C56   1.515985 S    
C32   C33   1.434640 A    
C53   O33   1.223441 D    
C22   C30   1.444827 A    
C17   C25   1.446352 A    
C27   C28   1.395739 A    
N3    H36   1.037362 S    
C58   O44   1.388632 S    
C8    H9    1.105074 S    
O42   H55   1.012127 S    
C37   C60   1.474658 S    
O14   P8    1.768528 S    
C57   O42   1.398272 S    
C56   O40   1.395107 S    
C38   C39   1.415257 A    
C56   O39   1.223830 D    
C16   N9    1.469205 S    
C8    C52   1.489176 S    
C31   C36   1.399175 A    
N1    H30   1.041012 S    
O38   H49   1.004955 S    
C15   C16   1.562573 S    
C4    O15   1.401255 S    
P3    O9    1.549257 D    
C24   C26   1.469419 A    
N13   H64   1.043759 S    
O28   H28   1.013612 S    
P7    O21   1.582113 D    
N13   H65   1.037695 S    
P1    O1    1.559894 D    
O16   Ba2   3.035262 S    
C14   H18   1.110150 S    
C45   C46   1.396695 A    
C40   H23   1.082399 S    
N5    H42   1.043129 S    
C54   O35   1.221622 D    
C30   H21   1.076284 S    
N16   H71   1.046988 S    
C55   O37   1.209337 D    
O19   C13   1.415776 S    
O26   H27   1.013955 S    
C51   O30   1.391340 S    
C62   O51   1.223135 D    
C15   O24   1.414368 S    
N7    H45   1.043112 S    
C8    C9    1.543727 S    
P4    Ba2   3.508529 S    
C48   H26   1.053900 S    
P7    O22   1.759189 S    
C49   O25   1.220167 D    
N8    H48   1.038017 S    
O12   Ba2   2.929687 S    
C12   N4    1.467611 S    
O16   P7    1.793195 S    
C38   N12   1.436799 S    
P2    Ba1   3.455799 S    
N10   H54   1.032152 S    
N6    H44   1.038547 S    
C13   H16   1.095878 S    
C55   O38   1.396023 S    
C14   N8    1.456101 S    
C3    N15   1.467817 S    
O52   H66   1.013815 S    
P5    O17   1.771863 S    
C60   O47   1.221715 D    
C19   N10   1.438469 S    
P2    O20   1.573734 S    
N9    H51   1.043794 S    
C11   C12   1.569719 S    
C37   C42   1.427851 A    
N5    H41   1.040783 S    
C22   C23   1.428426 A    
C6    N1    1.445057 S    
C5    C49   1.505569 S    
P2    C32   1.893081 S    
C13   C14   1.554486 S    
P1    C18   1.939430 S    
C20   C21   1.429056 A    
O48   H62   1.012620 S    
C1    C53   1.501727 S    
C46   C47   1.420732 A    
C17   N11   1.413729 S    
P4    O15   1.756209 S    
N6    H43   1.044670 S    
C27   C59   1.423593 S    
C15   C55   1.489851 S    
P4    C26   1.960511 S    
C31   C32   1.400364 A    
O11   C2    1.412964 S    
O50   H63   1.008186 S    
C61   O50   1.391456 S    
O46   H57   1.004973 S    
C11   O22   1.403686 S    
Ba2   O20   2.851684 S    
C28   C29   1.394936 A    
C45   C48   1.386816 A    
N15   H69   1.035114 S    
C34   C42   1.524484 S    
P1    O2    1.614121 S    
C54   O36   1.392154 S    
O6    P6    1.750851 S    
C33   N13   1.437331 S    
N11   H58   1.035192 S    
P8    O24   1.779137 S    
C18   C23   1.474574 A    
P3    C36   1.855740 S    
N11   H59   1.037673 S    
O4    P6    1.548876 D    
P3    O11   1.769340 S    
O5    C6    1.424415 S    
C4    C5    1.540672 S    
C5    H5    1.102902 S    
C15   H19   1.110007 S    
C41   C42   1.409684 A    
C12   C54   1.512659 S    
P5    C44   1.889287 S    
C2    H2    1.106124 S    
C39   C40   1.407415 A    
O1    Ba1   2.929103 S    
C33   C34   1.436568 A    
P8    C28   1.896839 S    
N8    H47   1.040339 S    
P2    O7    1.585881 D    
O44   H56   1.007644 S    
O14   Ba2   2.836188 S    
C6    C50   1.521644 S    
C9    N2    1.454187 S    
N2    H35   1.045796 S    
N10   H53   1.037996 S    
N14   H68   1.038244 S    
C43   C44   1.431155 A    
C46   H22   1.079740 S    
N16   H72   1.042949 S    
Ba2   O21   2.841117 S    
C7    C51   1.513979 S    
O40   H52   1.013870 S    
P5    O18   1.547574 D    
O8    Ba1   2.875251 S    
P7    C45   1.869908 S    
N12   H61   1.044673 S    
P4    O13   1.614123 S    
C34   C35   1.410903 A    
C31   N14   1.421299 S    
C17   C23   1.419436 A    
C11   H14   1.106377 S    
Ba1   O16   2.852129 S    
C52   O32   1.378926 S    
C50   O27   1.219416 D    
N3    H37   1.039346 S    
C41   H24   1.082427 S    
C12   H15   1.110465 S    
C7    H7    1.102574 S    
C4    H3    1.101011 S    
C24   C25   1.438655 A    
O2    Ba1   3.009634 S    
Ba1   O13   2.877774 S    
C1    H13   1.107775 S    
P6    C20   1.879676 S    
C4    H4    1.099590 S    
C18   C19   1.409741 A    
C53   O34   1.396271 S    
C35   H25   1.073137 S    
O3    Ba1   2.836899 S    
O10   C8    1.393792 S    
N4    H39   1.039922 S    
C13   N7    1.456115 S    
O2    Ba2   2.878379 S    
N1    H29   1.036148 S    
C3    N6    1.462929 S    
C43   C62   1.487981 S    
P2    O10   1.750044 S    
O6    C10   1.413245 S    
C49   O26   1.397851 S    
O34   H33   1.013604 S    
N12   H60   1.042612 S    
C7    H8    1.088064 S    
C58   O43   1.221344 D    
C43   C47   1.437405 A    
H1    C10   1.111319 S    
C21   C57   1.487172 S    
P3    O8    1.770958 S    
C35   C36   1.396781 A    
P1    Ba1   3.507935 S    
C50   O28   1.397084 S    
N9    H50   1.040746 S    
C10   H12   1.106244 S    
C1    N5    1.461990 S    
C37   C38   1.412943 A    
C9    H11   1.108487 S    
C9    H10   1.116139 S    
N2    H34   1.041662 S    
N7    H46   1.040078 S    
C14   H17   1.109352 S    
O17   Ba2   2.875779 S    
C16   H20   1.088470 S    
C26   C27   1.406577 A    
O13   Ba2   3.010514 S    
N4    H38   1.046793 S    
Ba1   Ba2   4.689037 S    
C59   O45   1.204338 D    
C25   C29   1.437763 A    
C2    C3    1.583893 S    
C24   C30   1.414124 A    
C5    H6    1.110957 S    
N14   H67   1.044075 S    
C39   C47   1.511647 S    
C1    C10   1.535769 S    
P4    O12   1.560235 D    
C61   O49   1.220058 D    
O7    Ba1   2.841116 S    
P1    O5    1.792414 S    
N15   H70   1.046011 S    
C11   N3    1.455060 S    
P5    O19   1.760296 S    
C51   O29   1.223047 D    
C59   O46   1.372708 S    
C60   O48   1.394674 S    
O30   H31   1.013537 S    
Ba1   O20   3.036127 S    
C62   O52   1.393381 S    
O36   H40   1.011592 S    
P8    O23   1.539940 D    
C52   O31   1.224582 D    
C6    C7    1.563973 S    
O3    P6    1.737109 S    
