data_mof_unit_19668.cif
_audit_creation_date              2012-12-10T17:31:04-0500
_audit_creation_method            fapswitch 2.2
_symmetry_space_group_name_H-M    P1
_symmetry_Int_Tables_number       1
_space_group_crystal_system       triclinic
_cell_length_a                    12.005127
_cell_length_b                    12.898121
_cell_length_c                    15.559037
_cell_angle_alpha                 87.102646
_cell_angle_beta                  117.27024
_cell_angle_gamma                 93.386158
_cell_volume                      2136.95786451

loop_
_atom_site_label
_atom_site_type_symbol
_atom_type_description
_atom_site_fract_x
_atom_site_fract_y
_atom_site_fract_z
_atom_type_partial_charge
C1    C     C_R   0.477282 0.299414 0.498464 0.895875
C2    C     C_R   0.647255 0.970706 0.495436 -0.197017
C3    C     C_R   0.360850 0.136790 0.502567 -0.161751
C4    C     C_R   0.639296 0.863222 0.497729 -0.174815
C5    C     C_R   0.558731 0.132741 0.494888 -0.268889
C6    C     C_R   0.441423 0.867256 0.505418 -0.270062
C7    C     C_R   0.551896 0.026027 0.497599 0.180695
C8    C     C_R   0.448295 0.973976 0.502775 0.176752
C9    C     C_R   0.001455 0.602342 0.410653 -0.112788
C10   C     C_R   0.992932 0.389861 0.580831 -0.102650
C11   C     C_R   0.124240 0.593172 0.422560 -0.078008
C12   C     C_R   0.522740 0.700586 0.501583 0.896775
C13   C     C_R   0.873459 0.403705 0.573998 -0.077729
C14   C     C_R   0.160657 0.453677 0.535287 -0.011605
C15   C     C_R   0.839101 0.545904 0.464284 -0.012467
C16   C     C_R   0.578450 0.492139 0.681339 0.873326
C17   C     C_R   0.421454 0.507088 0.318628 0.872848
C18   C     C_R   0.037940 0.458317 0.527689 0.026895
C19   C     C_R   0.957971 0.535960 0.466084 0.022834
C20   C     C_R   0.629514 0.481747 0.787219 -0.162854
C21   C     C_R   0.369874 0.513536 0.212582 -0.162164
C22   C     C_R   0.784265 0.438558 0.950765 -0.079995
C23   C     C_R   0.643110 0.473394 0.116053 -0.260040
C24   C     C_R   0.214048 0.551137 0.048093 -0.083750
C25   C     C_R   0.748663 0.443638 0.851236 -0.032571
C26   C     C_R   0.250300 0.549961 0.147671 -0.040073
C27   C     C_R   0.549714 0.508719 0.824118 -0.224564
C28   C     C_R   0.448936 0.482934 0.176326 -0.207464
C29   C     C_R   0.575334 0.486116 0.919692 0.079475
C30   C     C_R   0.422700 0.501267 0.080068 0.079438
C31   C     C_R   0.698094 0.456750 0.986155 0.079868
C32   C     C_R   0.299858 0.530255 0.013055 0.083647
C33   C     C_R   0.481778 0.495684 0.950174 0.087024
C34   C     C_R   0.354470 0.509802 0.883502 -0.305961
C35   C     C_R   0.515970 0.489248 0.049616 0.078079
C36   C     C_2   0.857641 0.423006 0.162861 0.462719
C37   C     C_2   0.139760 0.559946 0.835720 0.462765
C38   C     C_2   0.923847 0.680651 0.337722 0.359863
C39   C     C_2   0.063463 0.301550 0.642957 0.348217
C40   C     C_2   0.163695 0.591213 0.180411 0.434472
C41   C     C_2   0.835401 0.404272 0.817627 0.426661
C42   C     C_R   0.731642 0.450588 0.085881 -0.019820
C43   C     C_R   0.265876 0.533553 0.913223 -0.017325
C44   C     C_R   0.535968 0.811881 0.502195 -0.061286
C45   C     C_R   0.464132 0.188121 0.498016 -0.071976
C46   C     C_R   0.352940 0.029304 0.504946 -0.195829
H1    H     H_    0.838012 0.351051 0.612907 0.119679
H2    H     H_    0.100784 0.520097 0.767586 0.054290
H3    H     H_    0.969279 0.749144 0.322180 0.086586
H4    H     H_    0.049130 0.276457 0.704960 0.091367
H5    H     H_    0.531938 0.443378 0.225263 0.165278
H6    H     H_    0.466537 0.548995 0.776436 0.167634
H7    H     H_    0.199402 0.625519 0.250494 0.067395
H8    H     H_    0.800276 0.373869 0.746062 0.069147
H9    H     H_    0.361626 0.827632 0.509487 0.161863
H10   H     H_    0.638517 0.172358 0.490792 0.166069
H11   H     H_    0.712736 0.820594 0.495117 0.169781
H12   H     H_    0.158611 0.644424 0.382043 0.118901
H13   H     H_    0.287393 0.179425 0.505152 0.195133
H14   H     H_    0.273135 0.989623 0.508808 0.152020
H15   H     H_    0.727075 0.010392 0.491601 0.151805
H16   H     H_    0.878559 0.416892 0.999253 0.239029
H17   H     H_    0.119601 0.572096 0.999216 0.239457
H18   H     H_    0.677014 0.477420 0.193104 0.164031
H19   H     H_    0.320931 0.503739 0.806572 0.134685
H20   H     H_    0.777668 0.606671 0.422155 0.186506
H21   H     H_    0.226583 0.399055 0.584130 0.185547
H22   H     H_    0.896526 0.460892 0.231962 0.090391
N1    N     N_R   0.799120 0.480200 0.517090 -0.105420
N2    N     N_R   0.200880 0.519800 0.482910 -0.104658
O1    O     O_R   0.580150 0.341050 0.504560 -0.631821
O2    O     O_2   0.082274 0.630620 0.843845 -0.560341
O3    O     O_2   0.810675 0.667085 0.289883 -0.586334
O4    O     O_2   0.131397 0.251829 0.622905 -0.578278
O5    O     O_2   0.050781 0.590629 0.127580 -0.578519
O6    O     O_2   0.947849 0.401609 0.871443 -0.589817
O7    O     O_R   0.419850 0.658950 0.495440 -0.631621
O8    O     O_R   0.388090 0.353760 0.493600 -0.609968
O9    O     O_R   0.611910 0.646240 0.506400 -0.617197
O10   O     O_R   0.650890 0.490020 0.640860 -0.622523
O11   O     O_R   0.349110 0.509980 0.359140 -0.622846
O12   O     O_R   0.458830 0.502730 0.629890 -0.615406
O13   O     O_R   0.541170 0.497270 0.370110 -0.605077
O14   O     O_2   0.915125 0.353368 0.153100 -0.564088
Zn1   Zn    Zn3+2 0.628240 0.491510 0.507320 0.956392
Zn2   Zn    Zn3+2 0.371760 0.508490 0.492680 0.956154

loop_
_geom_bond_atom_site_label_1
_geom_bond_atom_site_label_2
_ccdc_geom_bond_type
C21   C26   A    
C31   C42   A    
C27   C29   A    
C14   C18   A    
C5    H10   S    
C36   C42   S    
C2    C7    A    
C6    H9    S    
C1    C45   S    
C11   N2    A    
C7    C8    A    
C38   H3    S    
C15   C19   A    
C1    O1    A    
C23   C42   A    
C30   C35   A    
C24   C26   A    
C28   H5    S    
C20   C25   A    
C12   O9    A    
C29   C33   A    
C18   C19   A    
C39   O4    D    
O1    Zn1   S    
C9    C19   A    
C22   C25   A    
C4    H11   S    
C14   H21   S    
C11   H12   S    
O11   Zn2   S    
C2    H15   S    
O8    Zn2   S    
C6    C44   A    
C1    O8    A    
C14   N2    A    
C15   N1    A    
C34   H19   S    
C10   C18   A    
C22   C31   A    
C25   C41   S    
C13   H1    S    
C6    C8    A    
C4    C44   A    
O12   Zn2   S    
C15   H20   S    
C5    C45   A    
C3    C45   A    
C17   C21   S    
C10   C39   S    
C16   O10   A    
C37   C43   S    
C2    C4    A    
C24   C32   A    
O10   Zn1   S    
C22   H16   S    
C16   C20   S    
C12   O7    A    
C16   O12   A    
C33   C34   A    
C37   H2    S    
C9    C11   A    
C23   H18   S    
O13   Zn1   S    
C21   C28   A    
O7    Zn2   S    
C24   H17   S    
C23   C35   A    
N2    Zn2   S    
O9    Zn1   S    
N1    Zn1   S    
C27   H6    S    
C5    C7    A    
C46   H14   S    
C34   C43   A    
C10   C13   A    
C36   H22   S    
C20   C27   A    
C3    C46   A    
C40   O5    D    
C28   C30   A    
C12   C44   S    
C41   O6    D    
C30   C32   A    
C26   C40   S    
C13   N1    A    
C36   O14   D    
C9    C38   S    
C33   C35   A    
C32   C43   A    
C17   O11   A    
C8    C46   A    
C41   H8    S    
C39   H4    S    
C29   C31   A    
C40   H7    S    
C37   O2    D    
C17   O13   A    
C38   O3    D    
C3    H13   S    
