data_mof_unit_8575.cif
_audit_creation_date              2013-03-05T15:43:16-0500
_audit_creation_method            fapswitch 2.2
_symmetry_space_group_name_H-M    P1
_symmetry_Int_Tables_number       1
_space_group_crystal_system       triclinic
_cell_length_a                    13.438627
_cell_length_b                    13.415755
_cell_length_c                    28.418576
_cell_angle_alpha                 89.870498
_cell_angle_beta                  90.129833
_cell_angle_gamma                 120.374024
_cell_volume                      4420.30562039

loop_
_atom_site_label
_atom_site_type_symbol
_atom_site_description
_atom_site_fract_x
_atom_site_fract_y
_atom_site_fract_z
_atom_type_partial_charge
O1    O     O_R   0.460870 0.120930 0.805240 -0.447580
O2    O     O_R   0.660060 0.539130 0.694760 -0.464888
O3    O     O_R   0.879070 0.339940 0.805240 -0.440275
O4    O     O_R   0.460870 0.120930 0.694760 -0.449253
O5    O     O_R   0.660060 0.539130 0.805240 -0.464149
O6    O     O_R   0.879070 0.339940 0.694760 -0.444362
O7    O     O_R   0.120930 0.460870 0.305240 -0.449334
O8    O     O_R   0.539130 0.660060 0.194760 -0.463925
O9    O     O_R   0.339940 0.879070 0.305240 -0.444554
O10   O     O_R   0.120930 0.460870 0.194760 -0.447683
O11   O     O_R   0.539130 0.660060 0.305240 -0.464710
O12   O     O_R   0.339940 0.879070 0.194760 -0.440420
O13   O     O_R   0.498910 0.350470 0.801870 -0.468553
O14   O     O_R   0.851560 0.501090 0.698130 -0.467389
O15   O     O_R   0.649530 0.148440 0.801870 -0.488081
O16   O     O_R   0.498910 0.350470 0.698130 -0.466264
O17   O     O_R   0.851560 0.501090 0.801870 -0.466729
O18   O     O_R   0.649530 0.148440 0.698130 -0.486417
O19   O     O_R   0.350470 0.498910 0.301870 -0.466485
O20   O     O_R   0.501090 0.851560 0.198130 -0.466689
O21   O     O_R   0.148440 0.649530 0.301870 -0.486170
O22   O     O_R   0.350470 0.498910 0.198130 -0.468775
O23   O     O_R   0.501090 0.851560 0.301870 -0.467315
O24   O     O_R   0.148440 0.649530 0.198130 -0.487858
C1    C     C_R   0.569301 0.450834 0.824432 0.528851
C2    C     C_R   0.882439 0.429920 0.675675 0.524030
C3    C     C_R   0.549472 0.120844 0.824776 0.519872
C4    C     C_R   0.569091 0.450896 0.675509 0.528449
C5    C     C_R   0.882224 0.429806 0.824126 0.528541
C6    C     C_R   0.549689 0.120688 0.675258 0.519239
C7    C     C_R   0.450881 0.569078 0.324490 0.528400
C8    C     C_R   0.429788 0.882227 0.175892 0.527913
C9    C     C_R   0.120691 0.549696 0.324763 0.519820
C10   C     C_R   0.450818 0.569288 0.175567 0.528806
C11   C     C_R   0.429902 0.882445 0.324311 0.523378
C12   C     C_R   0.120848 0.549477 0.175205 0.520454
C13   C     C_R   0.983876 0.470641 0.974611 0.035664
C14   C     C_R   0.490520 0.021792 0.524391 0.024718
C15   C     C_R   0.524200 0.505948 0.975081 0.025683
C16   C     C_R   0.984314 0.469280 0.525539 0.033981
C17   C     C_R   0.490924 0.021489 0.975573 0.028093
C18   C     C_R   0.524421 0.506808 0.525037 0.022729
C19   C     C_R   0.469292 0.984310 0.474468 0.034128
C20   C     C_R   0.021491 0.490920 0.024428 0.027888
C21   C     C_R   0.506816 0.524423 0.474964 0.022746
C22   C     C_R   0.470649 0.983872 0.025389 0.035836
C23   C     C_R   0.021794 0.490517 0.475615 0.024574
C24   C     C_R   0.505955 0.524201 0.024912 0.025731
C25   C     C_R   0.992337 0.649537 0.973005 -0.094593
C26   C     C_R   0.667294 0.021080 0.518885 -0.099106
C27   C     C_R   0.337354 0.330958 0.975812 -0.074030
C28   C     C_R   0.993919 0.647744 0.526878 -0.111708
C29   C     C_R   0.667898 0.022491 0.980326 -0.093990
C30   C     C_R   0.336179 0.333026 0.523671 -0.082298
C31   C     C_R   0.647706 0.993933 0.473118 -0.111842
C32   C     C_R   0.022479 0.667932 0.019672 -0.093674
C33   C     C_R   0.333008 0.336179 0.476333 -0.082714
C34   C     C_R   0.649492 0.992358 0.027007 -0.094860
C35   C     C_R   0.021059 0.667332 0.481122 -0.098758
C36   C     C_R   0.330945 0.337353 0.024168 -0.074338
C37   C     C_R   0.934833 0.540014 0.902637 -0.131194
C38   C     C_R   0.612044 0.070973 0.595879 -0.128669
C39   C     C_R   0.453999 0.387568 0.903060 -0.134078
C40   C     C_R   0.935369 0.539067 0.597035 -0.125763
C41   C     C_R   0.611422 0.071428 0.904245 -0.132226
C42   C     C_R   0.453784 0.387710 0.597117 -0.131663
C43   C     C_R   0.539032 0.935386 0.402959 -0.125575
C44   C     C_R   0.071406 0.611466 0.095758 -0.132389
C45   C     C_R   0.387716 0.453778 0.402898 -0.131779
C46   C     C_R   0.539972 0.934852 0.097379 -0.130982
C47   C     C_R   0.070949 0.612090 0.404126 -0.128798
C48   C     C_R   0.387573 0.453992 0.096919 -0.134183
C49   C     C_R   0.085822 0.529176 0.123394 -0.036904
C50   C     C_R   0.444173 0.918894 0.375077 -0.031442
C51   C     C_R   0.470613 0.551686 0.124023 -0.031406
C52   C     C_R   0.085118 0.530401 0.376336 -0.044484
C53   C     C_R   0.444587 0.918779 0.124686 -0.024871
C54   C     C_R   0.471098 0.551124 0.375881 -0.035728
C55   C     C_R   0.530377 0.085130 0.623670 -0.044199
C56   C     C_R   0.918774 0.444602 0.875321 -0.025046
C57   C     C_R   0.551120 0.471087 0.624124 -0.035812
C58   C     C_R   0.529157 0.085832 0.876604 -0.036635
C59   C     C_R   0.918888 0.444186 0.624924 -0.031600
C60   C     C_R   0.551683 0.470607 0.875968 -0.031497
H1    H     H_    0.084611 0.690774 0.111035 0.170156
H2    H     H_    0.607169 0.924653 0.388605 0.221199
H3    H     H_    0.308474 0.387154 0.112298 0.189411
H4    H     H_    0.084544 0.691017 0.388717 0.179736
H5    H     H_    0.607625 0.924285 0.111567 0.216049
H6    H     H_    0.308911 0.387357 0.387247 0.195509
H7    H     H_    0.690959 0.084569 0.611260 0.179282
H8    H     H_    0.924254 0.607677 0.888428 0.216087
H9    H     H_    0.387352 0.308908 0.612779 0.195613
H10   H     H_    0.690717 0.084637 0.888993 0.169827
H11   H     H_    0.924626 0.607216 0.611408 0.221254
H12   H     H_    0.387148 0.308469 0.887672 0.189433
H13   H     H_    0.021343 0.738352 0.031632 0.270750
H14   H     H_    0.716084 0.008663 0.452980 0.208929
H15   H     H_    0.273091 0.256575 0.041279 0.261828
H16   H     H_    0.012592 0.736198 0.474706 0.235749
H17   H     H_    0.717439 0.000829 0.048100 0.245681
H18   H     H_    0.277166 0.250780 0.463456 0.219806
H19   H     H_    0.736186 0.012677 0.525311 0.235750
H20   H     H_    0.000782 0.717500 0.951895 0.245773
H21   H     H_    0.250768 0.277228 0.536482 0.219839
H22   H     H_    0.738326 0.021382 0.968349 0.270577
H23   H     H_    0.008644 0.716123 0.547046 0.208948
H24   H     H_    0.256539 0.273183 0.958742 0.261864
C61   C     C_R   0.968391 0.551942 0.950203 -0.002918
C62   C     C_R   0.592260 0.039691 0.546997 0.025137
C63   C     C_R   0.438732 0.406294 0.951080 0.001799
C64   C     C_R   0.969156 0.550241 0.549443 0.010139
C65   C     C_R   0.591870 0.040059 0.952733 0.007999
C66   C     C_R   0.438353 0.407047 0.548934 0.016785
C67   C     C_R   0.550238 0.969167 0.450559 0.010238
C68   C     C_R   0.040050 0.591893 0.047274 0.007916
C69   C     C_R   0.407063 0.438362 0.451075 0.016571
C70   C     C_R   0.551927 0.968404 0.049803 -0.002848
C71   C     C_R   0.039679 0.592287 0.453003 0.025176
C72   C     C_R   0.406309 0.438739 0.048903 0.001677
Cr1   Cr    Cr6+3 0.487630 0.241180 0.750000 1.154250
Cr2   Cr    Cr6+3 0.753550 0.512370 0.750000 1.143816
Cr3   Cr    Cr6+3 0.758820 0.246450 0.750000 1.165636
Cr4   Cr    Cr6+3 0.241180 0.487630 0.250000 1.154412
Cr5   Cr    Cr6+3 0.512370 0.753550 0.250000 1.143662
Cr6   Cr    Cr6+3 0.246450 0.758820 0.250000 1.165697
O25   O     O_3   0.666667 0.333333 0.750000 -0.362335
O26   O     O_3   0.333333 0.666667 0.250000 -0.362351
C73   C     C_R   0.937985 0.359720 0.898329 -0.018104
C74   C     C_R   0.425480 0.070121 0.601170 0.015650
C75   C     C_R   0.639159 0.580328 0.898665 0.015187
C76   C     C_R   0.938220 0.360490 0.602545 -0.024741
C77   C     C_R   0.424155 0.071744 0.899299 0.007073
C78   C     C_R   0.636636 0.582512 0.601621 0.026617
C79   C     C_R   0.360517 0.938198 0.397458 -0.025176
C80   C     C_R   0.071757 0.424155 0.100683 0.007401
C81   C     C_R   0.582549 0.636605 0.398370 0.026848
C82   C     C_R   0.359732 0.937969 0.101675 -0.018362
C83   C     C_R   0.070127 0.425486 0.398850 0.015978
C84   C     C_R   0.580368 0.639131 0.101339 0.015343
C85   C     C_R   0.965155 0.372358 0.948916 -0.067464
C86   C     C_R   0.407954 0.035672 0.550202 -0.040726
C87   C     C_R   0.624016 0.592063 0.949233 -0.053711
C88   C     C_R   0.966304 0.371579 0.551574 -0.054914
C89   C     C_R   0.408517 0.036376 0.949710 -0.048228
C90   C     C_R   0.623985 0.593669 0.550782 -0.046568
C91   C     C_R   0.371607 0.966292 0.448430 -0.054966
C92   C     C_R   0.036384 0.408504 0.050286 -0.048215
C93   C     C_R   0.593678 0.623990 0.449219 -0.046364
C94   C     C_R   0.372385 0.965142 0.051082 -0.067403
C95   C     C_R   0.035676 0.407948 0.449796 -0.040798
C96   C     C_R   0.592076 0.624020 0.050765 -0.053695
C97   C     C_R   0.011316 0.309948 0.023306 0.041221
C98   C     C_R   0.294092 0.985909 0.474870 -0.006975
C99   C     C_R   0.692699 0.703045 0.024480 0.036619
C100  C     C_R   0.010944 0.307845 0.476596 0.015571
C101  C     C_R   0.293771 0.982586 0.024848 0.010316
C102  C     C_R   0.693287 0.705504 0.475584 0.014445
C103  C     C_R   0.307862 0.010914 0.523399 0.015448
C104  C     C_R   0.982610 0.293749 0.975158 0.011044
C105  C     C_R   0.705538 0.693262 0.524416 0.014214
C106  C     C_R   0.309967 0.011279 0.976684 0.040625
C107  C     C_R   0.985908 0.294067 0.525116 -0.006472
C108  C     C_R   0.703089 0.692662 0.975530 0.036683
C109  C     C_2   0.082844 0.324496 0.129086 0.619621
O27   O     O_2   0.145499 0.329777 0.160460 -0.460301
O28   O     O_R   0.004066 0.207911 0.126854 -0.651758
H25   H     H_    0.047909 0.165457 0.132080 0.347536
C110  C     C_2   0.250572 0.918996 0.372002 0.554751
O29   O     O_2   0.205472 0.905680 0.333797 -0.329490
O30   O     O_R   0.189585 0.968445 0.347638 -0.513044
H26   H     H_    0.110303 0.962191 0.361832 0.331783
C111  C     C_2   0.678396 0.748457 0.129201 0.635527
O31   O     O_2   0.656215 0.818042 0.146186 -0.496459
O32   O     O_R   0.801170 0.787899 0.134140 -0.642397
H27   H     H_    0.842826 0.875869 0.134973 0.349111
C112  C     C_2   0.078245 0.326757 0.369063 0.620302
O33   O     O_2   0.147272 0.332915 0.339640 -0.472390
O34   O     O_R   0.999059 0.209299 0.372124 -0.654617
H28   H     H_    0.037941 0.163959 0.361334 0.346738
C113  C     C_2   0.243906 0.907665 0.124021 0.526257
O35   O     O_2   0.206809 0.906738 0.163827 -0.324088
O36   O     O_R   0.190961 0.965826 0.148746 -0.494686
H29   H     H_    0.105832 0.954910 0.136700 0.333468
C114  C     C_2   0.680169 0.744621 0.370269 0.641084
O37   O     O_2   0.659179 0.816187 0.355345 -0.495833
O38   O     O_R   0.803659 0.782056 0.362506 -0.659996
H30   H     H_    0.848411 0.866858 0.361504 0.350076
C115  C     C_2   0.326753 0.078218 0.630968 0.620662
O39   O     O_2   0.332958 0.147222 0.660453 -0.471967
O40   O     O_R   0.209345 0.999028 0.627896 -0.654495
H31   H     H_    0.164044 0.037936 0.638721 0.346729
C116  C     C_2   0.907686 0.243854 0.875972 0.526250
O41   O     O_2   0.906756 0.206748 0.836155 -0.323984
O42   O     O_R   0.965826 0.190979 0.851258 -0.494822
H32   H     H_    0.954946 0.105767 0.863347 0.333341
C117  C     C_2   0.744665 0.680155 0.629698 0.640891
O43   O     O_2   0.816143 0.659131 0.644622 -0.495950
O44   O     O_R   0.782097 0.803775 0.637487 -0.659961
H33   H     H_    0.866779 0.848448 0.638436 0.349996
C118  C     C_2   0.324514 0.082820 0.870889 0.619755
O45   O     O_2   0.329827 0.145438 0.839454 -0.459949
O46   O     O_R   0.207971 0.004045 0.873140 -0.651494
H34   H     H_    0.165525 0.047918 0.867860 0.347662
C119  C     C_2   0.918959 0.250493 0.627991 0.554272
O47   O     O_2   0.905719 0.205401 0.666237 -0.329341
O48   O     O_R   0.968462 0.189614 0.652366 -0.513078
H35   H     H_    0.962218 0.110241 0.638142 0.331694
C120  C     C_2   0.748486 0.678376 0.870813 0.635367
O49   O     O_2   0.817995 0.656169 0.853829 -0.496618
O50   O     O_R   0.787945 0.801280 0.865876 -0.642252
H36   H     H_    0.875788 0.842861 0.865079 0.348915
C121  C     C_2   0.019566 0.215764 0.042170 0.654134
O51   O     O_2   0.112611 0.235608 0.053257 -0.577026
O52   O     O_R   0.927331 0.102948 0.043049 -0.621289
H37   H     H_    0.940281 0.052834 0.065725 0.350644
C122  C     C_2   0.188298 0.974237 0.452978 0.603091
O53   O     O_2   0.158436 0.045212 0.456683 -0.458629
O54   O     O_R   0.114183 0.872174 0.433009 -0.768241
H38   H     H_    0.038627 0.853793 0.418015 0.364852
C123  C     C_2   0.790614 0.807066 0.045066 0.623425
O55   O     O_2   0.772134 0.881846 0.056784 -0.569859
O56   O     O_R   0.903570 0.828846 0.043986 -0.613547
H39   H     H_    0.952577 0.898649 0.063100 0.352609
C124  C     C_2   0.026972 0.216748 0.456856 0.685999
O57   O     O_2   0.952733 0.115332 0.457935 -0.426037
O58   O     O_R   0.132070 0.248640 0.439301 -0.741361
H40   H     H_    0.144430 0.196168 0.418122 0.348399
C125  C     C_2   0.190548 0.979149 0.046737 0.592236
O59   O     O_2   0.115488 0.891589 0.061959 -0.601647
O60   O     O_R   0.168081 0.068021 0.044810 -0.640606
H41   H     H_    0.103889 0.053287 0.067299 0.329654
C126  C     C_2   0.786367 0.813604 0.454494 0.640182
O61   O     O_2   0.887738 0.845493 0.458807 -0.439161
O62   O     O_R   0.751165 0.881934 0.434231 -0.730065
H42   H     H_    0.812092 0.949352 0.415347 0.363174
C127  C     C_2   0.216758 0.026915 0.543153 0.685795
O63   O     O_2   0.115419 0.952708 0.541984 -0.426104
O64   O     O_R   0.248652 0.132084 0.560778 -0.741705
H43   H     H_    0.196158 0.144445 0.581884 0.348485
C128  C     C_2   0.979161 0.190532 0.953273 0.592168
O65   O     O_2   0.891636 0.115422 0.938129 -0.601280
O66   O     O_R   0.067956 0.168110 0.955162 -0.640774
H44   H     H_    0.053289 0.103873 0.932668 0.329333
C129  C     C_2   0.813613 0.786334 0.545497 0.640161
O67   O     O_2   0.845472 0.887841 0.541187 -0.439393
O68   O     O_R   0.881943 0.751113 0.565744 -0.729762
H45   H     H_    0.949313 0.812116 0.584634 0.362926
C130  C     C_2   0.215773 0.019496 0.957808 0.654626
O69   O     O_2   0.235625 0.112632 0.946647 -0.577127
O70   O     O_R   0.102981 0.927299 0.956991 -0.621505
H46   H     H_    0.052875 0.940268 0.934323 0.350621
C131  C     C_2   0.974221 0.188264 0.547004 0.603466
O71   O     O_2   0.045139 0.158425 0.543385 -0.458573
O72   O     O_R   0.872245 0.114163 0.566899 -0.768391
H47   H     H_    0.853767 0.038633 0.582017 0.364993
C132  C     C_2   0.807094 0.790581 0.954954 0.623106
O73   O     O_2   0.881824 0.772096 0.943285 -0.570110
O74   O     O_R   0.828838 0.903649 0.955979 -0.613349
H48   H     H_    0.898645 0.952580 0.936909 0.352903

loop_
_geom_bond_atom_site_label_1
_geom_bond_atom_site_label_2
_geom_bond_distance
_ccdc_geom_bond_type
C100  C124  1.457597 S    
O16   C4    1.353430 A    
C78   C117  1.592650 S    
O30   H26   1.102858 S    
C11   C50   1.504770 S    
C76   C88   1.485767 A    
C109  O27   1.202283 D    
O14   Cr2   2.035185 S    
C94   C101  1.404412 A    
C16   C23   1.484614 A    
O17   C5    1.370778 A    
C110  O29   1.210972 D    
O64   H43   1.002771 S    
C34   C70   1.348648 A    
O7    Cr4   2.151040 S    
C124  O58   1.348276 S    
C36   H15   1.078237 S    
C37   C61   1.407637 A    
C25   H20   1.047512 S    
C97   C121  1.426391 S    
C118  O46   1.378468 S    
C40   C59   1.417250 A    
C101  C125  1.500807 S    
O70   H46   1.007314 S    
C24   C72   1.421458 A    
C111  O31   1.215500 D    
C82   C94   1.471396 A    
O50   H36   1.019486 S    
C33   H18   1.068114 S    
C130  O69   1.180887 D    
C2    C59   1.504632 S    
C13   C85   1.415313 A    
O6    Cr3   2.145190 S    
C33   C69   1.415644 A    
O11   Cr5   2.147443 S    
C46   C70   1.407679 A    
C132  O73   1.197398 D    
C106  C130  1.428309 S    
O10   Cr4   2.146878 S    
C51   C84   1.489405 A    
C102  C126  1.480556 S    
O20   C8    1.371699 A    
C47   C52   1.441046 A    
O20   Cr5   2.028934 S    
C40   C64   1.410992 A    
O21   C9    1.359493 A    
C80   C109  1.630136 S    
C28   C64   1.337916 A    
C37   C56   1.418457 A    
O66   H44   1.010098 S    
C127  O64   1.347568 S    
O72   H47   1.008495 S    
C26   C62   1.405890 A    
C22   C70   1.393769 A    
C115  O40   1.389385 S    
C128  O65   1.176924 D    
C118  O45   1.202121 D    
C83   C95   1.502399 A    
Cr2   O25   2.072763 S    
C117  O44   1.486603 S    
C82   C113  1.534516 S    
C43   C67   1.410957 A    
C15   C87   1.451575 A    
C9    C52   1.523146 S    
C102  C105  1.416047 A    
C19   C67   1.383364 A    
C8    C53   1.515621 S    
O15   C3    1.366858 A    
C29   H22   1.013688 S    
C18   C66   1.422749 A    
O56   H39   0.991335 S    
C100  C107  1.409508 A    
C29   C65   1.397642 A    
C84   C111  1.600039 S    
C116  O42   1.473833 S    
C75   C120  1.600458 S    
C1    C60   1.529136 S    
C27   C63   1.407207 A    
O62   H42   1.013571 S    
C49   C80   1.473639 A    
C131  O71   1.210586 D    
O18   C6    1.361353 A    
C104  C128  1.498423 S    
C14   C62   1.415772 A    
C34   H17   1.048275 S    
C93   C102  1.438021 A    
C84   C96   1.471767 A    
C13   C61   1.392676 A    
C37   H8    1.065781 S    
C29   C34   1.372003 A    
O18   Cr3   2.026052 S    
O23   Cr5   2.033744 S    
O1    C3    1.313154 A    
C121  O52   1.389432 S    
O19   C7    1.354413 A    
C76   C119  1.541860 S    
C109  O28   1.377220 S    
C127  O63   1.214803 D    
O12   C8    1.303195 A    
C46   C53   1.419883 A    
O24   Cr6   2.026196 S    
C44   H1    1.078346 S    
C14   C86   1.420258 A    
O13   C1    1.353508 A    
C45   C54   1.438780 A    
C115  O39   1.221142 D    
C32   H13   1.012102 S    
C48   C51   1.441519 A    
O22   C10   1.354528 A    
C75   C87   1.471776 A    
O3    Cr3   2.143977 S    
C124  O57   1.214361 D    
C81   C114  1.592397 S    
O2    Cr2   2.148586 S    
C77   C118  1.631800 S    
C78   C90   1.470469 A    
C90   C105  1.437406 A    
O19   Cr4   2.029610 S    
C130  O70   1.389942 S    
O7    C9    1.317105 A    
O48   H35   1.102613 S    
C38   C55   1.442125 A    
C57   C78   1.491970 A    
C53   C82   1.444664 A    
C28   H23   1.013649 S    
C16   C64   1.382181 A    
C35   H16   1.002617 S    
C113  O36   1.474770 S    
O28   H25   1.015961 S    
C131  O72   1.345076 S    
C129  O67   1.209403 D    
O2    C4    1.315859 A    
C27   H24   1.078711 S    
C73   C85   1.471373 A    
C32   C68   1.396715 A    
C112  O34   1.388200 S    
C44   C49   1.443897 A    
C113  O35   1.234744 D    
C55   C74   1.464917 A    
C39   H12   1.077327 S    
C50   C79   1.426148 A    
O40   H31   1.029881 S    
C132  O74   1.392518 S    
C18   C21   1.479962 A    
O16   Cr1   2.027835 S    
O36   H29   1.129795 S    
C105  C129  1.480831 S    
C125  O59   1.177244 D    
C83   C112  1.623102 S    
C28   C35   1.340351 A    
Cr5   O26   2.076390 S    
C123  O55   1.197038 D    
O13   Cr1   2.032147 S    
O8    Cr5   2.152775 S    
C85   C104  1.403270 A    
Cr3   O25   2.086169 S    
O58   H40   1.003001 S    
C38   C62   1.436889 A    
C96   C99   1.435878 A    
C121  O51   1.181357 D    
C17   C22   1.480718 A    
C38   H7    1.073148 S    
C48   C72   1.422029 A    
C41   C58   1.444979 A    
C120  O49   1.215901 D    
C103  C127  1.459319 S    
C17   C89   1.423332 A    
C43   C50   1.418740 A    
O8    C10   1.314331 A    
C95   C100  1.427994 A    
O14   C2    1.376841 A    
C98   C122  1.484642 S    
Cr6   O26   2.086028 S    
C47   H4    1.071887 S    
C91   C98   1.414436 A    
C80   C92   1.489497 A    
C111  O32   1.462281 S    
O15   Cr3   2.026569 S    
C44   C68   1.425512 A    
C42   H9    1.076100 S    
O5    C1    1.314259 A    
C6    C55   1.523338 S    
C41   H10   1.079621 S    
C81   C93   1.470617 A    
C107  C131  1.482358 S    
C116  O41   1.234738 D    
C79   C91   1.485695 A    
C129  O68   1.353765 S    
C88   C107  1.413374 A    
C14   C19   1.484386 A    
C99   C123  1.471181 S    
C46   H5    1.066609 S    
C77   C89   1.489664 A    
C92   C97   1.415120 A    
C86   C103  1.429858 A    
C45   H6    1.076439 S    
C18   C90   1.451249 A    
C54   C81   1.492922 A    
C87   C108  1.435187 A    
O54   H38   1.009279 S    
C48   H3    1.077682 S    
C98   C103  1.409590 A    
C23   C71   1.414084 A    
C7    C54   1.525646 S    
C25   C61   1.347053 A    
C126  O61   1.209943 D    
C52   C83   1.463150 A    
C21   C69   1.423086 A    
C119  O47   1.211604 D    
C20   C92   1.421978 A    
C43   H2    1.077434 S    
C35   C71   1.405038 A    
C56   C73   1.443656 A    
C42   C66   1.427149 A    
C30   H21   1.068698 S    
C22   C94   1.417073 A    
C4    C57   1.525410 S    
C41   C65   1.425535 A    
C3    C58   1.527606 S    
O9    Cr6   2.144348 S    
C40   H11   1.076567 S    
C17   C65   1.408952 A    
C73   C116  1.532617 S    
O68   H45   1.013961 S    
C74   C115  1.624946 S    
Cr1   O25   2.075859 S    
C47   C71   1.436888 A    
C99   C108  1.412597 A    
C122  O54   1.345635 S    
C25   C32   1.371789 A    
C10   C51   1.529388 S    
C60   C75   1.488507 A    
O23   C11   1.377840 A    
C26   C31   1.340613 A    
O24   C12   1.364990 A    
C16   C88   1.414078 A    
Cr4   O26   2.072371 S    
C39   C60   1.441831 A    
O22   Cr4   2.033945 S    
C58   C77   1.475369 A    
C24   C96   1.451147 A    
C122  O53   1.210732 D    
C59   C76   1.425387 A    
C123  O56   1.393624 S    
O32   H27   1.019167 S    
C114  O38   1.487701 S    
C30   C33   1.347100 A    
C42   C57   1.439086 A    
C15   C63   1.421094 A    
O3    C5    1.301737 A    
C114  O37   1.205299 D    
O6    C2    1.302033 A    
C5    C56   1.515518 S    
C31   C67   1.339437 A    
C13   C20   1.480970 A    
C30   C66   1.416604 A    
C31   H14   1.014479 S    
C45   C69   1.427009 A    
C120  O50   1.461045 S    
O4    Cr1   2.149065 S    
C36   C72   1.406384 A    
C21   C93   1.450783 A    
C79   C110  1.543958 S    
O52   H37   1.006696 S    
C39   C63   1.422127 A    
C117  O43   1.205700 D    
C74   C86   1.502807 A    
O1    Cr1   2.144922 S    
C19   C91   1.415921 A    
C12   C49   1.527305 S    
C23   C95   1.418983 A    
O44   H33   0.982436 S    
O11   C7    1.315907 A    
O42   H32   1.129456 S    
O17   Cr2   2.030358 S    
O38   H30   0.982254 S    
O12   Cr6   2.143179 S    
C20   C68   1.407226 A    
C125  O60   1.370894 S    
C112  O33   1.221535 D    
C89   C106  1.416839 A    
C126  O62   1.353012 S    
O60   H41   1.010541 S    
O9    C11   1.303523 A    
O34   H28   1.029579 S    
C15   C24   1.479646 A    
C26   H19   1.003928 S    
O10   C12   1.311591 A    
C27   C36   1.382671 A    
O46   H34   1.016405 S    
C128  O66   1.371103 S    
O21   Cr6   2.025715 S    
C108  C132  1.471247 S    
C119  O48   1.460925 S    
C101  C106  1.408287 A    
O5    Cr2   2.153923 S    
O4    C6    1.318619 A    
O74   H48   0.991264 S    
C97   C104  1.407995 A    
C110  O30   1.461637 S    
