data_mof_unit_22247.cif
_audit_creation_date              2012-10-26T19:32:16-0400
_audit_creation_method            fapswitch 2.2
_symmetry_space_group_name_H-M    P1
_symmetry_Int_Tables_number       1
_space_group_crystal_system       triclinic
_cell_length_a                    15.118751
_cell_length_b                    13.933499
_cell_length_c                    15.90506
_cell_angle_alpha                 90.587908
_cell_angle_beta                  91.073119
_cell_angle_gamma                 89.978901
_cell_volume                      3349.74979339

loop_
_atom_site_label
_atom_site_type_symbol
_atom_type_description
_atom_site_fract_x
_atom_site_fract_y
_atom_site_fract_z
_atom_type_partial_charge
C1    C     C_R   0.329253 0.500206 0.504489 0.533804
C2    C     C_R   0.181391 0.414361 0.505353 -0.051354
C3    C     C_R   0.285707 0.689234 0.622289 -0.051190
C4    C     C_R   0.324932 0.777357 0.643216 -0.107428
C5    C     C_R   0.304969 0.858793 0.596259 -0.114520
C6    C     C_R   0.249520 0.851271 0.525262 -0.091620
C7    C     C_R   0.215425 0.762162 0.500477 -0.072164
C8    C     C_R   0.224010 0.318648 0.506899 0.071801
C9    C     C_R   0.223995 0.260055 0.434687 -0.075584
C10   C     C_R   0.255009 0.165814 0.439533 -0.119213
C11   C     C_R   0.286248 0.130115 0.516352 -0.104467
C12   C     C_R   0.287653 0.188552 0.588100 -0.101901
C13   C     C_R   0.230876 0.501157 0.513502 -0.041056
C14   C     C_R   0.256905 0.282730 0.583381 -0.061813
C15   C     C_R   0.044205 0.504742 0.511923 -0.017211
C16   C     C_R   0.902682 0.531108 0.435254 -0.118526
C17   C     C_R   0.901004 0.478026 0.580421 -0.111774
C18   C     C_R   0.500462 0.499419 0.340554 0.551467
C19   C     C_R   0.810839 0.529525 0.432160 -0.133350
C20   C     C_R   0.809254 0.474752 0.576738 -0.134403
C21   C     C_R   0.764517 0.500548 0.502711 0.030633
C22   C     C_R   0.947567 0.505985 0.509565 0.047519
C23   C     C_3   0.574004 0.509116 0.946051 -0.239033
C24   C     C_R   0.508886 0.101414 0.563434 -0.184903
C25   C     C_R   0.558377 0.896998 0.538697 -0.189133
C26   C     C_R   0.516867 0.202038 0.569159 0.117793
C27   C     C_R   0.557590 0.796732 0.547235 0.108135
C28   C     C_R   0.486112 0.213479 0.423781 0.094102
C29   C     C_R   0.443687 0.784442 0.443965 0.118777
C30   C     C_R   0.490768 0.112696 0.413746 0.193796
C31   C     C_R   0.439139 0.885170 0.436152 0.206441
C32   C     C_R   0.497461 0.053740 0.485927 -0.015493
C33   C     C_R   0.498175 0.944395 0.484762 -0.018736
C34   C     C_3   0.588752 0.506951 0.045355 -0.002340
C35   C     C_R   0.669325 0.500046 0.500190 0.546352
C36   C     C_R   0.496430 0.500689 0.659689 0.549428
C37   C     C_3   0.434232 0.585815 0.056414 -0.088726
C38   C     C_3   0.447253 0.397717 0.047149 -0.095443
C39   C     C_3   0.441660 0.401237 0.947789 -0.081624
C40   C     C_3   0.425113 0.589565 0.957455 -0.086478
C41   C     C_1   0.485595 0.503068 0.748752 -0.032070
C42   C     C_3   0.490710 0.494544 0.084227 0.033322
C43   C     C_3   0.474596 0.501666 0.916504 0.022223
C44   C     C_R   0.333714 0.616548 0.920648 0.025746
C45   C     C_1   0.477263 0.504691 0.823838 -0.073360
C46   C     C_R   0.254555 0.577822 0.950694 -0.079216
C47   C     C_R   0.172109 0.609072 0.921005 -0.118153
C48   C     C_R   0.166866 0.682313 0.862309 -0.111942
C49   C     C_R   0.244116 0.723767 0.833081 -0.122377
C50   C     C_R   0.326935 0.690349 0.860768 -0.117257
C51   C     C_R   0.364668 0.348898 0.902721 0.021974
C52   C     C_R   0.355256 0.249348 0.916165 -0.101651
C53   C     C_R   0.286461 0.197264 0.877625 -0.115230
C54   C     C_R   0.225790 0.243297 0.824714 -0.116805
C55   C     C_R   0.234899 0.341026 0.809124 -0.132418
C56   C     C_1   0.496742 0.495010 0.176286 -0.079110
C57   C     C_R   0.304907 0.392898 0.845822 -0.090892
C58   C     C_R   0.556221 0.239122 0.648590 0.083639
C59   C     C_R   0.515400 0.219785 0.725276 -0.097940
C60   C     C_R   0.560537 0.236852 0.801340 -0.117049
C61   C     C_R   0.645160 0.276885 0.802017 -0.118209
C62   C     C_R   0.686253 0.296530 0.726241 -0.132317
C63   C     C_R   0.642800 0.275928 0.649747 -0.062372
C64   C     C_R   0.620086 0.754547 0.608606 0.085915
C65   C     C_R   0.594294 0.740528 0.691903 -0.071970
C66   C     C_R   0.654632 0.704551 0.751327 -0.120468
C67   C     C_1   0.499394 0.497422 0.251543 -0.045034
C68   C     C_R   0.741448 0.684073 0.728379 -0.118984
C69   C     C_R   0.768441 0.701384 0.646368 -0.118352
C70   C     C_R   0.708499 0.738225 0.586965 -0.076781
C71   C     C_R   0.354221 0.621836 0.107105 0.022073
C72   C     C_R   0.327494 0.718295 0.096187 -0.079184
C73   C     C_R   0.257215 0.757164 0.141063 -0.085966
C74   C     C_R   0.212662 0.701191 0.198739 -0.096808
C75   C     C_R   0.238540 0.606412 0.211693 -0.118836
C76   C     C_R   0.308648 0.567117 0.166732 -0.090410
C77   C     C_R   0.371392 0.351544 0.097354 0.009703
C78   C     C_R   0.091133 0.589496 0.529877 -0.030097
C79   C     C_R   0.281089 0.351984 0.072346 -0.088789
C80   C     C_R   0.216652 0.307648 0.120387 -0.120948
C81   C     C_R   0.240404 0.260323 0.193992 -0.114967
C82   C     C_R   0.328815 0.256996 0.219634 -0.097900
C83   C     C_R   0.393446 0.301501 0.171967 -0.097863
C84   C     C_R   0.635094 0.599950 0.081688 0.033543
C85   C     C_R   0.675848 0.597644 0.162830 -0.074941
C86   C     C_R   0.717723 0.678224 0.198058 -0.110258
C87   C     C_R   0.720056 0.763793 0.153879 -0.099737
C88   C     C_R   0.679944 0.769145 0.074591 -0.111742
C89   C     C_R   0.088394 0.417084 0.501901 -0.031693
C90   C     C_R   0.637784 0.688909 0.038805 -0.117635
C91   C     C_R   0.657765 0.425232 0.062703 0.019303
C92   C     C_R   0.649793 0.354659 0.125548 -0.114090
C93   C     C_R   0.716246 0.286607 0.139660 -0.114228
C94   C     C_R   0.793463 0.288537 0.093350 -0.107517
C95   C     C_R   0.805108 0.359603 0.033700 -0.120169
C96   C     C_R   0.738963 0.427810 0.019418 -0.102779
C97   C     C_R   0.042094 0.677440 0.555619 0.043449
C98   C     C_R   0.997084 0.733460 0.495628 -0.097920
C99   C     C_R   0.954398 0.817995 0.520153 -0.121272
C100  C     C_R   0.184599 0.588874 0.529666 -0.047294
C101  C     C_R   0.956673 0.847281 0.604487 -0.107827
C102  C     C_R   0.001135 0.791701 0.664541 -0.121855
C103  C     C_R   0.043533 0.706908 0.640301 -0.096384
C104  C     C_R   0.036340 0.326995 0.491445 0.048360
C105  C     C_R   0.026241 0.265026 0.559675 -0.085258
C106  C     C_R   0.977459 0.180319 0.549678 -0.109643
C107  C     C_R   0.938248 0.157291 0.471769 -0.100905
C108  C     C_R   0.947758 0.218967 0.403727 -0.110175
C109  C     C_R   0.996685 0.303629 0.413412 -0.089455
C110  C     C_R   0.231145 0.680737 0.550045 0.056679
Cu1   Cu    Cu3+1 0.499990 0.596430 0.500000 0.946970
Cu2   Cu    Cu3+1 0.499990 0.403570 0.500000 0.941970
H1    H     H_    0.775951 0.549552 0.374874 0.094611
H2    H     H_    0.466647 0.651957 0.939991 0.084676
H3    H     H_    0.606833 0.570138 0.916057 0.095208
H4    H     H_    0.609191 0.448288 0.915421 0.114903
H5    H     H_    0.938852 0.551431 0.380052 0.095451
H6    H     H_    0.935823 0.458353 0.637850 0.099482
H7    H     H_    0.256024 0.527584 0.000503 0.119093
H8    H     H_    0.112232 0.578428 0.945578 0.101740
H9    H     H_    0.102972 0.708385 0.840922 0.096834
H10   H     H_    0.239378 0.783044 0.790001 0.113456
H11   H     H_    0.385854 0.724251 0.837386 0.083980
H12   H     H_    0.773032 0.454389 0.631775 0.100555
H13   H     H_    0.400954 0.212169 0.957767 0.101958
H14   H     H_    0.279943 0.121226 0.889268 0.104084
H15   H     H_    0.172152 0.203133 0.795222 0.101707
H16   H     H_    0.188147 0.376648 0.767555 0.096277
H17   H     H_    0.311076 0.466686 0.828319 0.133124
H18   H     H_    0.450477 0.187129 0.726083 0.096421
H19   H     H_    0.530980 0.216076 0.859661 0.099088
H20   H     H_    0.679861 0.290040 0.861162 0.112583
H21   H     H_    0.753156 0.324055 0.726925 0.094720
H22   H     H_    0.678192 0.284405 0.591852 0.131188
H23   H     H_    0.516954 0.059699 0.620195 0.097393
H24   H     H_    0.527463 0.756804 0.710646 0.092301
H25   H     H_    0.634111 0.693017 0.815176 0.091564
H26   H     H_    0.787985 0.655650 0.774284 0.102653
H27   H     H_    0.835702 0.685876 0.628727 0.142007
H28   H     H_    0.730432 0.752201 0.523800 0.109266
H29   H     H_    0.516686 0.011094 0.333590 0.352914
H30   H     H_    0.363373 0.988477 0.396895 0.341281
H31   H     H_    0.361438 0.763692 0.052293 0.102061
H32   H     H_    0.237611 0.830994 0.131320 0.112675
H33   H     H_    0.158514 0.731437 0.233850 0.102152
H34   H     H_    0.606454 0.938113 0.575398 0.103961
H35   H     H_    0.204648 0.563297 0.257294 0.106354
H36   H     H_    0.326747 0.494965 0.181216 0.139068
H37   H     H_    0.258298 0.382365 0.014725 0.122817
H38   H     H_    0.148073 0.308779 0.099579 0.102337
H39   H     H_    0.190415 0.225012 0.230393 0.100099
H40   H     H_    0.347503 0.219002 0.276174 0.136025
H41   H     H_    0.461177 0.295714 0.193698 0.108269
H42   H     H_    0.675984 0.532903 0.199684 0.114328
H43   H     H_    0.748432 0.674214 0.259939 0.098068
H44   H     H_    0.752374 0.826240 0.181372 0.103723
H45   H     H_    0.475847 0.254955 0.367788 0.148298
H46   H     H_    0.680588 0.836243 0.040882 0.104686
H47   H     H_    0.604837 0.700389 0.979285 0.078923
H48   H     H_    0.594124 0.351478 0.165892 0.102834
H49   H     H_    0.708194 0.232859 0.187593 0.115223
H50   H     H_    0.844908 0.235952 0.104723 0.100108
H51   H     H_    0.865886 0.362538 0.998916 0.098019
H52   H     H_    0.751445 0.483618 0.974252 0.100210
H53   H     H_    0.996581 0.712672 0.429866 0.091813
H54   H     H_    0.920055 0.861152 0.473709 0.098580
H55   H     H_    0.923817 0.912883 0.623306 0.103656
H56   H     H_    0.399303 0.740211 0.406077 0.161482
H57   H     H_    0.002754 0.814327 0.729844 0.098416
H58   H     H_    0.078216 0.664538 0.687113 0.101361
H59   H     H_    0.056170 0.282427 0.620338 0.091031
H60   H     H_    0.969995 0.132551 0.602311 0.097911
H61   H     H_    0.900488 0.091686 0.464147 0.100225
H62   H     H_    0.917304 0.201113 0.343457 0.100696
H63   H     H_    0.003940 0.350822 0.360295 0.096413
H64   H     H_    0.298402 0.627565 0.661662 0.103700
H65   H     H_    0.369118 0.783328 0.697118 0.087655
H66   H     H_    0.333447 0.927283 0.614471 0.098839
H67   H     H_    0.498587 0.342207 0.056647 0.100462
H68   H     H_    0.233843 0.913986 0.488432 0.129896
H69   H     H_    0.174456 0.757106 0.444042 0.105833
H70   H     H_    0.197943 0.286851 0.375630 0.095682
H71   H     H_    0.253941 0.120290 0.384014 0.109869
H72   H     H_    0.310081 0.057471 0.520478 0.098959
H73   H     H_    0.311907 0.160593 0.647388 0.097597
H74   H     H_    0.257590 0.327567 0.639127 0.100318
H75   H     H_    0.478618 0.646315 0.072954 0.122075
H76   H     H_    0.495860 0.353076 0.927161 0.102684
N1    N     N_R   0.500020 0.258690 0.500000 -0.252902
N2    N     N_R   0.500020 0.741310 0.500000 -0.259835
O1    O     O_R   0.371450 0.581430 0.500010 -0.504075
O2    O     O_3   0.374563 0.920634 0.382551 -0.725670
O3    O     O_R   0.371450 0.418570 0.500010 -0.486198
O4    O     O_R   0.500000 0.581470 0.379440 -0.498322
O5    O     O_R   0.500000 0.418530 0.379440 -0.523128
O6    O     O_R   0.628540 0.581440 0.499990 -0.494372
O7    O     O_R   0.628540 0.418560 0.499990 -0.509968
O8    O     O_R   0.499990 0.581400 0.620560 -0.497661
O9    O     O_R   0.499990 0.418600 0.620560 -0.485958
O10   O     O_3   0.491359 0.076581 0.332667 -0.728752

loop_
_geom_bond_atom_site_label_1
_geom_bond_atom_site_label_2
_ccdc_geom_bond_type
C69   H27   S    
C72   H31   S    
C30   O10   S    
C87   C88   A    
C59   H18   S    
C100  C110  S    
C93   C94   A    
C18   O4    A    
C73   C74   A    
C54   C55   A    
C74   H33   S    
C68   H26   S    
C95   C96   A    
C34   C42   S    
C36   O9    A    
C4    H65   S    
C75   C76   A    
C28   N1    A    
C97   C98   A    
C12   H73   S    
C37   H75   S    
C53   C54   A    
C80   H38   S    
C101  C102  A    
C84   C90   A    
C62   H21   S    
C57   H17   S    
C19   C21   A    
C36   O8    A    
C38   C42   S    
C37   C40   S    
C69   C70   A    
Cu1   O8    S    
C5    C6    A    
C14   H74   S    
C15   C78   A    
C66   C68   A    
C77   C83   A    
C3    C110  A    
C98   C99   A    
C37   C42   S    
C17   C20   A    
C23   C43   S    
C108  C109  A    
C90   H47   S    
C101  H55   S    
C2    C13   A    
C34   C91   S    
C92   C93   A    
C9    H70   S    
C61   H20   S    
C42   C56   S    
C91   C96   A    
C68   C69   A    
C27   C64   S    
C40   C43   S    
C40   H2    S    
Cu1   Cu2   S    
C8    C9    A    
C108  H62   S    
C103  H58   S    
C8    C14   A    
C107  C108  A    
C31   C33   A    
C25   H34   S    
C51   C57   A    
H29   O10   S    
C64   C70   A    
C9    C10   A    
C94   H50   S    
Cu2   O9    S    
Cu1   O6    S    
C79   H37   S    
C99   H54   S    
C102  H57   S    
C77   C79   A    
Cu2   N1    S    
C59   C60   A    
C10   H71   S    
C36   C41   S    
C102  C103  A    
C34   C84   S    
C60   H19   S    
C104  C105  A    
C26   N1    A    
C44   C46   A    
C81   C82   A    
C40   C44   S    
C15   C22   S    
C38   C39   S    
C5    H66   S    
C74   C75   A    
C7    H69   S    
C51   C52   A    
C65   H24   S    
C63   H22   S    
Cu1   O1    S    
C84   C85   A    
C53   H14   S    
C91   C92   A    
C86   C87   A    
C72   C73   A    
C39   C43   S    
C107  H61   S    
C75   H35   S    
C58   C59   A    
C85   C86   A    
C31   O2    S    
C96   H52   S    
C60   C61   A    
C2    C89   A    
C1    O3    A    
C86   H43   S    
C24   C32   A    
Cu2   O5    S    
C62   C63   A    
C95   H51   S    
C15   C89   A    
C26   C58   S    
C47   C48   A    
C23   H4    S    
C11   C12   A    
C23   C34   S    
H30   O2    S    
C78   C97   S    
C39   C51   S    
C94   C95   A    
C70   H28   S    
C41   C45   T    
C20   C21   A    
C43   C45   S    
C97   C103  A    
C17   H6    S    
C83   H41   S    
C39   H76   S    
C35   O6    A    
C24   H23   S    
C48   C49   A    
C27   N2    A    
C12   C14   A    
C93   H49   S    
C65   C66   A    
C88   H46   S    
C37   C71   S    
C89   C104  S    
C78   C100  A    
C49   C50   A    
C1    C13   S    
C3    C4    A    
C1    O1    A    
Cu2   O7    S    
C48   H9    S    
C52   C53   A    
C35   O7    A    
C105  C106  A    
C44   C50   A    
C58   C63   A    
C46   C47   A    
C47   H8    S    
C16   C22   A    
C38   H67   S    
C105  H59   S    
C6    H68   S    
C18   O5    A    
C87   H44   S    
C106  H60   S    
C2    C8    S    
C50   H11   S    
C24   C26   A    
C80   C81   A    
C71   C76   A    
C52   H13   S    
C109  H63   S    
C6    C7    A    
C21   C35   S    
C38   C77   S    
C25   C27   A    
C56   C67   T    
C54   H15   S    
C17   C22   A    
C7    C110  A    
C92   H48   S    
C64   C65   A    
C13   C100  A    
C55   C57   A    
C88   C90   A    
C18   C67   S    
C29   H56   S    
C29   C31   A    
C81   H39   S    
C16   H5    S    
C32   C33   S    
C30   C32   A    
C104  C109  A    
C66   H25   S    
C16   C19   A    
C49   H10   S    
C28   C30   A    
C28   H45   S    
C46   H7    S    
C85   H42   S    
C61   C62   A    
Cu2   O3    S    
C20   H12   S    
C98   H53   S    
C10   C11   A    
Cu1   O4    S    
C23   H3    S    
C79   C80   A    
C3    H64   S    
C4    C5    A    
C71   C72   A    
C55   H16   S    
C76   H36   S    
Cu1   N2    S    
C82   C83   A    
C106  C107  A    
C19   H1    S    
C29   N2    A    
C11   H72   S    
C99   C101  A    
C82   H40   S    
C25   C33   A    
C73   H32   S    
