data_mof_unit_35558.cif
_audit_creation_date              2012-10-26T18:43:48-0400
_audit_creation_method            fapswitch 2.2
_symmetry_space_group_name_H-M    P1
_symmetry_Int_Tables_number       1
_space_group_crystal_system       triclinic
_cell_length_a                    9.538835
_cell_length_b                    10.860311
_cell_length_c                    17.365834
_cell_angle_alpha                 90.235126
_cell_angle_beta                  85.786885
_cell_angle_gamma                 90.025493
_cell_volume                      1794.13200803

loop_
_atom_site_label
_atom_site_type_symbol
_atom_type_description
_atom_site_fract_x
_atom_site_fract_y
_atom_site_fract_z
_atom_type_partial_charge
C1    C     C_R   0.500214 0.737313 0.499616 0.552283
C2    C     C_R   0.527664 0.512569 0.265912 0.016042
C3    C     C_R   0.378856 0.937956 0.505237 0.021840
C4    C     C_R   0.481478 0.498916 0.649869 0.545714
C5    C     C_R   0.502023 0.869882 0.497275 0.010605
C6    C     C_R   0.629899 0.935357 0.486786 -0.163073
C7    C     C_R   0.629831 0.064598 0.486654 -0.162651
C8    C     C_R   0.501882 0.130069 0.497017 0.009058
C9    C     C_R   0.378723 0.061915 0.505018 0.019889
C10   C     C_3   0.223824 0.070632 0.522809 -0.264980
C11   C     C_3   0.224089 0.928851 0.523060 -0.273971
C12   C     C_R   0.340899 0.506439 0.776383 -0.131300
C13   C     C_R   0.930572 0.403772 0.468252 0.158057
C14   C     C_R   0.920451 0.588068 0.538432 -0.017014
C15   C     C_R   0.069360 0.587968 0.538527 -0.017832
C16   C     C_R   0.500192 0.262680 0.499439 0.552476
C17   C     C_R   0.078018 0.403991 0.468041 0.158072
C18   C     C_3   0.094533 0.361741 0.386105 -0.276908
C19   C     C_3   0.935461 0.360866 0.386508 -0.280646
C20   C     C_R   0.518419 0.502639 0.350118 0.545420
C21   C     C_R   0.471516 0.495083 0.734189 0.015265
C22   C     C_R   0.593707 0.478538 0.773170 -0.132194
C23   C     C_R   0.412574 0.546305 0.148255 -0.108957
C24   C     C_R   0.586042 0.475636 0.853151 -0.108967
C25   C     C_R   0.456103 0.491066 0.895473 0.044173
C26   C     C_R   0.333368 0.503966 0.856715 -0.117047
C27   C     C_R   0.405727 0.536621 0.228019 -0.132152
C28   C     C_R   0.657396 0.501904 0.222835 -0.128981
C29   C     C_R   0.664218 0.511463 0.142761 -0.115333
C30   C     C_R   0.541501 0.530918 0.105043 0.043461
C31   C     C_2   0.445608 0.492483 0.980063 -0.134853
C32   C     C_2   0.550624 0.533699 0.020540 -0.135427
Cu1   Cu    Cu3+1 0.359330 0.500020 0.500000 0.936573
Cu2   Cu    Cu3+1 0.640670 0.499980 0.500000 0.935229
H1    H     H_    0.695455 0.467094 0.741963 0.127466
H2    H     H_    0.121133 0.660257 0.568677 0.110469
H3    H     H_    0.144027 0.432236 0.346791 0.147085
H4    H     H_    0.304914 0.549188 0.259891 0.117392
H5    H     H_    0.141921 0.268533 0.379961 0.120141
H6    H     H_    0.895128 0.430792 0.347408 0.145577
H7    H     H_    0.890600 0.267001 0.381167 0.119029
H8    H     H_    0.753180 0.485328 0.250663 0.111664
H9    H     H_    0.648228 0.566045 0.991408 0.114038
H10   H     H_    0.232119 0.514276 0.888673 0.097920
H11   H     H_    0.317123 0.566848 0.120792 0.100226
H12   H     H_    0.764770 0.500999 0.110106 0.097638
H13   H     H_    0.245003 0.518261 0.747480 0.123153
H14   H     H_    0.348092 0.460157 0.009352 0.114360
H15   H     H_    0.681769 0.459837 0.881399 0.100090
H16   H     H_    0.729603 0.887494 0.479369 0.131547
H17   H     H_    0.729506 0.112472 0.479170 0.130527
H18   H     H_    0.196049 0.111946 0.580579 0.141851
H19   H     H_    0.169072 0.110594 0.474516 0.131150
H20   H     H_    0.196635 0.888964 0.581056 0.127158
H21   H     H_    0.169817 0.886994 0.474863 0.138247
H22   H     H_    0.860723 0.660656 0.568361 0.114660
N1    N     N_R   0.852130 0.499070 0.499500 -0.231636
N2    N     N_R   0.148040 0.499110 0.499500 -0.231979
O1    O     O_R   0.381190 0.680360 0.500000 -0.506035
O2    O     O_R   0.618770 0.680320 0.499990 -0.514755
O3    O     O_R   0.367430 0.500040 0.613600 -0.508268
O4    O     O_R   0.605020 0.500000 0.613590 -0.507587
O5    O     O_R   0.381230 0.319680 0.500010 -0.498131
O6    O     O_R   0.618810 0.319640 0.500000 -0.506706
O7    O     O_R   0.394980 0.500000 0.386410 -0.510242
O8    O     O_R   0.632570 0.499960 0.386400 -0.507923

loop_
_geom_bond_atom_site_label_1
_geom_bond_atom_site_label_2
_ccdc_geom_bond_type
C25   C31   S    
Cu2   N1    S    
C14   H22   S    
C18   H5    S    
Cu1   N2    S    
C3    C9    A    
C16   O5    A    
C23   C27   A    
C30   C32   S    
C9    C10   S    
C17   N2    A    
C31   C32   D    
C13   C17   A    
C29   H12   S    
Cu1   O5    S    
C2    C27   A    
C10   H18   S    
Cu2   O8    S    
C8    C16   S    
Cu2   O6    S    
C17   C18   S    
C25   C26   A    
Cu1   O7    S    
C7    C8    A    
Cu1   O1    S    
Cu2   O4    S    
C21   C22   A    
C6    H16   S    
Cu2   O2    S    
C22   H1    S    
C29   C30   A    
C11   H20   S    
C12   H13   S    
C23   H11   S    
C12   C21   A    
C20   O8    A    
C28   C29   A    
C18   H3    S    
C4    C21   S    
Cu1   Cu2   S    
C6    C7    A    
C31   H14   S    
C1    O1    A    
C5    C6    A    
C15   N2    A    
C22   C24   A    
C19   H6    S    
C3    C11   S    
C10   C11   S    
C13   C19   S    
C27   H4    S    
C26   H10   S    
C23   C30   A    
C4    O4    A    
C20   O7    A    
C1    C5    S    
C11   H21   S    
C13   N1    A    
C24   C25   A    
Cu1   O3    S    
C18   C19   S    
C7    H17   S    
C1    O2    A    
C28   H8    S    
C24   H15   S    
C14   N1    A    
C10   H19   S    
C14   C15   A    
C2    C28   A    
C16   O6    A    
C15   H2    S    
C2    C20   S    
C4    O3    A    
C32   H9    S    
C19   H7    S    
C12   C26   A    
C8    C9    A    
C3    C5    A    
