data_mof_unit_9162.cif
_audit_creation_date              2012-12-10T18:59:57-0500
_audit_creation_method            fapswitch 2.2
_symmetry_space_group_name_H-M    P1
_symmetry_Int_Tables_number       1
_space_group_crystal_system       triclinic
_cell_length_a                    10.766104
_cell_length_b                    10.629998
_cell_length_c                    9.83031
_cell_angle_alpha                 89.45026
_cell_angle_beta                  90.90561
_cell_angle_gamma                 88.819291
_cell_volume                      1124.58195452

loop_
_atom_site_label
_atom_site_type_symbol
_atom_type_description
_atom_site_fract_x
_atom_site_fract_y
_atom_site_fract_z
_atom_type_partial_charge
C1    C     C_R   0.497093 0.260236 0.500419 0.933817
C2    C     C_R   0.502898 0.739765 0.499580 0.933818
C3    C     C_R   0.872474 0.503664 0.504959 -0.089928
C4    C     C_R   0.127522 0.496360 0.495044 -0.089952
C5    C     C_R   0.940524 0.438794 0.608809 -0.096710
C6    C     C_R   0.059472 0.561225 0.391190 -0.096719
C7    C     C_R   0.404928 0.065045 0.426669 0.261339
C8    C     C_R   0.595060 0.934955 0.573324 0.261328
C9    C     C_R   0.410489 0.935852 0.425326 -0.271920
C10   C     C_R   0.589497 0.064146 0.574668 -0.271941
C11   C     C_R   0.504278 0.872031 0.498645 -0.114255
C12   C     C_R   0.495708 0.127969 0.501353 -0.114255
C13   C     C_R   0.550749 0.596826 0.071848 -0.080343
C14   C     C_R   0.449260 0.403167 0.928152 -0.080374
C15   C     C_R   0.550712 0.596784 0.927962 -0.072727
C16   C     C_R   0.449297 0.403211 0.072038 -0.072725
C17   C     C_R   0.260033 0.499338 0.498435 0.934246
C18   C     C_R   0.739965 0.500669 0.501564 0.934262
C19   C     C_R   0.194894 0.802918 0.152742 -0.128383
C20   C     C_R   0.805107 0.197003 0.847134 -0.128387
C21   C     C_R   0.145302 0.747828 0.269243 -0.183799
C22   C     C_R   0.854674 0.252146 0.730650 -0.183797
C23   C     C_R   0.118551 0.619304 0.271097 0.145907
C24   C     C_R   0.881447 0.380664 0.728872 0.145941
C25   C     C_R   0.140235 0.546921 0.154638 -0.109494
C26   C     C_R   0.859807 0.452988 0.845387 -0.109512
C27   C     C_R   0.190284 0.602292 0.038736 -0.144674
C28   C     C_R   0.809780 0.397566 0.961270 -0.144689
C29   C     C_R   0.218079 0.730061 0.037956 -0.091517
C30   C     C_R   0.781967 0.269803 0.961977 -0.091523
C31   C     C_R   0.931174 0.568079 0.399343 0.066587
C32   C     C_R   0.068820 0.431953 0.600666 0.066604
H1    H     H_    0.256861 0.772741 0.948132 0.139493
H2    H     H_    0.743214 0.227083 0.051791 0.139493
H3    H     H_    0.591843 0.673872 0.873549 0.175661
H4    H     H_    0.408171 0.326118 0.126451 0.175661
H5    H     H_    0.215037 0.902220 0.151197 0.173451
H6    H     H_    0.784951 0.097704 0.848625 0.173489
H7    H     H_    0.126396 0.805221 0.357269 0.146318
H8    H     H_    0.873544 0.194799 0.642578 0.146300
H9    H     H_    0.118076 0.447983 0.153793 0.147669
H10   H     H_    0.881995 0.551917 0.846295 0.147639
H11   H     H_    0.207329 0.546358 0.949398 0.138586
H12   H     H_    0.792775 0.453450 0.050658 0.138584
H13   H     H_    0.340583 0.884950 0.370134 0.172366
H14   H     H_    0.659405 0.115047 0.629852 0.172354
H15   H     H_    0.591838 0.673972 0.126202 0.148297
H16   H     H_    0.408179 0.326014 0.873797 0.148299
N1    N     N_R   0.499970 0.499970 0.857200 -0.080215
N2    N     N_R   0.500030 0.500030 0.142800 -0.080209
O1    O     O_R   0.499990 0.316750 0.614620 -0.625142
O2    O     O_R   0.500010 0.683250 0.385380 -0.625140
O3    O     O_R   0.499990 0.316780 0.385290 -0.606907
O4    O     O_R   0.500010 0.683220 0.614710 -0.606909
O5    O     O_R   0.316760 0.500000 0.614660 -0.611714
O6    O     O_R   0.683240 0.500000 0.385340 -0.611725
O7    O     O_R   0.316760 0.500020 0.385330 -0.604578
O8    O     O_R   0.683240 0.499980 0.614670 -0.604569
Zn1   Zn    Zn3+2 0.500000 0.499980 0.653120 0.975532
Zn2   Zn    Zn3+2 0.500000 0.500020 0.346880 0.975530
N3    N     N_3   0.859321 0.643912 0.303320 -0.427621
H17   H     H_    0.875993 0.612005 0.204942 0.181275
H18   H     H_    0.887040 0.737301 0.310490 0.204469
N4    N     N_3   0.140665 0.356104 0.696681 -0.427619
H19   H     H_    0.123967 0.387966 0.795087 0.181263
H20   H     H_    0.112974 0.262708 0.689454 0.204485
Br1   Br    Br    0.268979 0.150308 0.332998 -0.605057
Br2   Br    Br    0.731019 0.849694 0.666982 -0.605037

loop_
_geom_bond_atom_site_label_1
_geom_bond_atom_site_label_2
_ccdc_geom_bond_type
C10   H14   S    
C14   H16   S    
C9    H13   S    
C1    O3    A    
O5    Zn1   S    
C27   C29   A    
C20   H6    S    
C19   H5    S    
C31   N3    S    
C26   C28   A    
N3    H17   S    
C21   H7    S    
C13   C15   A    
C18   O6    A    
C5    C32   A    
N2    Zn2   S    
N4    H19   S    
C28   C30   A    
C6    C31   A    
C22   H8    S    
N4    H20   S    
C20   C30   A    
C16   H4    S    
C3    C31   A    
C9    C11   A    
C32   N4    S    
C4    C32   A    
C1    C12   S    
C2    O2    A    
C8    C11   A    
C6    C23   S    
C10   C12   A    
C8    C10   A    
C19   C21   A    
O3    Zn2   S    
C20   C22   A    
C8    Br2   S    
C14   C16   A    
O4    Zn1   S    
C15   N1    A    
C21   C23   A    
C7    C12   A    
C16   N2    A    
C22   C24   A    
C15   H3    S    
C4    C6    A    
O1    Zn1   S    
C30   H2    S    
C7    Br1   S    
C13   N2    A    
C19   C29   A    
C29   H1    S    
C23   C25   A    
C14   N1    A    
C26   H10   S    
C3    C18   S    
C4    C17   S    
C2    O4    A    
C25   H9    S    
C13   H15   S    
C27   H11   S    
C17   O5    A    
C5    C24   S    
O7    Zn2   S    
C2    C11   S    
C1    O1    A    
O2    Zn2   S    
O8    Zn1   S    
C17   O7    A    
C25   C27   A    
C28   H12   S    
N3    H18   S    
O6    Zn2   S    
C24   C26   A    
C18   O8    A    
C3    C5    A    
C7    C9    A    
N1    Zn1   S    
