data_mof_unit_51359.cif
_audit_creation_date              2012-12-10T17:58:17-0500
_audit_creation_method            fapswitch 2.2
_symmetry_space_group_name_H-M    P1
_symmetry_Int_Tables_number       1
_space_group_crystal_system       triclinic
_cell_length_a                    9.528236
_cell_length_b                    10.838387
_cell_length_c                    15.462158
_cell_angle_alpha                 89.143971
_cell_angle_beta                  74.380233
_cell_angle_gamma                 89.416442
_cell_volume                      1537.61509744

loop_
_atom_site_label
_atom_site_type_symbol
_atom_type_description
_atom_site_fract_x
_atom_site_fract_y
_atom_site_fract_z
_atom_type_partial_charge
C1    C     C_R   0.002045 0.262318 0.496984 0.825080
C2    C     C_R   0.000944 0.737972 0.495581 0.836146
C3    C     C_R   0.588131 0.498945 0.096965 -0.231103
C4    C     C_R   0.428910 0.405343 0.912913 -0.218939
C5    C     C_R   0.733730 0.514334 0.051560 -0.243366
C6    C     C_R   0.283694 0.387816 0.958842 -0.238011
C7    C     C_R   0.875320 0.066959 0.498151 -0.323595
C8    C     C_R   0.135118 0.934278 0.472855 -0.313985
C9    C     C_R   0.873935 0.940225 0.489593 0.482252
C10   C     C_R   0.139403 0.062274 0.467049 0.479611
C11   C     C_R   0.002436 0.872130 0.486525 -0.224222
C12   C     C_R   0.006621 0.128952 0.488340 -0.217536
C13   C     C_R   0.544323 0.447638 0.569514 -0.004955
C14   C     C_R   0.455899 0.551167 0.430050 -0.033824
C15   C     C_R   0.395739 0.447498 0.569414 0.000086
C16   C     C_R   0.604684 0.549590 0.429569 -0.031254
C17   C     C_R   0.918215 0.499316 0.672278 0.808160
C18   C     C_R   0.081919 0.496934 0.327893 0.762300
C19   C     C_R   0.873651 0.497400 0.770865 -0.049630
C20   C     C_R   0.128296 0.478851 0.230548 -0.046717
C21   C     C_R   0.926434 0.526168 0.913597 -0.212173
C22   C     C_R   0.085409 0.402040 0.094036 -0.222961
C23   C     C_R   0.973419 0.521454 0.820332 -0.193670
C24   C     C_R   0.033127 0.432169 0.184361 -0.211196
C25   C     C_R   0.727955 0.473506 0.815647 -0.244880
C26   C     C_R   0.275057 0.496359 0.185567 -0.257341
C27   C     C_R   0.678536 0.474114 0.909889 0.092232
C28   C     C_R   0.331835 0.461585 0.095744 0.088697
C29   C     C_R   0.779829 0.504488 0.958585 0.167825
C30   C     C_R   0.233445 0.417153 0.049291 0.162101
C31   C     C_R   0.530446 0.450548 0.956678 0.068653
C32   C     C_R   0.482860 0.471394 0.050739 0.072036
Cu1   Cu    Cu3+1 0.140660 0.500020 0.500000 0.949092
Cu2   Cu    Cu3+1 0.859340 0.499980 0.500000 0.951819
H1    H     H_    0.810313 0.536551 0.089555 0.147905
H2    H     H_    0.209768 0.352356 0.922882 0.148613
H3    H     H_    0.342661 0.538691 0.222288 0.140432
H4    H     H_    0.653925 0.458736 0.775196 0.143489
H5    H     H_    0.919466 0.416409 0.218415 0.151982
H6    H     H_    0.086716 0.539931 0.786936 0.155901
H7    H     H_    0.004363 0.548917 0.950496 0.146607
H8    H     H_    0.010475 0.365269 0.059381 0.143943
H9    H     H_    0.562452 0.506023 0.168965 0.133802
H10   H     H_    0.459015 0.378630 0.843481 0.137085
H11   H     H_    0.773080 0.116844 0.508562 0.198288
H12   H     H_    0.236778 0.883830 0.463539 0.192663
H13   H     H_    0.575775 0.404804 0.625114 0.112714
H14   H     H_    0.424718 0.593239 0.374101 0.111583
H15   H     H_    0.316108 0.404994 0.624939 0.119234
H16   H     H_    0.684979 0.588027 0.372586 0.100472
N1    N     N_R   0.352080 0.500030 0.499980 -0.155742
N2    N     N_R   0.647920 0.499970 0.500020 -0.151189
O1    O     O_R   0.118740 0.319660 0.500000 -0.546994
O2    O     O_R   0.881260 0.680340 0.500000 -0.541307
O3    O     O_R   0.881170 0.319630 0.500010 -0.590836
O4    O     O_R   0.118830 0.680370 0.499990 -0.582265
O5    O     O_R   0.055570 0.500030 0.629830 -0.589163
O6    O     O_R   0.944430 0.499970 0.370170 -0.598329
O7    O     O_R   0.818000 0.500000 0.629840 -0.586176
O8    O     O_R   0.182000 0.500000 0.370160 -0.602834
O9    O     O_3   0.744616 0.885955 0.486486 -0.584469
C33   C     C_3   0.749718 0.860123 0.395950 0.101501
H17   H     H_    0.656098 0.799617 0.397404 0.158797
H18   H     H_    0.850336 0.808257 0.361356 0.122842
C34   C     C_3   0.733074 0.976452 0.341326 -0.408352
H19   H     H_    0.629633 0.024668 0.374731 0.243118
H20   H     H_    0.824922 0.040522 0.336938 0.217722
C35   C     C_3   0.733249 0.943232 0.245674 -0.925006
H21   H     H_    0.839548 0.901166 0.210121 0.259095
H22   H     H_    0.716195 0.027948 0.208431 0.268748
H23   H     H_    0.644880 0.876907 0.246271 0.249376
O10   O     O_3   0.274214 0.119140 0.444203 -0.599177
C36   C     C_3   0.304706 0.167866 0.355359 0.106752
H24   H     H_    0.397985 0.231962 0.346375 0.174130
H25   H     H_    0.212910 0.223599 0.343233 0.125938
C37   C     C_3   0.346756 0.066481 0.284689 -0.427687
H26   H     H_    0.430965 0.005616 0.300344 0.239839
H27   H     H_    0.249883 0.009453 0.286106 0.210660
C38   C     C_3   0.404596 0.121832 0.190528 -0.879485
H28   H     H_    0.319936 0.181118 0.173273 0.265052
H29   H     H_    0.434238 0.046550 0.140856 0.260310
H30   H     H_    0.503139 0.177983 0.186407 0.253691

loop_
_geom_bond_atom_site_label_1
_geom_bond_atom_site_label_2
_ccdc_geom_bond_type
C27   C29   A    
C36   H24   S    
C37   C38   S    
C3    H9    S    
C9    O9    S    
C7    H11   S    
C16   H16   S    
C8    C11   A    
C23   H6    S    
C24   H5    S    
C1    O1    A    
C33   H18   S    
C18   O6    A    
C31   C32   A    
C35   H21   S    
C34   H20   S    
C15   N1    A    
C18   C20   S    
Cu1   O4    S    
Cu2   O3    S    
C36   H25   S    
C3    C32   A    
C1    C12   S    
C2    C11   S    
C5    C29   A    
Cu1   O1    S    
C7    C12   A    
C27   C31   A    
C20   C24   A    
C28   C32   A    
C37   H26   S    
C4    C6    A    
C2    O2    A    
C38   H29   S    
C14   H14   S    
C4    H10   S    
C21   C29   A    
C19   C23   A    
C33   H17   S    
C25   H4    S    
C13   N2    A    
C14   N1    A    
C34   C35   S    
Cu1   Cu2   S    
C9    C11   A    
C10   C12   A    
C17   O7    A    
C21   H7    S    
C18   O8    A    
C6    C30   A    
Cu2   O2    S    
Cu1   O8    S    
C13   C15   A    
Cu2   O7    S    
C36   C37   S    
C14   C16   A    
C25   C27   A    
C13   H13   S    
C7    C9    A    
Cu1   O5    S    
C22   C30   A    
C33   C34   S    
Cu2   N2    S    
C16   N2    A    
C37   H27   S    
O10   C36   S    
C3    C5    A    
C38   H30   S    
C26   H3    S    
Cu1   N1    S    
C26   C28   A    
C21   C23   A    
C1    O3    A    
C2    O4    A    
C22   H8    S    
C20   C26   A    
C35   H23   S    
C5    H1    S    
C28   C30   A    
C17   C19   S    
C6    H2    S    
C22   C24   A    
C15   H15   S    
O9    C33   S    
C19   C25   A    
C8    H12   S    
C4    C31   A    
C38   H28   S    
C8    C10   A    
C34   H19   S    
Cu2   O6    S    
C35   H22   S    
C17   O5    A    
C10   O10   S    
