data_mof_unit_13769.cif
_audit_creation_date              2013-03-05T16:06:03-0500
_audit_creation_method            fapswitch 2.2
_symmetry_space_group_name_H-M    P1
_symmetry_Int_Tables_number       1
_space_group_crystal_system       triclinic
_cell_length_a                    10.513616
_cell_length_b                    15.076472
_cell_length_c                    15.566068
_cell_angle_alpha                 81.483066
_cell_angle_beta                  90.823577
_cell_angle_gamma                 104.070803
_cell_volume                      2366.32458682

loop_
_atom_site_label
_atom_site_type_symbol
_atom_site_description
_atom_site_fract_x
_atom_site_fract_y
_atom_site_fract_z
_atom_type_partial_charge
O1    O     O_R   0.462600 0.383110 0.605620 -0.580296
O2    O     O_R   0.537400 0.616890 0.394380 -0.582193
O3    O     O_R   0.510210 0.531900 0.639510 -0.612149
O4    O     O_R   0.489790 0.468100 0.360490 -0.612375
C1    C     C_R   0.481459 0.441676 0.661609 0.894589
C2    C     C_R   0.519950 0.558387 0.338437 0.899470
O5    O     O_R   0.662240 0.425610 0.483080 -0.559332
O6    O     O_R   0.337760 0.574390 0.516920 -0.558795
O7    O     O_R   0.709860 0.574400 0.516970 -0.565012
O8    O     O_R   0.290140 0.425600 0.483030 -0.564135
C3    C     C_R   0.741972 0.501850 0.497229 1.033283
C4    C     C_R   0.258034 0.498225 0.502583 1.036779
Zn1   Zn    Zn3+2 0.468210 0.400660 0.477370 1.108429
Zn2   Zn    Zn3+2 0.531790 0.599340 0.522630 1.107587
C5    C     C_3   0.943609 0.466443 0.578520 0.279338
C6    C     C_3   0.056448 0.533707 0.421015 0.278396
C7    C     C_3   0.059906 0.552136 0.558963 0.323035
C8    C     C_3   0.940121 0.448043 0.440554 0.322240
C9    C     C_3   0.123188 0.497632 0.502841 -0.438972
C10   C     C_3   0.876846 0.502541 0.496708 -0.436367
C11   C     C_3   0.007717 0.413177 0.522283 0.160958
C12   C     C_3   0.992332 0.586988 0.477220 0.160211
C13   C     C_R   0.482865 0.406871 0.753856 -0.060900
C14   C     C_R   0.534797 0.594598 0.246153 -0.060755
C15   C     C_R   0.543740 0.302221 0.870742 -0.126830
C16   C     C_R   0.522481 0.711745 0.124848 -0.131749
C17   C     C_R   0.515147 0.323123 0.783589 -0.052348
C18   C     C_R   0.524233 0.684130 0.214116 -0.058982
C19   C     C_R   0.471356 0.466326 0.811936 -0.157586
C20   C     C_R   0.552800 0.535512 0.189236 -0.160731
C21   C     C_R   0.512224 0.451643 0.897486 0.107181
C22   C     C_R   0.549143 0.560695 0.099421 0.096433
C23   C     C_R   0.545841 0.366879 0.927362 0.126972
C24   C     C_R   0.529784 0.649468 0.067521 0.131141
C25   C     C_R   0.522729 0.519485 0.953215 0.079737
C26   C     C_R   0.554282 0.497355 0.041374 0.072368
C27   C     C_R   0.589059 0.412555 0.068667 -0.144521
C28   C     C_R   0.506472 0.609548 0.923266 -0.128602
C29   C     C_R   0.584703 0.348713 0.012478 -0.167513
C30   C     C_R   0.513037 0.673804 0.979294 -0.179851
H1    H     H_    0.612913 0.284949 0.035732 0.170971
H2    H     H_    0.499674 0.741792 0.953799 0.166380
H3    H     H_    0.561167 0.467572 0.217032 0.182033
H4    H     H_    0.434565 0.525643 0.787275 0.168272
H5    H     H_    0.511757 0.731003 0.257834 0.239087
H6    H     H_    0.523807 0.276075 0.739144 0.239318
H7    H     H_    0.570223 0.237625 0.892922 0.179299
H8    H     H_    0.509509 0.780145 0.100801 0.181512
H9    H     H_    0.624740 0.394451 0.132468 0.171410
H10   H     H_    0.490928 0.633886 0.856356 0.178307
N1    N     N_R   0.574200 0.731700 0.552740 -0.191009
N2    N     N_R   0.425800 0.268300 0.447260 -0.190775
C31   C     C_R   0.645891 0.828845 0.660715 -0.280322
C32   C     C_R   0.355153 0.171024 0.339189 -0.271883
C33   C     C_R   0.645112 0.749185 0.625339 0.391599
C34   C     C_R   0.356906 0.251253 0.373732 0.392433
C35   C     C_R   0.519973 0.796741 0.506347 0.477663
C36   C     C_R   0.479068 0.202973 0.494169 0.478860
C37   C     C_R   0.542262 0.885917 0.530972 -0.033730
C38   C     C_R   0.456661 0.113652 0.469768 -0.033772
C39   C     C_R   0.588660 0.895396 0.615380 -0.000578
C40   C     C_R   0.410783 0.104102 0.385247 -0.005537
C41   C     C_R   0.509845 0.963024 0.479409 -0.029070
C42   C     C_R   0.489230 0.036573 0.521435 -0.027751
C43   C     C_R   0.498968 0.028698 0.613434 0.356278
C44   C     C_R   0.500705 0.970996 0.387410 0.358052
C45   C     C_R   0.565652 0.966182 0.656480 -0.158992
C46   C     C_R   0.433957 0.033315 0.344276 -0.156181
H11   H     H_    0.585422 0.965712 0.725066 0.190164
H12   H     H_    0.414717 0.033861 0.275616 0.192632
H13   H     H_    0.689869 0.838229 0.723199 0.199289
H14   H     H_    0.312737 0.161912 0.276221 0.202334
Cl1   Cl    Cl    0.139804 0.618491 0.638978 -0.413351
Cl2   Cl    Cl    0.860028 0.381825 0.360492 -0.422851
Cl3   Cl    Cl    0.600772 0.238850 0.569449 -0.490351
Cl4   Cl    Cl    0.399215 0.760981 0.430376 -0.481019
N3    N     N_R   0.294533 0.317703 0.327622 0.236793
O9    O     O_R   0.187619 0.329206 0.360226 -0.273489
O10   O     O_R   0.319992 0.344585 0.244995 -0.390304
N4    N     N_R   0.713515 0.684719 0.668251 0.238794
O11   O     O_R   0.820735 0.677593 0.632419 -0.271026
O12   O     O_R   0.693836 0.656581 0.751136 -0.403194
N5    N     N_R   0.428910 0.074398 0.664626 0.223685
O13   O     O_R   0.316461 0.089248 0.639118 -0.330124
O14   O     O_R   0.466121 0.087756 0.742793 -0.374244
N6    N     N_R   0.571761 0.925839 0.336313 0.222249
O15   O     O_R   0.536040 0.913442 0.257680 -0.377279
O16   O     O_R   0.683926 0.910898 0.362384 -0.334426
Cl5   Cl    Cl    0.863803 0.421251 0.681676 -0.432516
Cl6   Cl    Cl    0.136392 0.578947 0.317918 -0.418300
N7    N     N_R   0.020451 0.319012 0.549552 0.288857
O17   O     O_R   0.966433 0.253279 0.505517 -0.238667
O18   O     O_R   0.083396 0.299906 0.619693 -0.313129
N8    N     N_R   0.979897 0.681186 0.449702 0.290580
O19   O     O_R   0.037130 0.747494 0.492193 -0.235771
O20   O     O_R   0.915718 0.699970 0.380053 -0.315361

loop_
_geom_bond_atom_site_label_1
_geom_bond_atom_site_label_2
_geom_bond_distance
_ccdc_geom_bond_type
C44   C46   1.395081 A    
C6    Cl6   1.784060 S    
C8    C11   1.535401 S    
C25   C26   1.417609 A    
C29   H1    1.084259 S    
N3    O9    1.299383 A    
O5    C3    1.293662 A    
C23   C29   1.388794 A    
O1    C1    1.310095 A    
C13   C19   1.389756 A    
C35   Cl4   1.764630 S    
C26   C27   1.417966 A    
C9    C11   1.526907 S    
N6    O16   1.301700 A    
C43   N5    1.441692 S    
N7    O18   1.300675 A    
C36   C38   1.416997 A    
C38   C40   1.410129 A    
O4    Zn1   1.935747 S    
C31   C39   1.392269 A    
C16   C24   1.403200 A    
N5    O13   1.301683 A    
C43   C45   1.396276 A    
C6    C12   1.534133 S    
C21   C23   1.418858 A    
N1    C35   1.363210 A    
C13   C17   1.398000 A    
C20   C22   1.395897 A    
C15   H7    1.083812 S    
C8    C10   1.541722 S    
C16   H8    1.083850 S    
C30   H2    1.084360 S    
C41   C44   1.423077 A    
C8    Cl2   1.785639 S    
C7    Cl1   1.785544 S    
C12   N8    1.458057 S    
O2    C2    1.309262 A    
O8    C4    1.298774 A    
C36   Cl3   1.763832 S    
C31   C33   1.391641 A    
C5    C10   1.538003 S    
C3    C10   1.415637 S    
C32   C34   1.390698 A    
C18   H5    1.081563 S    
C37   C39   1.409966 A    
C25   C28   1.418914 A    
N4    O12   1.300099 A    
N7    O17   1.300315 A    
N6    O15   1.301774 A    
C32   C40   1.390920 A    
C34   N3    1.428922 S    
C45   H11   1.084042 S    
C22   C24   1.418433 A    
C27   C29   1.385751 A    
O7    Zn2   2.002742 S    
C5    Cl5   1.784174 S    
Zn1   N2    2.058876 S    
C27   H9    1.077188 S    
C39   C45   1.392455 A    
Zn2   N1    2.058877 S    
C1    C13   1.455131 S    
C5    C11   1.534236 S    
O6    C4    1.293642 A    
C2    C14   1.455560 S    
N3    O10   1.301119 A    
N8    O20   1.300696 A    
O7    C3    1.298812 A    
O3    Zn2   1.935747 S    
N2    C36   1.363925 A    
C17   H6    1.081036 S    
O4    C2    1.313822 A    
N5    O14   1.301790 A    
C10   C12   1.526998 S    
C19   H4    1.076552 S    
C21   C25   1.419862 A    
C20   H3    1.074971 S    
O1    Zn1   1.974395 S    
C31   H13   1.084356 S    
C22   C26   1.418936 A    
C11   N7    1.458043 S    
C5    C7    1.543668 S    
O6    Zn2   1.985546 S    
C16   C18   1.391461 A    
C14   C18   1.398213 A    
N4    O11   1.299256 A    
O3    C1    1.313190 A    
O8    Zn1   2.002740 S    
C44   N6    1.441872 S    
C28   H10   1.075723 S    
C15   C17   1.392061 A    
C37   C41   1.421326 A    
C7    C12   1.535367 S    
C40   C46   1.391951 A    
C38   C42   1.422402 A    
C42   C43   1.423633 A    
C19   C21   1.396233 A    
C28   C30   1.385609 A    
C33   N4    1.428903 S    
C6    C9    1.537925 S    
C4    C9    1.415633 S    
C7    C9    1.541504 S    
N1    C33   1.367801 A    
N8    O19   1.300321 A    
O2    Zn2   1.974392 S    
C14   C20   1.391001 A    
C35   C37   1.416438 A    
C41   C42   1.428393 A    
O5    Zn1   1.985547 S    
C32   H14   1.084436 S    
C6    C8    1.543561 S    
C46   H12   1.084087 S    
C24   C30   1.388131 A    
N2    C34   1.368737 A    
C15   C23   1.403917 A    
