data_mof_unit_14500.cif
_audit_creation_date              2012-12-10T17:46:19-0500
_audit_creation_method            fapswitch 2.2
_symmetry_space_group_name_H-M    P1
_symmetry_Int_Tables_number       1
_space_group_crystal_system       triclinic
_cell_length_a                    14.145298
_cell_length_b                    10.637812
_cell_length_c                    9.928692
_cell_angle_alpha                 92.126417
_cell_angle_beta                  89.635574
_cell_angle_gamma                 91.09829
_cell_volume                      1492.69319576

loop_
_atom_site_label
_atom_site_type_symbol
_atom_type_description
_atom_site_fract_x
_atom_site_fract_y
_atom_site_fract_z
_atom_type_partial_charge
C1    C     C_R   0.500938 0.260659 0.497228 0.855542
C2    C     C_1   0.772194 0.497787 0.498903 -0.167129
C3    C     C_R   0.322421 0.128466 0.469937 -0.210426
C4    C     C_R   0.235940 0.065576 0.483280 -0.181796
C5    C     C_R   0.233206 0.945487 0.533922 -0.129227
C6    C     C_R   0.317192 0.884378 0.561819 0.116722
C7    C     C_R   0.405473 0.938180 0.522478 0.023108
C8    C     C_R   0.407741 0.065869 0.492395 0.089836
C9    C     C_R   0.495824 0.128333 0.490102 -0.104874
C10   C     C_R   0.580523 0.065329 0.494723 -0.213986
C11   C     C_R   0.579159 0.936656 0.500477 0.137506
C12   C     C_R   0.329292 0.498239 0.500197 0.867765
C13   C     C_R   0.492091 0.872999 0.513596 -0.146674
C14   C     C_R   0.378567 0.334327 0.135112 -0.194866
C15   C     C_R   0.317298 0.253597 0.063551 -0.193937
C16   C     C_R   0.314497 0.255025 0.923923 0.199414
C17   C     C_R   0.374946 0.337061 0.855928 -0.133571
C18   C     C_R   0.438979 0.419280 0.925461 0.131842
C19   C     C_R   0.439814 0.418632 0.069795 0.166338
C20   C     C_R   0.557850 0.577789 0.073998 -0.092568
C21   C     C_R   0.557980 0.577558 0.930995 -0.079587
C22   C     C_R   0.493507 0.739509 0.503360 0.938867
C23   C     C_R   0.670694 0.499244 0.499586 0.915806
C24   C     C_1   0.227782 0.496423 0.500508 -0.172826
C25   C     C_1   0.142516 0.495613 0.500383 0.004641
C26   C     C_1   0.042622 0.495484 0.499916 0.017298
C27   C     C_1   0.957355 0.495883 0.499414 0.024214
C28   C     C_1   0.857457 0.496773 0.498942 0.017011
H1    H     H_    0.647579 0.116377 0.491952 0.160482
H2    H     H_    0.369596 0.333711 0.749211 0.200182
H3    H     H_    0.605310 0.641029 0.879424 0.158326
H4    H     H_    0.322004 0.225629 0.441881 0.115618
H5    H     H_    0.170815 0.114013 0.465615 0.156606
H6    H     H_    0.165642 0.904556 0.562326 0.167008
H7    H     H_    0.605109 0.641453 0.129639 0.162754
H8    H     H_    0.375691 0.327981 0.241495 0.205720
H9    H     H_    0.271169 0.190221 0.117697 0.166367
N1    N     N_R   0.499190 0.498800 0.142780 -0.111372
N2    N     N_R   0.499160 0.498720 0.857170 -0.105259
O1    O     O_R   0.500000 0.316780 0.614690 -0.625889
O2    O     O_R   0.499990 0.316750 0.385360 -0.633226
O3    O     O_R   0.373720 0.500010 0.614690 -0.595931
O4    O     O_R   0.373710 0.499990 0.385360 -0.619941
O5    O     O_R   0.500010 0.683250 0.614640 -0.576361
O6    O     O_R   0.500000 0.683220 0.385310 -0.595417
O7    O     O_R   0.626290 0.500010 0.614640 -0.592115
O8    O     O_R   0.626280 0.499990 0.385310 -0.588891
Zn1   Zn    Zn3+2 0.500010 0.500020 0.653130 0.968910
Zn2   Zn    Zn3+2 0.499990 0.499980 0.346870 0.954431
C29   C     C_3   0.246490 0.168720 0.848473 -0.867841
H10   H     H_    0.264589 0.069337 0.864722 0.267897
H11   H     H_    0.173348 0.185571 0.885186 0.244683
H12   H     H_    0.248543 0.184721 0.738834 0.241099
I1    I     I_    0.303159 0.761862 0.724378 -0.360586
I2    I     I_    0.711569 0.845452 0.493697 -0.381697

loop_
_geom_bond_atom_site_label_1
_geom_bond_atom_site_label_2
_ccdc_geom_bond_type
C8    C9    A    
C29   H11   S    
C18   N2    A    
C6    C7    A    
C19   N1    A    
C20   N1    A    
C9    C10   A    
C12   C24   S    
C21   N2    A    
O6    Zn2   S    
N1    Zn2   S    
N2    Zn1   S    
C5    H6    S    
C17   C18   A    
C1    C9    S    
C7    C8    A    
O8    Zn2   S    
C23   O7    A    
O3    Zn1   S    
C24   C25   T    
C17   H2    S    
C21   H3    S    
C10   H1    S    
C26   C27   T    
C5    C6    A    
C22   O5    A    
C6    I1    S    
C15   C16   A    
C1    O2    A    
C16   C29   S    
C13   C22   S    
C3    C8    A    
C12   O4    A    
C14   H8    S    
C3    H4    S    
O7    Zn1   S    
C11   C13   A    
C23   O8    A    
C10   C11   A    
C12   O3    A    
C3    C4    A    
C29   H12   S    
C7    C13   A    
C22   O6    A    
C11   I2    S    
C20   C21   A    
C18   C19   A    
O2    Zn2   S    
C2    C23   S    
O1    Zn1   S    
C14   C15   A    
O4    Zn2   S    
C2    C28   T    
C1    O1    A    
C29   H10   S    
C25   C26   S    
C4    H5    S    
C20   H7    S    
C14   C19   A    
C15   H9    S    
O5    Zn1   S    
C16   C17   A    
C4    C5    A    
C27   C28   S    
