data_mof_unit_5418.cif
_audit_creation_date              2012-12-10T19:12:31-0500
_audit_creation_method            fapswitch 2.2
_symmetry_space_group_name_H-M    P1
_symmetry_Int_Tables_number       1
_space_group_crystal_system       triclinic
_cell_length_a                    15.695489
_cell_length_b                    10.641225
_cell_length_c                    9.807559
_cell_angle_alpha                 89.802716
_cell_angle_beta                  90.771872
_cell_angle_gamma                 90.244278
_cell_volume                      1637.8780354

loop_
_atom_site_label
_atom_site_type_symbol
_atom_type_description
_atom_site_fract_x
_atom_site_fract_y
_atom_site_fract_z
_atom_type_partial_charge
C1    C     C_R   0.499817 0.257951 0.500280 0.850331
C2    C     C_3   0.082794 0.501718 0.499193 0.044096
C3    C     C_3   0.972585 0.608421 0.560892 -0.221054
C4    C     C_3   0.916922 0.501844 0.501260 0.064214
C5    C     C_3   0.026323 0.600542 0.430973 0.555257
C6    C     C_3   0.969521 0.496335 0.369252 -0.354927
C7    C     C_1   0.173736 0.501254 0.497432 0.037928
C8    C     C_1   0.826117 0.501642 0.502547 -0.025596
C9    C     C_3   0.508593 0.071152 0.649161 -0.440094
C10   C     C_3   0.510127 0.928469 0.649285 -0.409383
C11   C     C_3   0.417550 0.070126 0.434520 -0.084304
C12   C     C_R   0.338069 0.500092 0.499136 0.900192
C13   C     C_3   0.582097 0.074386 0.420221 -0.082665
C14   C     C_3   0.502436 0.121352 0.500065 0.137394
C15   C     C_3   0.502546 0.878318 0.500602 0.139635
C16   C     C_3   0.417607 0.925366 0.437647 -0.518196
C17   C     C_3   0.578293 0.927959 0.413560 -0.058139
C18   C     C_3   0.445005 0.394737 0.081010 -0.368588
C19   C     C_3   0.441750 0.397653 0.918982 -0.334183
C20   C     C_3   0.463119 0.619127 0.075696 0.018079
C21   C     C_3   0.585789 0.475872 0.081374 0.461004
C22   C     C_3   0.466840 0.617829 0.915252 -0.237372
C23   C     C_R   0.500918 0.741944 0.500133 0.878813
C24   C     C_3   0.585875 0.472416 0.920167 -0.000357
C25   C     C_R   0.661895 0.500571 0.500829 0.910256
C26   C     C_3   0.972069 0.400670 0.571831 -0.222390
C27   C     C_3   0.025795 0.397693 0.441669 0.554874
C28   C     C_1   0.249101 0.500696 0.497420 -0.184386
C29   C     C_1   0.750791 0.501205 0.502442 -0.175539
C30   C     C_3   0.029827 0.507166 0.629753 -0.291004
H1    H     H_    0.455947 0.893339 0.711254 0.175745
H2    H     H_    0.363638 0.103162 0.497918 0.154755
H3    H     H_    0.363145 0.891164 0.499511 0.172146
H4    H     H_    0.578985 0.111366 0.313818 0.119107
H5    H     H_    0.564540 0.902743 0.305243 0.109611
H6    H     H_    0.408047 0.886183 0.333387 0.178989
H7    H     H_    0.380009 0.394805 0.123696 0.196455
H8    H     H_    0.947262 0.318506 0.629211 0.142529
H9    H     H_    0.470785 0.302444 0.114980 0.157798
H10   H     H_    0.459957 0.303956 0.879219 0.157740
H11   H     H_    0.374995 0.413356 0.883577 0.182914
H12   H     H_    0.402668 0.636327 0.869997 0.175045
H13   H     H_    0.601557 0.377295 0.110951 0.065219
H14   H     H_    0.603714 0.375080 0.890101 0.104261
H15   H     H_    0.499843 0.700746 0.111944 0.129228
H16   H     H_    0.942930 0.491999 0.263901 0.150381
H17   H     H_    0.505942 0.697965 0.879656 0.119622
H18   H     H_    0.948185 0.694979 0.609402 0.141122
H19   H     H_    0.056733 0.511538 0.734903 0.172032
H20   H     H_    0.452859 0.103254 0.708804 0.167768
H21   H     H_    0.566949 0.107376 0.701827 0.198735
H22   H     H_    0.569647 0.894873 0.700003 0.173613
N1    N     N_3   0.498170 0.499750 0.138610 -0.090411
N2    N     N_3   0.498850 0.496730 0.861320 -0.064548
O1    O     O_R   0.499980 0.314910 0.616040 -0.639435
O2    O     O_R   0.500040 0.314680 0.383960 -0.616948
O3    O     O_R   0.376750 0.500100 0.616020 -0.622393
O4    O     O_R   0.376810 0.499870 0.383940 -0.624105
O5    O     O_R   0.499960 0.685320 0.616040 -0.636522
O6    O     O_R   0.500020 0.685090 0.383960 -0.659481
O7    O     O_R   0.623190 0.500130 0.616060 -0.596827
O8    O     O_R   0.623250 0.499900 0.383980 -0.558681
Zn1   Zn    Zn3+2 0.499960 0.500150 0.654960 0.912179
Zn2   Zn    Zn3+2 0.500040 0.499850 0.345040 0.933790
O9    O     O_3   0.060653 0.289571 0.381495 -0.597072
C31   C     C_3   0.994079 0.208887 0.339255 -0.322602
H23   H     H_    0.952219 0.254619 0.261477 0.159870
H24   H     H_    0.956010 0.175923 0.427360 0.153365
H25   H     H_    0.022316 0.124737 0.291389 0.189027
N3    N     N_3   0.662163 0.120369 0.482654 -0.469411
H26   H     H_    0.711864 0.101491 0.415920 0.171650
H27   H     H_    0.660853 0.218316 0.488536 0.171902
N4    N     N_3   0.658589 0.865750 0.452853 -0.485934
H28   H     H_    0.680019 0.895904 0.548636 0.214777
H29   H     H_    0.705133 0.887332 0.381082 0.166771
N5    N     N_3   0.403126 0.117474 0.295197 -0.453723
H30   H     H_    0.341110 0.093432 0.264473 0.198373
H31   H     H_    0.444489 0.073734 0.227663 0.173200
N6    N     N_3   0.375728 0.647458 0.117471 -0.480562
H32   H     H_    0.331584 0.578931 0.088029 0.197078
H33   H     H_    0.373176 0.663781 0.221866 0.240776
O10   O     O_3   0.656671 0.539921 0.142607 -0.598002
C32   C     C_3   0.655428 0.672215 0.143634 -0.302884
H34   H     H_    0.629578 0.715885 0.050153 0.100148
H35   H     H_    0.722134 0.705964 0.154125 0.168747
H36   H     H_    0.622003 0.705946 0.234333 0.216775
N7    N     N_3   0.651939 0.552444 0.859811 -0.402705
H37   H     H_    0.710645 0.542123 0.910047 0.204315
H38   H     H_    0.635562 0.646575 0.849235 0.181759
O11   O     O_3   0.061680 0.703113 0.359560 -0.597124
C33   C     C_3   0.995492 0.780411 0.309903 -0.324354
H39   H     H_    0.958484 0.821307 0.394737 0.152351
H40   H     H_    0.952562 0.728604 0.238340 0.159812
H41   H     H_    0.024080 0.859668 0.252453 0.188351

loop_
_geom_bond_atom_site_label_1
_geom_bond_atom_site_label_2
_ccdc_geom_bond_type
C31   H24   S    
N7    H37   S    
N4    H28   S    
C2    C7    S    
C9    H21   S    
C4    C8    S    
C10   H22   S    
C22   N2    S    
C23   O5    A    
C26   C27   S    
C12   C28   S    
C8    C29   T    
C1    O2    A    
N5    H31   S    
C11   N5    S    
C5    C6    S    
N1    Zn2   S    
C31   H25   S    
C13   N3    S    
C24   N2    S    
C15   C16   S    
C3    H18   S    
C18   C19   S    
O7    Zn1   S    
C18   H9    S    
O8    Zn2   S    
C18   N1    S    
C21   H13   S    
C10   H1    S    
C32   H34   S    
O1    Zn1   S    
O2    Zn2   S    
N3    H26   S    
C9    C10   S    
C5    O11   S    
C12   O4    A    
C15   C23   S    
C22   H17   S    
C13   C14   S    
C17   N4    S    
N4    H29   S    
O6    Zn2   S    
O3    Zn1   S    
C25   C29   S    
C23   O6    A    
N5    H30   S    
C4    C6    S    
C33   H39   S    
N6    H33   S    
C26   H8    S    
O4    Zn2   S    
C7    C28   T    
C3    C30   S    
C9    C14   S    
C27   O9    S    
C16   H3    S    
C33   H40   S    
C11   C16   S    
C6    C27   S    
C25   O7    A    
C2    C27   S    
C12   O3    A    
C19   N2    S    
C32   H35   S    
C30   H19   S    
C20   C22   S    
C11   H2    S    
C26   C30   S    
N7    H38   S    
C24   H14   S    
C2    C5    S    
C3    C4    S    
C15   C17   S    
C6    H16   S    
C20   N6    S    
C10   C15   S    
C18   H7    S    
C9    H20   S    
C20   H15   S    
C20   N1    S    
C3    C5    S    
C4    C26   S    
O5    Zn1   S    
C13   C17   S    
C2    C30   S    
C1    O1    A    
C13   H4    S    
C16   H6    S    
C33   H41   S    
C21   N1    S    
O11   C33   S    
C22   H12   S    
C11   C14   S    
C31   H23   S    
C25   O8    A    
O9    C31   S    
C24   N7    S    
C19   H10   S    
N6    H32   S    
C32   H36   S    
C21   O10   S    
O10   C32   S    
N2    Zn1   S    
C21   C24   S    
N3    H27   S    
C1    C14   S    
C17   H5    S    
C19   H11   S    
