data_mof_unit_52211.cif
_audit_creation_date              2012-12-11T14:44:07-0500
_audit_creation_method            fapswitch 2.2
_symmetry_space_group_name_H-M    P1
_symmetry_Int_Tables_number       1
_space_group_crystal_system       triclinic
_cell_length_a                    18.967674
_cell_length_b                    10.876618
_cell_length_c                    18.860648
_cell_angle_alpha                 89.921719
_cell_angle_beta                  89.745529
_cell_angle_gamma                 89.902632
_cell_volume                      3890.98226274

loop_
_atom_site_label
_atom_site_type_symbol
_atom_type_description
_atom_site_fract_x
_atom_site_fract_y
_atom_site_fract_z
_atom_type_partial_charge
C1    C     C_R   0.730228 0.377346 0.145894 0.548549
C2    C     C_R   0.994814 0.002669 0.035695 -0.138514
C3    C     C_R   0.998319 0.778154 0.037469 0.032121
C4    C     C_R   0.499973 0.054010 0.036743 -0.148668
C5    C     C_R   0.497784 0.053694 0.964117 -0.148978
C6    C     C_R   0.999972 0.554010 0.036744 -0.148668
C7    C     C_R   0.997783 0.553694 0.964118 -0.148977
C8    C     C_R   0.507152 0.502152 0.963027 -0.138059
C9    C     C_R   0.494812 0.502669 0.035696 -0.138514
C10   C     C_R   0.697633 0.866039 0.038158 -0.136730
C11   C     C_R   0.302549 0.866036 0.962062 -0.137288
C12   C     C_R   0.197633 0.366039 0.038158 -0.136729
C13   C     C_R   0.802550 0.366036 0.962062 -0.137289
C14   C     C_R   0.699898 0.853469 0.964764 -0.135410
C15   C     C_R   0.300288 0.853552 0.035466 -0.135586
C16   C     C_R   0.199898 0.353469 0.964764 -0.135411
C17   C     C_R   0.269819 0.377128 0.854160 0.552812
C18   C     C_R   0.800288 0.353553 0.035466 -0.135586
C19   C     C_R   0.751808 0.915808 0.925471 0.031108
C20   C     C_R   0.248367 0.916234 0.074650 0.031278
C21   C     C_R   0.251808 0.415808 0.925471 0.031106
C22   C     C_R   0.748367 0.416233 0.074650 0.031278
C23   C     C_R   0.798619 0.995220 0.959471 -0.125191
C24   C     C_R   0.201647 0.996071 0.040575 -0.125364
C25   C     C_R   0.298619 0.495221 0.959471 -0.125191
C26   C     C_R   0.701645 0.496069 0.040575 -0.125364
C27   C     C_R   0.798336 0.003440 0.031912 -0.122381
C28   C     C_R   0.230228 0.877347 0.145894 0.548545
C29   C     C_R   0.201933 0.004236 0.968128 -0.122008
C30   C     C_R   0.298336 0.503440 0.031912 -0.122380
C31   C     C_R   0.701932 0.504234 0.968128 -0.122008
C32   C     C_R   0.747991 0.939307 0.072089 0.034263
C33   C     C_R   0.252188 0.939569 0.928038 0.033866
C34   C     C_R   0.247991 0.439307 0.072089 0.034263
C35   C     C_R   0.752188 0.439568 0.928038 0.033866
C36   C     C_R   0.462731 0.060015 0.450079 -0.129106
C37   C     C_R   0.443153 0.057665 0.520947 -0.131325
C38   C     C_R   0.962781 0.559956 0.450097 -0.129145
C39   C     C_R   0.769819 0.877128 0.854161 0.552801
C40   C     C_R   0.943197 0.557612 0.520963 -0.131340
C41   C     C_R   0.452073 0.161964 0.563257 0.029785
C42   C     C_R   0.492727 0.166469 0.420610 0.026754
C43   C     C_R   0.952038 0.661961 0.563251 0.029772
C44   C     C_R   0.992707 0.666452 0.420604 0.026742
C45   C     C_R   0.531064 0.155746 0.146779 0.539353
C46   C     C_R   0.468804 0.155509 0.853303 0.550411
C47   C     C_R   0.031064 0.655746 0.146779 0.539359
C48   C     C_R   0.968804 0.655509 0.853303 0.550413
C49   C     C_R   0.476208 0.271911 0.532408 -0.132807
C50   C     C_R   0.510830 0.391054 0.926445 -0.078908
C51   C     C_R   0.496632 0.274057 0.461351 -0.138872
C52   C     C_R   0.976074 0.771950 0.532371 -0.132686
C53   C     C_R   0.996515 0.774085 0.461317 -0.138803
C54   C     C_R   0.814109 0.951783 0.459675 -0.136179
C55   C     C_R   0.212690 0.026165 0.527097 -0.125354
C56   C     C_R   0.314177 0.451329 0.459600 -0.136210
C57   C     C_R   0.712641 0.526090 0.527109 -0.125369
C58   C     C_R   0.817777 0.945923 0.532161 -0.133594
C59   C     C_R   0.211214 0.012049 0.454659 -0.136168
C60   C     C_R   0.317884 0.445433 0.532087 -0.133536
C61   C     C_R   0.490359 0.392032 0.072806 -0.079034
C62   C     C_R   0.711172 0.511997 0.454671 -0.136186
C63   C     C_R   0.759871 0.904322 0.572070 0.035340
C64   C     C_R   0.248875 0.916168 0.423320 0.031094
C65   C     C_R   0.259920 0.404191 0.572039 0.035305
C66   C     C_R   0.748872 0.416175 0.423320 0.031125
C67   C     C_R   0.697679 0.869216 0.537990 -0.141754
C68   C     C_R   0.292266 0.839643 0.464795 -0.137292
C69   C     C_R   0.197652 0.369389 0.538003 -0.141873
C70   C     C_R   0.792298 0.339695 0.464786 -0.137264
C71   C     C_R   0.693000 0.879790 0.464692 -0.137813
C72   C     C_R   0.010832 0.891053 0.926444 -0.078908
C73   C     C_R   0.294380 0.854887 0.537847 -0.152795
C74   C     C_R   0.192946 0.379982 0.464710 -0.137843
C75   C     C_R   0.794412 0.354928 0.537839 -0.152756
C76   C     C_R   0.750948 0.923957 0.425563 0.030996
C77   C     C_R   0.253280 0.946577 0.569310 0.033646
C78   C     C_R   0.250941 0.423863 0.425539 0.030932
C79   C     C_R   0.753274 0.446555 0.569313 0.033677
C80   C     C_R   0.740800 0.972307 0.146214 0.546342
C81   C     C_R   0.259239 0.972226 0.853827 0.551223
C82   C     C_R   0.240800 0.472307 0.146214 0.546338
C83   C     C_R   0.990361 0.892033 0.072806 -0.079033
C84   C     C_R   0.759239 0.472225 0.853827 0.551221
C85   C     C_R   0.729934 0.378559 0.352350 0.547812
C86   C     C_R   0.271798 0.375795 0.646115 0.541223
C87   C     C_R   0.229934 0.878558 0.352350 0.547807
C88   C     C_R   0.771783 0.875831 0.646129 0.541227
C89   C     C_R   0.530669 0.157297 0.353053 0.546941
C90   C     C_R   0.435829 0.153307 0.639032 0.561162
C91   C     C_R   0.030666 0.657295 0.353053 0.546935
C92   C     C_R   0.935818 0.653306 0.639033 0.561210
C93   C     C_R   0.741415 0.970288 0.354241 0.548013
C94   C     C_R   0.007155 0.002152 0.963026 -0.138058
C95   C     C_R   0.259634 0.975511 0.643891 0.542232
C96   C     C_R   0.241414 0.470275 0.354236 0.548000
C97   C     C_R   0.759632 0.475505 0.643892 0.542235
C98   C     C_R   0.496469 0.163924 0.925749 -0.000800
C99   C     C_R   0.502843 0.164524 0.074540 0.000291
C100  C     C_R   0.996469 0.663924 0.925749 -0.000799
C101  C     C_R   0.002843 0.664525 0.074540 0.000291
C102  C     C_R   0.501960 0.277745 0.962303 0.030806
C103  C     C_R   0.498318 0.278153 0.037470 0.032121
C104  C     C_R   0.001961 0.777744 0.962303 0.030806
Cr1   Cr    Cr6+3 0.772000 0.169640 0.250110 1.006226
Cr2   Cr    Cr6+3 0.383330 0.010620 0.749160 1.011027
Cr3   Cr    Cr6+3 0.116670 0.510620 0.250840 1.012015
Cr4   Cr    Cr6+3 0.883330 0.510620 0.749160 1.011006
Cr5   Cr    Cr6+3 0.228000 0.169640 0.749890 1.007016
Cr6   Cr    Cr6+3 0.272000 0.669640 0.250110 1.006234
Cr7   Cr    Cr6+3 0.728000 0.669640 0.749890 1.007010
Cr8   Cr    Cr6+3 0.614960 0.323350 0.249260 1.009983
Cr9   Cr    Cr6+3 0.385040 0.323350 0.750740 1.007766
Cr10  Cr    Cr6+3 0.114960 0.823350 0.249260 1.010000
Cr11  Cr    Cr6+3 0.885040 0.823350 0.750740 1.007772
Cr12  Cr    Cr6+3 0.616670 0.010620 0.250840 1.012042
H1    H     H_    0.502366 0.965524 0.063115 0.137175
H2    H     H_    0.177729 0.072190 0.423617 0.125232
H3    H     H_    0.367409 0.470451 0.556424 0.130054
H4    H     H_    0.677658 0.572104 0.423638 0.125205
H5    H     H_    0.653137 0.834021 0.567823 0.123127
H6    H     H_    0.321413 0.763987 0.441478 0.136264
H7    H     H_    0.153064 0.334457 0.567871 0.123152
H8    H     H_    0.821475 0.264083 0.441459 0.136164
H9    H     H_    0.643407 0.858679 0.439231 0.130805
H10   H     H_    0.327406 0.795162 0.569591 0.119481
H11   H     H_    0.143294 0.359150 0.439288 0.130928
H12   H     H_    0.494277 0.965057 0.938210 0.137682
H13   H     H_    0.827468 0.295241 0.569575 0.119413
H14   H     H_    0.522470 0.395197 0.870362 0.133288
H15   H     H_    0.478748 0.397023 0.128865 0.129688
H16   H     H_    0.022472 0.895195 0.870362 0.133289
H17   H     H_    0.978750 0.897025 0.128865 0.129690
H18   H     H_    0.013079 0.088196 0.934722 0.099176
H19   H     H_    0.989520 0.089135 0.063591 0.097733
H20   H     H_    0.513075 0.588197 0.934723 0.099177
H21   H     H_    0.489516 0.589134 0.063592 0.097734
H22   H     H_    0.656951 0.819012 0.068139 0.116266
H23   H     H_    0.002364 0.465524 0.063115 0.137175
H24   H     H_    0.343180 0.818658 0.932142 0.116413
H25   H     H_    0.156951 0.319012 0.068139 0.116267
H26   H     H_    0.843180 0.318659 0.932143 0.116412
H27   H     H_    0.663159 0.791818 0.939272 0.117454
H28   H     H_    0.336974 0.791568 0.061043 0.117204
H29   H     H_    0.163159 0.291818 0.939272 0.117453
H30   H     H_    0.836975 0.291569 0.061043 0.117203
H31   H     H_    0.838819 0.045553 0.930576 0.134300
H32   H     H_    0.161480 0.046668 0.069423 0.133178
H33   H     H_    0.338819 0.545553 0.930576 0.134301
H34   H     H_    0.994275 0.465057 0.938211 0.137682
H35   H     H_    0.661478 0.546665 0.069422 0.133179
H36   H     H_    0.836812 0.063555 0.056016 0.131605
H37   H     H_    0.163493 0.064639 0.943935 0.131552
H38   H     H_    0.336812 0.563555 0.056016 0.131605
H39   H     H_    0.663492 0.564635 0.943935 0.131552
H40   H     H_    0.458251 0.976112 0.419546 0.128707
H41   H     H_    0.423514 0.972774 0.543456 0.129428
H42   H     H_    0.958365 0.476017 0.419587 0.128706
H43   H     H_    0.923621 0.472689 0.543489 0.129414
H44   H     H_    0.482491 0.354448 0.563750 0.127182
H45   H     H_    0.859720 0.985451 0.430834 0.128082
H46   H     H_    0.519494 0.357346 0.439758 0.128835
H47   H     H_    0.982274 0.854532 0.563691 0.127197
H48   H     H_    0.019310 0.857413 0.439702 0.128788
H49   H     H_    0.182346 0.100814 0.549865 0.136757
H50   H     H_    0.359821 0.484752 0.430717 0.128088
H51   H     H_    0.682258 0.600684 0.549883 0.136686
H52   H     H_    0.867244 0.971215 0.556526 0.130002
O1    O     O_R   0.787540 0.042690 0.170470 -0.532377
O2    O     O_R   0.454130 0.051100 0.669160 -0.514401
O3    O     O_R   0.045870 0.551100 0.330840 -0.525151
O4    O     O_R   0.954130 0.551100 0.669160 -0.514445
O5    O     O_R   0.681340 0.959300 0.325510 -0.505327
O6    O     O_R   0.318660 0.959300 0.674490 -0.523065
O7    O     O_R   0.181340 0.459300 0.325510 -0.505366
O8    O     O_R   0.818660 0.459300 0.674490 -0.523070
O9    O     O_3   0.667880 0.167870 0.250070 -0.237094
O10   O     O_3   0.332120 0.167870 0.749930 -0.262953
O11   O     O_3   0.167880 0.667870 0.250070 -0.237092
O12   O     O_R   0.212460 0.042690 0.829530 -0.528343
O13   O     O_3   0.832120 0.667870 0.749930 -0.262945
O14   O     O_R   0.765660 0.292160 0.175050 -0.507558
O15   O     O_R   0.234340 0.292160 0.824950 -0.503928
O16   O     O_R   0.265660 0.792160 0.175050 -0.507559
O17   O     O_R   0.734340 0.792160 0.824950 -0.503931
O18   O     O_R   0.670190 0.408980 0.168550 -0.523479
O19   O     O_R   0.329810 0.408980 0.831450 -0.520900
O20   O     O_R   0.170190 0.908980 0.168550 -0.523482
O21   O     O_R   0.829810 0.908980 0.831450 -0.520910
O22   O     O_R   0.556580 0.251450 0.175160 -0.507973
O23   O     O_R   0.287540 0.542690 0.170470 -0.532382
O24   O     O_R   0.443420 0.251450 0.824840 -0.502287
O25   O     O_R   0.056580 0.751450 0.175160 -0.507973
O26   O     O_R   0.943420 0.751450 0.824840 -0.502287
O27   O     O_R   0.545920 0.049510 0.170320 -0.524056
O28   O     O_R   0.454080 0.049510 0.829680 -0.518352
O29   O     O_R   0.045920 0.549510 0.170320 -0.524050
O30   O     O_R   0.954080 0.549510 0.829680 -0.518354
O31   O     O_R   0.681390 0.957840 0.176710 -0.503072
O32   O     O_R   0.318610 0.957840 0.823290 -0.500964
O33   O     O_R   0.181390 0.457840 0.176710 -0.503070
O34   O     O_R   0.712460 0.542690 0.829530 -0.528344
O35   O     O_R   0.818610 0.457840 0.823290 -0.500968
O36   O     O_R   0.787500 0.044280 0.330990 -0.528354
O37   O     O_R   0.212500 0.044280 0.669010 -0.523464
O38   O     O_R   0.287500 0.544280 0.330990 -0.528312
O39   O     O_R   0.712500 0.544280 0.669010 -0.523483
O40   O     O_R   0.765610 0.293630 0.323860 -0.507893
O41   O     O_R   0.234390 0.293630 0.676140 -0.507952
O42   O     O_R   0.265610 0.793630 0.323860 -0.507895
O43   O     O_R   0.734390 0.793630 0.676140 -0.507952
O44   O     O_R   0.670140 0.410570 0.329080 -0.524469
O45   O     O_R   0.556540 0.252920 0.323970 -0.505287
O46   O     O_R   0.329860 0.410570 0.670920 -0.535990
O47   O     O_R   0.170140 0.910570 0.329080 -0.524442
O48   O     O_R   0.829860 0.910570 0.670920 -0.536016
O49   O     O_R   0.443460 0.252920 0.676030 -0.507397
O50   O     O_R   0.056540 0.752920 0.323970 -0.505257
O51   O     O_R   0.943460 0.752920 0.676030 -0.507356
O52   O     O_R   0.545870 0.051100 0.330840 -0.525100

loop_
_geom_bond_atom_site_label_1
_geom_bond_atom_site_label_2
_ccdc_geom_bond_type
C3    C104  A    
C45   O27   A    
C99   C103  A    
C85   O44   A    
C95   O37   A    
C27   H36   S    
C47   C101  S    
C96   O7    A    
C55   C59   A    
C82   O23   A    
C8    H20   S    
C57   C79   A    
C40   H43   S    
C36   C42   A    
C86   O41   A    
Cr7   O13   S    
C81   O32   A    
C30   H38   S    
C56   C78   A    
C57   C62   A    
Cr3   O3    S    
C1    O18   A    
C59   C64   A    
C16   C21   A    
Cr1   O1    S    
C13   C18   A    
C51   H46   S    
C9    C61   A    
Cr8   O44   S    
C29   H37   S    
C36   C37   A    
C61   C103  A    
C95   O6    A    
C92   O4    A    
Cr3   O33   S    
Cr4   O35   S    
C28   O20   A    
Cr8   O18   S    
C71   C76   A    
C55   C77   A    
C43   C52   A    
C69   H7    S    
C73   H10   S    
Cr9   O19   S    
C29   C33   A    
Cr6   O23   S    
C100  C104  A    
Cr10  O20   S    
C12   H25   S    
C60   H3    S    
C25   H33   S    
C6    C101  A    
C37   H41   S    
C6    H23   S    
C93   O36   A    
C24   C29   A    
C90   O49   A    
C50   H14   S    
Cr12  O27   S    
C9    H21   S    
Cr5   O10   S    
C40   C43   A    
C12   C16   A    
C78   C96   S    
C8    C9    A    
C49   C51   A    
C88   O43   A    
C49   H44   S    
C23   C27   A    
Cr1   O14   S    
Cr12  O52   S    
C58   H52   S    
C64   C87   S    
C62   H4    S    
C42   C51   A    
Cr3   O11   S    
Cr5   O15   S    
Cr9   O10   S    
C46   C98   S    
Cr6   O16   S    
C26   C31   A    
C97   O8    A    
Cr12  O9    S    
Cr4   O30   S    
Cr2   O2    S    
Cr11  O51   S    
C2    C83   A    
Cr6   O42   S    
C11   C15   A    
Cr9   O46   S    
Cr10  O50   S    
Cr5   O41   S    
C67   H5    S    
Cr7   O34   S    
C41   C49   A    
Cr11  O13   S    
C79   C97   S    
C72   H16   S    
C80   O1    A    
C15   C20   A    
C48   C100  S    
C66   C85   S    
C63   C67   A    
Cr7   O17   S    
C56   H50   S    
C7    C100  A    
C62   C66   A    
C20   C24   A    
C65   C86   S    
C38   H42   S    
C45   C99   S    
C68   H6    S    
Cr3   O29   S    
Cr12  O31   S    
C30   C34   A    
Cr1   O36   S    
Cr2   O28   S    
C72   C104  A    
C68   C73   A    
C13   H26   S    
C80   O31   A    
C23   H31   S    
C77   C95   S    
C17   C21   S    
C56   C60   A    
C2    H19   S    
C48   O30   A    
C16   H29   S    
Cr11  O21   S    
C92   O51   A    
C19   C23   A    
C11   H24   S    
C86   O46   A    
C38   C44   A    
C10   C32   A    
C76   C93   S    
C32   C80   S    
C7    H34   S    
C17   O15   A    
C96   O38   A    
C74   H11   S    
C2    C94   A    
C35   C84   S    
C90   O2    A    
Cr2   O6    S    
C69   C74   A    
Cr6   O38   S    
Cr8   O45   S    
C97   O39   A    
Cr5   O37   S    
C44   C91   S    
C19   C39   S    
C54   C76   A    
Cr12  O5    S    
C84   O35   A    
Cr1   O9    S    
Cr11  O26   S    
C60   C65   A    
C50   C102  A    
C59   H2    S    
Cr4   O4    S    
C10   C14   A    
C87   O42   A    
C31   C35   A    
C4    H1    S    
C75   C79   A    
C55   H49   S    
C12   C34   A    
C63   C88   S    
C64   C68   A    
Cr7   O39   S    
C70   C75   A    
C52   C53   A    
C36   H40   S    
Cr1   O40   S    
C89   O45   A    
C54   C58   A    
Cr10  O25   S    
C84   O34   A    
C25   C30   A    
Cr9   O24   S    
C21   C25   A    
C14   H27   S    
C26   H35   S    
C87   O47   A    
C88   O48   A    
C48   O26   A    
C27   C32   A    
C18   C22   A    
C14   C19   A    
C47   O25   A    
C71   H9    S    
C58   C63   A    
C81   O12   A    
C46   O24   A    
C4    C5    A    
C18   H30   S    
C82   O33   A    
C31   H39   S    
C1    O14   A    
C53   H48   S    
C13   C35   A    
C6    C7    A    
C57   H51   S    
C11   C33   A    
Cr2   O32   S    
C20   C28   S    
C74   C78   A    
C43   C92   S    
C91   O3    A    
C42   C89   S    
C91   O50   A    
C28   O16   A    
C72   C94   A    
Cr9   O49   S    
C98   C102  A    
C89   O52   A    
C38   C40   A    
Cr5   O12   S    
C3    C101  A    
C66   C70   A    
Cr3   O7    S    
Cr6   O11   S    
C17   O19   A    
C65   C69   A    
Cr4   O8    S    
C5    H12   S    
C93   O5    A    
C94   H18   S    
Cr11  O48   S    
C41   C90   S    
C8    C50   A    
C67   C71   A    
C54   H45   S    
C37   C41   A    
C102  C103  A    
Cr10  O47   S    
Cr7   O43   S    
C83   H17   S    
C44   C53   A    
C61   H15   S    
C52   H47   S    
Cr8   O22   S    
C15   H28   S    
C39   O17   A    
C34   C82   S    
C70   H8    S    
C45   O22   A    
C1    C22   S    
C3    C83   A    
C5    C98   A    
Cr10  O11   S    
C22   C26   A    
C4    C99   A    
Cr4   O13   S    
C46   O28   A    
C39   O21   A    
C73   C77   A    
C47   O29   A    
C10   H22   S    
C33   C81   S    
Cr2   O10   S    
C24   H32   S    
C75   H13   S    
C85   O40   A    
Cr8   O9    S    
