data_mof_unit_41135.cif
_audit_creation_date              2012-12-10T17:23:43-0500
_audit_creation_method            fapswitch 2.2
_symmetry_space_group_name_H-M    P1
_symmetry_Int_Tables_number       1
_space_group_crystal_system       triclinic
_cell_length_a                    9.599888
_cell_length_b                    10.779545
_cell_length_c                    17.220598
_cell_angle_alpha                 92.374233
_cell_angle_beta                  85.829891
_cell_angle_gamma                 90.120579
_cell_volume                      1775.78495176

loop_
_atom_site_label
_atom_site_type_symbol
_atom_type_description
_atom_site_fract_x
_atom_site_fract_y
_atom_site_fract_z
_atom_type_partial_charge
C1    C     C_R   0.499776 0.737370 0.502475 0.798725
C2    C     C_R   0.344914 0.508920 0.783937 0.009003
C3    C     C_R   0.658641 0.531735 0.142370 -0.110844
C4    C     C_R   0.652551 0.529228 0.223189 -0.183161
C5    C     C_R   0.412833 0.457332 0.224381 -0.165160
C6    C     C_R   0.418344 0.456956 0.142991 0.072361
C7    C     C_R   0.541358 0.499526 0.102290 0.130322
C8    C     C_2   0.469304 0.591681 0.981852 -0.047464
C9    C     C_2   0.549845 0.512632 0.017804 -0.282075
C10   C     C_R   0.528530 0.494903 0.264676 -0.082421
C11   C     C_R   0.340350 0.878584 0.627544 -0.184163
C12   C     C_R   0.481193 0.502048 0.650511 0.751274
C13   C     C_R   0.262956 0.947303 0.685922 -0.127651
C14   C     C_R   0.262882 0.076330 0.685784 -0.135649
C15   C     C_R   0.340137 0.137340 0.627237 -0.173680
C16   C     C_R   0.417448 0.069693 0.566643 0.106302
C17   C     C_R   0.417657 0.938509 0.566815 0.093121
C18   C     C_R   0.499425 0.871445 0.507660 -0.102960
C19   C     C_R   0.583692 0.932816 0.452044 -0.181638
C20   C     C_R   0.583402 0.060824 0.451863 -0.202990
C21   C     C_R   0.498897 0.129306 0.507322 -0.089443
C22   C     C_R   0.869120 0.335855 0.396164 -0.148923
C23   C     C_R   0.499622 0.262828 0.502134 0.768509
C24   C     C_R   0.947653 0.255497 0.345470 -0.183378
C25   C     C_R   0.091122 0.254989 0.345729 -0.165468
C26   C     C_R   0.156920 0.334884 0.396653 -0.151582
C27   C     C_R   0.081197 0.418988 0.449139 0.212605
C28   C     C_R   0.931659 0.419252 0.449022 0.210469
C29   C     C_R   0.919975 0.576642 0.548642 -0.043291
C30   C     C_R   0.067868 0.576626 0.548614 -0.044765
C31   C     C_R   0.518474 0.498352 0.349894 0.784418
C32   C     C_R   0.471857 0.519295 0.736317 -0.133206
C33   C     C_R   0.594087 0.557608 0.771065 -0.165895
C34   C     C_R   0.592284 0.585288 0.850400 -0.133703
C35   C     C_R   0.468015 0.576604 0.896981 0.023973
C36   C     C_R   0.344991 0.540075 0.863869 -0.156715
Cu1   Cu    Cu3+1 0.359340 0.500010 0.500010 0.935131
Cu2   Cu    Cu3+1 0.640660 0.499990 0.499990 0.943337
H1    H     H_    0.692327 0.567644 0.736803 0.169907
H2    H     H_    0.647630 0.881099 0.407417 0.156077
H3    H     H_    0.340914 0.778791 0.631621 0.141157
H4    H     H_    0.204360 0.900246 0.732053 0.144279
H5    H     H_    0.204269 0.129482 0.731815 0.141629
H6    H     H_    0.340858 0.237474 0.630972 0.136426
H7    H     H_    0.647175 0.106720 0.407117 0.138019
H8    H     H_    0.760013 0.328147 0.391218 0.192250
H9    H     H_    0.743513 0.557215 0.253258 0.168589
H10   H     H_    0.267242 0.326477 0.391989 0.192432
H11   H     H_    0.118041 0.639435 0.588497 0.139558
H12   H     H_    0.318451 0.427285 0.256470 0.183133
H13   H     H_    0.619585 0.448851 0.983393 0.161406
H14   H     H_    0.250468 0.529863 0.901533 0.160069
H15   H     H_    0.753827 0.562047 0.111072 0.152200
H16   H     H_    0.688312 0.612639 0.875768 0.154103
N1    N     N_R   0.852190 0.498790 0.499250 -0.201745
N2    N     N_R   0.148060 0.498710 0.499220 -0.203064
O1    O     O_R   0.381190 0.680360 0.500010 -0.572402
O2    O     O_R   0.618760 0.680340 0.500000 -0.575239
O3    O     O_R   0.367440 0.500030 0.613600 -0.608391
O4    O     O_R   0.605010 0.500010 0.613590 -0.568175
O5    O     O_R   0.381240 0.319660 0.500000 -0.603287
O6    O     O_R   0.618810 0.319640 0.499990 -0.587590
O7    O     O_R   0.394990 0.499990 0.386410 -0.590897
O8    O     O_R   0.632560 0.499970 0.386400 -0.600441
C37   C     C_2   0.296422 0.411187 0.101554 0.354178
H17   H     H_    0.302725 0.400732 0.038512 0.072864
O9    O     O_2   0.187109 0.383633 0.137477 -0.547653
H18   H     H_    0.859771 0.639496 0.588530 0.137750
H19   H     H_    0.896459 0.192961 0.305752 0.155051
H20   H     H_    0.152262 0.192157 0.306146 0.165421
C38   C     C_2   0.213093 0.460379 0.754111 0.331726
H21   H     H_    0.214215 0.398233 0.703164 0.095200
O10   O     O_2   0.100138 0.487348 0.787752 -0.560137
C39   C     C_2   0.375948 0.687397 0.022862 0.389085
H22   H     H_    0.299654 0.733929 0.990692 0.066330
O11   O     O_2   0.385755 0.718464 0.091208 -0.523145

loop_
_geom_bond_atom_site_label_1
_geom_bond_atom_site_label_2
_ccdc_geom_bond_type
C16   C21   A    
C3    H15   S    
C19   C20   A    
C9    H13   S    
C26   C27   A    
C33   H1    S    
C39   O11   D    
Cu1   Cu2   S    
C15   H6    S    
C18   C19   A    
C3    C7    A    
C5    C6    A    
C15   C16   A    
C2    C32   A    
C34   C35   A    
Cu2   O2    S    
C12   O3    A    
C10   C31   S    
C6    C37   S    
Cu2   N1    S    
C35   C36   A    
C16   C17   A    
C37   O9    D    
C20   H7    S    
C36   H14   S    
C26   H10   S    
C22   C28   A    
C13   C14   A    
C12   C32   S    
Cu1   N2    S    
C13   H4    S    
Cu1   O7    S    
C28   N1    A    
C24   H19   S    
C33   C34   A    
Cu2   O8    S    
C23   O6    A    
C39   H22   S    
C31   O7    A    
C24   C25   A    
C38   O10   D    
C27   N2    A    
C8    C9    D    
C29   N1    A    
C25   C26   A    
C30   N2    A    
C8    C35   S    
C29   C30   A    
C1    O1    A    
C29   H18   S    
C23   O5    A    
C8    C39   S    
C17   C18   A    
C1    C18   S    
Cu1   O3    S    
Cu2   O4    S    
C22   H8    S    
C30   H11   S    
C34   H16   S    
C21   C23   S    
C22   C24   A    
C5    H12   S    
C4    C10   A    
C2    C38   S    
C2    C36   A    
C7    C9    S    
C11   C17   A    
C31   O8    A    
Cu1   O5    S    
C6    C7    A    
C32   C33   A    
C38   H21   S    
C1    O2    A    
C11   C13   A    
C11   H3    S    
C19   H2    S    
C12   O4    A    
C5    C10   A    
C20   C21   A    
C37   H17   S    
C27   C28   A    
C14   C15   A    
C25   H20   S    
Cu1   O1    S    
C3    C4    A    
C14   H5    S    
Cu2   O6    S    
C4    H9    S    
