data_mof_unit_12143.cif
_audit_creation_date              2012-12-10T18:36:17-0500
_audit_creation_method            fapswitch 2.2
_symmetry_space_group_name_H-M    P1
_symmetry_Int_Tables_number       1
_space_group_crystal_system       triclinic
_cell_length_a                    14.876248
_cell_length_b                    15.190277
_cell_length_c                    19.225787
_cell_angle_alpha                 91.124962
_cell_angle_beta                  104.105131
_cell_angle_gamma                 81.593023
_cell_volume                      4167.69147241

loop_
_atom_site_label
_atom_site_type_symbol
_atom_type_description
_atom_site_fract_x
_atom_site_fract_y
_atom_site_fract_z
_atom_type_partial_charge
C1    C     C_R   0.441646 0.662966 0.486755 0.994952
C2    C     C_R   0.537770 0.181779 0.505845 0.423168
C3    C     C_R   0.411875 0.911963 0.506735 -0.081806
C4    C     C_R   0.523481 0.112429 0.547478 -0.081304
C5    C     C_R   0.336845 0.939939 0.446128 -0.133664
C6    C     C_R   0.585869 0.091640 0.616132 -0.136350
C7    C     C_R   0.457477 0.976664 0.550166 0.003821
C8    C     C_R   0.451130 0.060906 0.520460 0.016036
C9    C     C_R   0.370924 0.091320 0.466202 -0.217076
C10   C     C_R   0.513259 0.958457 0.619961 -0.219779
C11   C     C_R   0.310137 0.032835 0.432631 0.501863
C12   C     C_R   0.558456 0.337075 0.512510 0.997883
C13   C     C_R   0.578161 0.014031 0.653216 0.524146
C14   C     C_R   0.838108 0.646216 0.605263 0.456845
C15   C     C_R   0.155465 0.364270 0.387737 0.475575
C16   C     C_R   0.501064 0.499607 0.634874 0.931658
C17   C     C_R   0.498646 0.501357 0.366083 1.017643
C18   C     C_R   0.752037 0.614456 0.591276 -0.134577
C19   C     C_R   0.248515 0.379131 0.414714 -0.148067
C20   C     C_R   0.793412 0.517145 0.503065 -0.024246
C21   C     C_R   0.201279 0.500811 0.483016 -0.014341
C22   C     C_R   0.878024 0.551602 0.508818 -0.108980
C23   C     C_R   0.404678 0.757467 0.472707 -0.272137
C24   C     C_R   0.105689 0.491562 0.457825 -0.107658
C25   C     C_R   0.900748 0.617353 0.561528 -0.158555
C26   C     C_R   0.083034 0.422592 0.408187 -0.164520
C27   C     C_R   0.941887 0.519701 0.466171 -0.157403
C28   C     C_R   0.033106 0.544167 0.483962 -0.153697
C29   C     C_R   0.047187 0.620843 0.526711 0.425292
C30   C     C_R   0.917688 0.465960 0.404867 0.427971
C31   C     C_R   0.984147 0.654122 0.567788 0.455955
C32   C     C_R   0.987797 0.415485 0.378036 0.462774
C33   C     C_R   0.430372 0.468553 0.735832 0.463077
C34   C     C_R   0.591287 0.245528 0.538560 -0.287090
C35   C     C_R   0.499478 0.582665 0.257278 0.460666
C36   C     C_R   0.435238 0.465900 0.809040 -0.266456
C37   C     C_R   0.503347 0.581666 0.185511 -0.276819
C38   C     C_R   0.507970 0.498324 0.858156 -0.056089
C39   C     C_R   0.506329 0.501177 0.148757 -0.056986
C40   C     C_R   0.579119 0.530051 0.834899 -0.271024
C41   C     C_R   0.503127 0.421671 0.182977 -0.255350
C42   C     C_R   0.579733 0.527326 0.762572 0.480603
C43   C     C_R   0.496489 0.422075 0.253874 0.459125
C44   C     C_R   0.503677 0.498608 0.711857 -0.275558
C45   C     C_R   0.297307 0.875017 0.398348 -0.134382
C46   C     C_R   0.497050 0.502265 0.291076 -0.247627
C47   C     C_R   0.508492 0.500113 0.073717 0.343342
C48   C     C_R   0.509533 0.498407 0.933901 0.340794
C49   C     C_3   0.274727 0.494703 0.681297 -0.243573
C50   C     C_3   0.567821 0.699121 0.311768 -0.336984
C51   C     C_3   0.973369 0.804222 0.588365 -0.173420
C52   C     C_3   0.955595 0.395528 0.257053 -0.206565
C53   C     C_3   0.858984 0.681503 0.724052 -0.308071
C54   C     C_3   0.184493 0.272850 0.294673 -0.295400
C55   C     C_3   0.086256 0.723121 0.459961 -0.391213
C56   C     C_R   0.652887 0.149676 0.644507 -0.121734
C57   C     C_3   0.789856 0.546711 0.331555 -0.334042
C58   C     C_3   0.731662 0.489926 0.758322 -0.296198
C59   C     C_3   0.404730 0.319085 0.264572 -0.305895
C60   C     C_3   0.160043 0.097697 0.418334 -0.235856
C61   C     C_3   0.689558 0.911480 0.724371 -0.281346
C62   C     C_3   0.554692 0.135144 0.396774 -0.290793
C63   C     C_3   0.607883 0.810994 0.528860 -0.302536
C64   C     C_3   0.790996 0.280536 0.615528 -0.284706
C65   C     C_3   0.234395 0.688349 0.350906 -0.270341
C66   C     C_R   0.230168 0.901069 0.328959 0.273779
C67   C     C_R   0.332166 0.783689 0.411445 0.392060
C68   C     C_R   0.263220 0.913546 0.267979 -0.050930
C69   C     C_R   0.199966 0.939167 0.202543 -0.157727
C70   C     C_R   0.103613 0.952333 0.197692 -0.108110
C71   C     C_R   0.070326 0.939765 0.258250 -0.139216
C72   C     C_R   0.133323 0.914138 0.323774 -0.152580
C73   C     C_R   0.719497 0.134809 0.715531 0.288992
C74   C     C_R   0.805473 0.079324 0.722553 -0.159655
C75   C     C_R   0.869118 0.066658 0.789547 -0.153877
C76   C     C_R   0.847561 0.109843 0.849590 -0.111746
C77   C     C_R   0.762407 0.165936 0.842697 -0.156085
C78   C     C_R   0.653617 0.227625 0.606121 0.373408
C79   C     C_R   0.698494 0.178657 0.775816 -0.054616
C80   C     C_R   0.449854 0.821110 0.515857 0.414576
H1    H     H_    0.225129 0.549016 0.522205 0.198890
H2    H     H_    0.506124 0.900779 0.649157 0.199117
H3    H     H_    0.218678 0.469489 0.640034 0.182435
H4    H     H_    0.282650 0.561593 0.662899 0.171745
H5    H     H_    0.251202 0.500124 0.732045 0.149316
H6    H     H_    0.618279 0.658421 0.355569 0.173504
H7    H     H_    0.552297 0.766452 0.333257 0.184522
H8    H     H_    0.599659 0.706628 0.265883 0.144628
H9    H     H_    0.907732 0.807008 0.544867 0.103913
H10   H     H_    0.027839 0.831635 0.568581 0.160682
H11   H     H_    0.956731 0.848559 0.631473 0.181531
H12   H     H_    0.774327 0.462339 0.469150 0.205117
H13   H     H_    0.015823 0.431409 0.257088 0.115298
H14   H     H_    0.888635 0.441049 0.239338 0.159989
H15   H     H_    0.955961 0.342258 0.216786 0.180170
H16   H     H_    0.903933 0.615646 0.736681 0.158175
H17   H     H_    0.787391 0.678591 0.730730 0.182897
H18   H     H_    0.890242 0.729324 0.763746 0.191282
H19   H     H_    0.254089 0.233512 0.317657 0.182391
H20   H     H_    0.191068 0.335171 0.267942 0.114254
H21   H     H_    0.145941 0.231723 0.252682 0.206901
H22   H     H_    0.017923 0.765806 0.456802 0.145357
H23   H     H_    0.305903 0.336949 0.400181 0.164144
H24   H     H_    0.079354 0.680887 0.411617 0.159435
H25   H     H_    0.138568 0.767936 0.459240 0.190366
H26   H     H_    0.836013 0.566010 0.298543 0.134038
H27   H     H_    0.779104 0.600395 0.369973 0.158335
H28   H     H_    0.720812 0.541002 0.294879 0.200001
H29   H     H_    0.714343 0.423779 0.737861 0.209917
H30   H     H_    0.762937 0.485707 0.817110 0.147574
H31   H     H_    0.785399 0.507250 0.732004 0.173264
H32   H     H_    0.391493 0.297981 0.207709 0.151624
H33   H     H_    0.349228 0.373852 0.271580 0.154824
H34   H     H_    0.699504 0.640903 0.619358 0.206170
H35   H     H_    0.400086 0.261659 0.297375 0.208312
H36   H     H_    0.178784 0.155086 0.452962 0.177774
H37   H     H_    0.146187 0.043519 0.450771 0.122358
H38   H     H_    0.094001 0.120744 0.377878 0.230650
H39   H     H_    0.725266 0.905307 0.679449 0.160173
H40   H     H_    0.649793 0.855049 0.724377 0.184660
H41   H     H_    0.745051 0.906537 0.775088 0.194409
H42   H     H_    0.562147 0.064012 0.413158 0.144890
H43   H     H_    0.624840 0.156908 0.405540 0.168375
H44   H     H_    0.521969 0.139896 0.338409 0.198632
H45   H     H_    0.380842 0.439727 0.827293 0.174268
H46   H     H_    0.600158 0.881458 0.511090 0.144351
H47   H     H_    0.610238 0.767161 0.482192 0.174213
H48   H     H_    0.676392 0.797147 0.568380 0.193463
H49   H     H_    0.832080 0.333765 0.639371 0.180478
H50   H     H_    0.777345 0.287182 0.556176 0.169207
H51   H     H_    0.834514 0.215488 0.633930 0.149058
H52   H     H_    0.233381 0.657766 0.402388 0.186660
H53   H     H_    0.230588 0.634618 0.310844 0.187844
H54   H     H_    0.171559 0.738592 0.332187 0.136691
H55   H     H_    0.337763 0.903696 0.271304 0.124733
H56   H     H_    0.501174 0.643859 0.158089 0.175955
H57   H     H_    0.225626 0.948908 0.155613 0.130257
H58   H     H_    0.054756 0.972246 0.147009 0.124683
H59   H     H_    0.995733 0.949967 0.254434 0.126296
H60   H     H_    0.106925 0.904674 0.370428 0.097533
H61   H     H_    0.822822 0.045814 0.676271 0.103007
H62   H     H_    0.935156 0.023439 0.794909 0.132921
H63   H     H_    0.896935 0.100026 0.901408 0.125728
H64   H     H_    0.746000 0.199645 0.889157 0.133082
H65   H     H_    0.632846 0.222510 0.770893 0.124929
H66   H     H_    0.635911 0.554859 0.873068 0.171464
H67   H     H_    0.506011 0.359163 0.154901 0.172862
H68   H     H_    0.352677 0.161050 0.450983 0.202077
N1    N     N_R   0.548675 0.561014 0.977451 -0.180757
N2    N     N_R   0.470008 0.437232 0.030228 -0.184530
N3    N     N_R   0.547842 0.562077 0.046353 -0.186297
N4    N     N_R   0.470208 0.436579 0.961328 -0.182010
N5    N     N_R   0.731690 0.552730 0.540620 -0.140249
N6    N     N_R   0.268310 0.447270 0.459380 -0.130600
O1    O     O_R   0.383120 0.605620 0.479520 -0.632300
O2    O     O_3   0.483620 0.662780 0.291002 -0.560708
O3    O     O_3   0.009236 0.718208 0.618280 -0.545477
O4    O     O_3   0.961559 0.355785 0.324117 -0.531739
O5    O     O_3   0.855726 0.712939 0.654816 -0.596050
O6    O     O_3   0.133873 0.289286 0.347951 -0.566456
O7    O     O_3   0.116648 0.670693 0.523536 -0.603733
O8    O     O_3   0.825873 0.464036 0.367370 -0.589124
O9    O     O_3   0.652829 0.556871 0.741465 -0.599575
O10   O     O_3   0.494944 0.343513 0.288405 -0.591045
O11   O     O_3   0.230154 0.067023 0.382115 -0.612356
O12   O     O_R   0.616880 0.394380 0.520480 -0.600175
O13   O     O_3   0.631063 0.994067 0.722549 -0.610226
O14   O     O_3   0.496895 0.190548 0.433021 -0.614945
O15   O     O_3   0.536706 0.794384 0.562207 -0.606225
O16   O     O_3   0.707222 0.291073 0.638812 -0.608943
O17   O     O_3   0.317472 0.724365 0.355256 -0.558901
O18   O     O_R   0.531890 0.639510 0.505590 -0.584700
O19   O     O_R   0.468110 0.360490 0.494410 -0.591578
O20   O     O_R   0.425590 0.483060 0.588820 -0.581236
O21   O     O_R   0.574410 0.516940 0.411180 -0.631905
O22   O     O_R   0.574360 0.516950 0.614890 -0.559438
O23   O     O_R   0.425640 0.483050 0.385110 -0.609892
O24   O     O_3   0.358227 0.434235 0.688630 -0.582823
Zn1   Zn    Zn3+2 0.400660 0.477370 0.482600 0.976428
Zn2   Zn    Zn3+2 0.599340 0.522630 0.517400 0.982514

loop_
_geom_bond_atom_site_label_1
_geom_bond_atom_site_label_2
_ccdc_geom_bond_type
C25   C31   A    
C7    C10   A    
C62   O14   S    
C26   C32   A    
C61   H39   S    
C58   H29   S    
C73   C74   A    
C14   C18   A    
C54   H21   S    
C66   C68   A    
C36   H45   S    
C4    C8    A    
C18   H34   S    
C62   H44   S    
C7    C8    A    
C39   C41   A    
C15   C19   A    
C20   H12   S    
C55   H22   S    
C55   H25   S    
C49   H4    S    
C28   C29   A    
C35   C37   A    
C24   C26   A    
C5    C11   A    
C3    C7    A    
N1    N3    A    
C51   H10   S    
C12   O12   A    
C63   O15   S    
O18   Zn2   S    
C3    C80   A    
C16   O20   A    
C78   O16   S    
C33   C36   A    
C56   C78   A    
C52   H15   S    
C61   H41   S    
C23   C67   A    
C1    O1    A    
C59   O10   S    
C65   O17   S    
C51   H11   S    
C19   H23   S    
C66   C72   A    
C57   O8    S    
C50   O2    S    
C8    C9    A    
O23   Zn1   S    
C22   C25   A    
C45   C67   A    
C21   N6    A    
C64   H51   S    
C60   H38   S    
C70   C71   A    
C23   C80   A    
C24   C28   A    
C16   C44   S    
C38   C48   S    
C63   H48   S    
C50   H8    S    
C43   O10   S    
C16   O22   A    
C40   C42   A    
C57   H26   S    
N5    Zn2   S    
C38   C40   A    
C48   N1    A    
C27   C30   A    
C69   H57   S    
C45   C66   S    
C41   C43   A    
C54   H20   S    
C42   C44   A    
C80   O15   S    
C29   C31   A    
C58   O9    S    
C62   H43   S    
C35   O2    S    
O1    Zn1   S    
C32   O4    S    
C77   C79   A    
C52   O4    S    
C53   O5    S    
C20   N5    A    
C58   H31   S    
C49   H5    S    
C52   H13   S    
C17   C46   S    
C55   O7    S    
C79   H65   S    
C74   C75   A    
C6    C56   A    
C50   H6    S    
C42   O9    S    
C68   C69   A    
C15   C26   A    
C71   H59   S    
C67   O17   S    
C5    C45   A    
C55   H24   S    
C10   H2    S    
C61   O13   S    
C64   H50   S    
C2    C4    A    
C75   C76   A    
C75   H62   S    
C29   O7    S    
C41   H67   S    
C47   N2    A    
C72   H60   S    
C59   H33   S    
C59   H32   S    
C73   C79   A    
C37   H56   S    
C60   H37   S    
C76   C77   A    
C52   H14   S    
C9    C11   A    
C31   O3    S    
C18   N5    A    
C50   H7    S    
C4    C6    A    
C57   H27   S    
C74   H61   S    
C21   H1    S    
C1    C23   S    
C22   C27   A    
C48   N4    A    
N2    N4    A    
C54   H19   S    
C60   H36   S    
C34   C78   A    
O12   Zn2   S    
C30   O8    S    
C12   C34   S    
C2    O14   S    
C62   H42   S    
C65   H52   S    
C39   C47   S    
C49   O24   S    
C17   O23   A    
C56   C73   S    
C1    O18   A    
C33   O24   S    
C58   H30   S    
C33   C44   A    
C68   H55   S    
C65   H54   S    
C20   C22   A    
C3    C5    A    
C10   C13   A    
C70   H58   S    
O21   Zn2   S    
C53   H18   S    
C9    H68   S    
C60   O11   S    
C53   H16   S    
C40   H66   S    
C14   O5    S    
C53   H17   S    
C49   H3    S    
C36   C38   A    
C77   H64   S    
C15   O6    S    
C37   C39   A    
C51   H9    S    
C6    C13   A    
C30   C32   A    
C2    C34   A    
C51   O3    S    
C14   C25   A    
C64   O16   S    
C69   C70   A    
C43   C46   A    
C63   H47   S    
C63   H46   S    
C13   O13   S    
C47   N3    A    
C54   O6    S    
C76   H63   S    
O22   Zn2   S    
C57   H28   S    
C71   C72   A    
C64   H49   S    
C59   H35   S    
C21   C24   A    
C27   C28   A    
C11   O11   S    
C19   N6    A    
O19   Zn1   S    
N6    Zn1   S    
C35   C46   A    
O20   Zn1   S    
C65   H53   S    
C17   O21   A    
C12   O19   A    
C61   H40   S    
