data_mof_unit_50561.cif
_audit_creation_date              2013-03-05T16:01:16-0500
_audit_creation_method            fapswitch 2.2
_symmetry_space_group_name_H-M    P1
_symmetry_Int_Tables_number       1
_space_group_crystal_system       triclinic
_cell_length_a                    14.837548
_cell_length_b                    14.869763
_cell_length_c                    17.202963
_cell_angle_alpha                 108.820006
_cell_angle_beta                  73.523806
_cell_angle_gamma                 116.754827
_cell_volume                      3164.66949579

loop_
_atom_site_label
_atom_site_type_symbol
_atom_site_description
_atom_site_fract_x
_atom_site_fract_y
_atom_site_fract_z
_atom_type_partial_charge
O1    O     O_R   0.020090 0.662480 0.528530 -0.631958
O2    O     O_R   0.979910 0.337520 0.471470 -0.639475
O3    O     O_R   0.160710 0.620650 0.491980 -0.517597
O4    O     O_R   0.839290 0.379350 0.508020 -0.485577
C1    C     C_R   0.119222 0.688395 0.515255 0.881835
C2    C     C_R   0.880512 0.311103 0.485278 0.834249
O5    O     O_R   0.921540 0.523360 0.633990 -0.582596
O6    O     O_R   0.078460 0.476640 0.366010 -0.535948
O7    O     O_R   0.062170 0.481520 0.597440 -0.520756
O8    O     O_R   0.937830 0.518480 0.402560 -0.546926
C3    C     C_R   0.988917 0.503174 0.652507 0.782908
C4    C     C_R   0.010886 0.496515 0.347353 0.877159
Cu1   Cu    Cu3+1 0.916740 0.524770 0.521640 1.046939
Cu2   Cu    Cu3+1 0.083260 0.475230 0.478360 1.047950
C5    C     C_R   0.983391 0.508459 0.739802 -0.187895
C6    C     C_R   0.016781 0.492067 0.260053 -0.114714
C7    C     C_R   0.068830 0.578413 0.777773 -0.210004
C8    C     C_R   0.927953 0.435772 0.224021 -0.282839
C9    C     C_R   0.067322 0.591346 0.862176 0.381622
C10   C     C_R   0.930757 0.426436 0.140020 0.390471
C11   C     C_R   0.977607 0.531806 0.908851 -0.150777
C12   C     C_R   0.024322 0.479181 0.092660 -0.086438
C13   C     C_R   0.890956 0.464244 0.871753 -0.133325
C14   C     C_R   0.113710 0.533678 0.128130 -0.273891
C15   C     C_R   0.892739 0.450783 0.787415 0.436365
C16   C     C_R   0.110968 0.539965 0.211859 0.447823
C17   C     C_2   0.975183 0.529840 0.994481 0.442153
C18   C     C_2   0.029616 0.485353 0.007453 0.438726
H1    H     H_    0.135935 0.625994 0.742238 0.232012
H2    H     H_    0.856867 0.395497 0.260553 0.239394
H3    H     H_    0.822672 0.418208 0.907952 0.223811
H4    H     H_    0.185003 0.573607 0.091016 0.191358
C19   C     C_R   0.187298 0.796639 0.542138 -0.083075
C20   C     C_R   0.812760 0.199641 0.471362 -0.111390
C21   C     C_R   0.238485 0.938817 0.661107 0.493150
C22   C     C_R   0.784817 0.024032 0.389171 0.484571
C23   C     C_R   0.162404 0.852099 0.621311 -0.366108
C24   C     C_R   0.849586 0.128483 0.412887 -0.357709
C25   C     C_R   0.286177 0.834480 0.498074 0.379510
C26   C     C_R   0.710472 0.165047 0.511301 0.405790
C27   C     C_R   0.367947 0.906464 0.542305 -0.107213
C28   C     C_R   0.647293 0.057140 0.496623 -0.128148
C29   C     C_R   0.342951 0.961648 0.624730 -0.116029
C30   C     C_R   0.681751 0.987715 0.430092 -0.115214
C31   C     C_R   0.473000 0.925416 0.507666 -0.116712
C32   C     C_R   0.548594 0.017508 0.544417 -0.135291
C33   C     C_R   0.524838 0.063396 0.629620 0.331554
C34   C     C_R   0.507491 0.854154 0.442027 0.322862
C35   C     C_R   0.422964 0.036196 0.669140 0.328486
C36   C     C_R   0.611435 0.884317 0.406346 0.337856
H5    H     H_    0.928040 0.155617 0.381306 0.170085
H6    H     H_    0.084408 0.825428 0.653808 0.166914
N1    N     N_R   0.208390 0.438070 0.445820 -0.299078
N2    N     N_R   0.791610 0.561930 0.554180 -0.292258
C37   C     C_R   0.318285 0.371093 0.334670 -0.131210
C38   C     C_R   0.706748 0.670852 0.647440 -0.134813
C39   C     C_R   0.224587 0.378668 0.367462 0.515396
C40   C     C_R   0.786690 0.638774 0.624661 0.508858
C41   C     C_R   0.286123 0.488784 0.493342 0.485489
C42   C     C_R   0.711232 0.512136 0.509568 0.525362
C43   C     C_R   0.386783 0.488335 0.459103 -0.114703
C44   C     C_R   0.636274 0.554515 0.524394 -0.121701
C45   C     C_R   0.399781 0.424949 0.379002 -0.076736
C46   C     C_R   0.633167 0.632272 0.596981 -0.085830
C47   C     C_R   0.473680 0.544248 0.502171 -0.025505
C48   C     C_R   0.560736 0.517842 0.472357 -0.030215
C49   C     C_R   0.576782 0.468977 0.387506 0.398190
C50   C     C_R   0.484095 0.634516 0.566501 0.410216
C51   C     C_R   0.494237 0.416541 0.342578 0.362510
C52   C     C_R   0.557829 0.672276 0.618402 0.348918
H7    H     H_    0.326739 0.323015 0.272763 0.239584
H8    H     H_    0.705258 0.729637 0.704321 0.240011
O9    O     O_3   0.599709 0.128005 0.678544 -0.607676
H9    H     H_    0.661886 0.113123 0.653775 0.346307
O10   O     O_3   0.445758 0.751093 0.416405 -0.631333
H10   H     H_    0.388895 0.729182 0.461879 0.388061
O11   O     O_3   0.503786 0.355469 0.263249 -0.684574
H11   H     H_    0.557612 0.330319 0.256826 0.376458
O12   O     O_3   0.558461 0.749663 0.689706 -0.703348
H12   H     H_    0.488434 0.748576 0.709268 0.374267
N3    N     N_R   0.688402 0.406959 0.463474 0.170774
O13   O     O_R   0.597589 0.336416 0.479256 -0.369953
O14   O     O_R   0.751081 0.383276 0.398779 -0.327252
N4    N     N_R   0.262114 0.530797 0.580203 0.159838
O15   O     O_R   0.267527 0.490825 0.634919 -0.335138
O16   O     O_R   0.244500 0.614614 0.605105 -0.336120
O17   O     O_3   0.854657 0.683720 0.679782 -0.709840
H13   H     H_    0.920270 0.681023 0.650650 0.364500
O18   O     O_3   0.151756 0.326319 0.316312 -0.701177
H14   H     H_    0.084203 0.311955 0.351019 0.354573
O19   O     O_3   0.675978 0.485389 0.347408 -0.678257
H15   H     H_    0.680657 0.480513 0.287701 0.374985
O20   O     O_3   0.435406 0.694986 0.567921 -0.708613
H16   H     H_    0.474323 0.768176 0.593686 0.333561
O21   O     O_3   0.198028 0.594931 0.248372 -0.653242
H17   H     H_    0.257110 0.623701 0.206021 0.354635
O22   O     O_3   0.805772 0.379012 0.754447 -0.639028
H18   H     H_    0.821579 0.363602 0.692951 0.341813
O23   O     O_3   0.091334 0.447434 0.941143 -0.695628
H19   H     H_    0.122759 0.415500 0.962344 0.353577
O24   O     O_3   0.914597 0.569455 0.060619 -0.692431
H20   H     H_    0.881387 0.598823 0.038585 0.357313
N5    N     N_R   0.839159 0.362297 0.103712 0.151353
O25   O     O_R   0.844380 0.311381 0.026378 -0.322179
O26   O     O_R   0.749618 0.345299 0.150167 -0.313519
N6    N     N_R   0.156492 0.664993 0.899182 0.152456
O27   O     O_R   0.246434 0.692054 0.853052 -0.274012
O28   O     O_R   0.147667 0.712502 0.977309 -0.311827
N7    N     N_R   0.403021 0.080170 0.756443 0.212892
O29   O     O_R   0.364709 0.021128 0.809318 -0.245229
O30   O     O_R   0.437894 0.180145 0.783886 -0.223445
N8    N     N_R   0.644103 0.807114 0.347159 0.208350
O31   O     O_R   0.606701 0.760377 0.278198 -0.246637
O32   O     O_R   0.695958 0.770704 0.368872 -0.295069
O33   O     O_3   0.673130 0.238417 0.561531 -0.641737
H21   H     H_    0.600095 0.212619 0.557173 0.371377
O34   O     O_3   0.298863 0.800786 0.412471 -0.664207
H22   H     H_    0.359459 0.855146 0.388514 0.357406
O35   O     O_3   0.211951 0.999114 0.736229 -0.642953
H23   H     H_    0.136371 0.972568 0.751576 0.346626
O36   O     O_3   0.820837 0.958059 0.324749 -0.640900
H24   H     H_    0.893755 0.996049 0.303311 0.343760

loop_
_geom_bond_atom_site_label_1
_geom_bond_atom_site_label_2
_geom_bond_distance
_ccdc_geom_bond_type
O17   H13   0.972606 S    
O24   H20   0.991814 S    
C7    H1    1.079440 S    
O9    H9    0.990776 S    
C51   O11   1.383381 S    
O21   H17   0.991698 S    
O7    Cu2   1.960168 S    
C40   O17   1.374605 S    
N8    O32   1.301212 A    
N3    O13   1.301269 A    
N1    C41   1.386096 A    
C33   C35   1.398091 A    
C10   N5    1.441187 S    
N2    C42   1.384572 A    
C31   C32   1.412008 A    
O5    C3    1.305178 A    
C19   C25   1.394551 A    
C39   O18   1.374082 S    
O1    C1    1.311510 A    
C9    C11   1.411315 A    
C14   C16   1.403009 A    
N7    O30   1.301458 A    
C5    C15   1.416075 A    
C26   O33   1.381429 S    
N6    O27   1.301700 A    
O33   H21   0.990126 S    
C42   C44   1.437208 A    
C28   C32   1.421448 A    
O4    Cu1   1.907837 S    
C43   C45   1.413975 A    
C44   C46   1.407860 A    
C21   O35   1.382256 S    
C45   C51   1.407674 A    
C38   H8    1.084135 S    
C1    C19   1.464849 S    
C38   C46   1.388132 A    
C8    H2    1.078990 S    
C46   C52   1.400986 A    
C21   C29   1.422153 A    
C34   C36   1.405139 A    
C48   C49   1.410555 A    
C11   C17   1.472740 S    
C12   C18   1.475881 S    
Cu1   Cu2   2.728175 S    
C27   C29   1.430549 A    
C34   O10   1.382455 S    
O2    C2    1.313669 A    
C28   C30   1.420569 A    
C49   O19   1.382379 S    
N8    O31   1.301000 A    
N3    O14   1.297096 A    
O22   H18   0.988908 S    
C6    C16   1.405447 A    
C41   C43   1.443987 A    
C44   C48   1.434854 A    
C4    C6    1.460864 S    
C41   N4    1.430450 S    
C33   O9    1.383174 S    
O4    C2    1.312996 A    
O19   H15   0.990511 S    
C23   H6    1.082561 S    
N1    C39   1.376294 A    
C29   C35   1.416016 A    
C24   H5    1.082975 S    
O11   H11   0.991010 S    
C17   O24   1.383413 S    
C19   C23   1.391320 A    
C2    C20   1.481646 S    
C37   C45   1.393666 A    
C49   C51   1.411977 A    
C13   H3    1.084255 S    
O10   H10   0.986169 S    
C14   H4    1.084033 S    
C42   N3    1.436925 S    
O23   H19   0.991681 S    
O6    C4    1.306188 A    
C47   C50   1.414964 A    
C36   N8    1.434030 S    
N5    O26   1.301297 A    
O20   H16   0.991186 S    
N4    O15   1.300976 A    
O7    C3    1.310225 A    
O36   H24   0.991718 S    
O3    Cu2   1.907838 S    
O8    C4    1.310846 A    
C18   O23   1.383886 S    
C15   O22   1.382164 S    
C10   C12   1.413017 A    
C3    C5    1.458736 S    
C37   C39   1.385221 A    
C12   C14   1.400152 A    
C22   C30   1.420168 A    
O1    Cu1   1.917816 S    
C22   C24   1.404284 A    
C17   C18   1.348396 D    
C35   N7    1.435012 S    
Cu1   N2    2.049464 S    
N2    C40   1.382794 A    
C31   C34   1.431167 A    
C30   C36   1.418291 A    
C16   O21   1.381898 S    
C5    C7    1.399942 A    
C32   C33   1.420020 A    
O6    Cu2   1.961280 S    
C21   C23   1.401418 A    
C52   O12   1.383841 S    
C20   C24   1.397166 A    
N4    O16   1.300189 A    
O3    C1    1.308535 A    
O8    Cu1   1.960168 S    
O35   H23   0.991905 S    
C50   O20   1.375388 S    
C11   C13   1.399414 A    
C22   O36   1.382327 S    
C25   O34   1.380842 S    
N7    O29   1.301497 A    
N6    O28   1.301329 A    
C26   C28   1.426792 A    
C7    C9    1.396794 A    
C38   C40   1.383170 A    
C8    C10   1.396740 A    
C13   C15   1.393359 A    
O2    Cu2   1.917817 S    
O12   H12   0.991550 S    
C9    N6    1.441705 S    
C43   C47   1.442854 A    
O5    Cu1   1.961279 S    
Cu2   N1    2.049464 S    
C25   C27   1.423261 A    
C6    C8    1.399044 A    
C47   C48   1.427113 A    
N5    O25   1.301379 A    
C50   C52   1.409583 A    
C27   C31   1.431832 A    
C20   C26   1.404894 A    
O18   H14   0.978167 S    
O34   H22   0.990978 S    
C37   H7    1.083849 S    
