data_mof_unit_40077.cif
_audit_creation_date              2012-10-26T20:18:14-0400
_audit_creation_method            fapswitch 2.2
_symmetry_space_group_name_H-M    P1
_symmetry_Int_Tables_number       1
_space_group_crystal_system       triclinic
_cell_length_a                    23.397577
_cell_length_b                    8.684993
_cell_length_c                    7.508545
_cell_angle_alpha                 102.91763
_cell_angle_beta                  96.122419
_cell_angle_gamma                 93.525077
_cell_volume                      1472.95570103

loop_
_atom_site_label
_atom_site_type_symbol
_atom_type_description
_atom_site_fract_x
_atom_site_fract_y
_atom_site_fract_z
_atom_type_partial_charge
Br1   Br    Br    0.931146 0.004461 0.248043 -0.322017
Br2   Br    Br    0.068916 0.006000 0.737795 -0.338622
Br3   Br    Br    0.235033 0.889283 0.541950 -0.230740
Br4   Br    Br    0.768347 0.120775 0.457298 -0.204530
Br5   Br    Br    0.428151 0.298185 0.899406 -0.298757
Br6   Br    Br    0.571669 0.702190 0.100759 -0.302802
C1    C     C_R   0.497054 0.200259 0.454189 0.523867
C2    C     C_R   0.710692 0.592933 0.640949 -0.017047
C3    C     C_R   0.230007 0.436446 0.342176 0.034720
C4    C     C_R   0.770690 0.574820 0.648246 0.025625
C5    C     C_R   0.209690 0.551307 0.482237 0.180522
C6    C     C_R   0.790812 0.459189 0.508397 0.118357
C7    C     C_2   0.486278 0.033904 0.436178 -0.011642
C8    C     C_2   0.513721 0.966103 0.563854 -0.011161
C9    C     C_R   0.391015 0.501217 0.499235 0.515444
C10   C     C_R   0.609003 0.499228 0.500781 0.510608
C11   C     C_R   0.880200 0.622459 0.500017 0.405908
C12   C     C_R   0.502954 0.799742 0.545815 0.523403
C13   C     C_R   0.119959 0.387799 0.485405 0.457491
C14   C     C_R   0.877153 0.349474 0.372169 0.465480
C15   C     C_R   0.122926 0.660785 0.615560 0.478685
C16   C     C_R   0.937874 0.352146 0.398554 0.035228
C17   C     C_R   0.062228 0.658082 0.588283 0.044741
C18   C     C_R   0.969665 0.499348 0.479628 -0.065579
C19   C     C_R   0.030470 0.510881 0.507099 -0.057460
C20   C     C_R   0.940594 0.636618 0.525262 0.000138
C21   C     C_R   0.059545 0.373702 0.460764 0.027771
C22   C     C_R   0.967939 0.214907 0.349593 0.175750
C23   C     C_R   0.249806 0.679420 0.574614 0.249587
C24   C     C_R   0.032149 0.795439 0.636548 0.175448
C25   C     C_R   0.028075 0.226836 0.384145 -0.048180
C26   C     C_R   0.972028 0.783563 0.601363 -0.054560
C27   C     C_2   0.349081 0.780985 0.727333 0.331376
C28   C     C_2   0.651861 0.220221 0.274649 0.331417
C29   C     C_2   0.311548 0.276340 0.230800 0.304610
C30   C     C_2   0.687889 0.722146 0.772729 0.376905
C31   C     C_2   0.189701 0.350447 0.178042 0.361802
C32   C     C_2   0.812627 0.664013 0.806665 0.362207
C33   C     C_2   0.436365 0.955971 0.297374 0.249943
C34   C     C_R   0.751201 0.328166 0.421354 0.254810
C35   C     C_2   0.563612 0.044057 0.702740 0.249872
C36   C     C_R   0.308499 0.654162 0.601984 0.001015
C37   C     C_R   0.692139 0.349716 0.396833 0.003410
C38   C     C_R   0.328427 0.516552 0.495056 -0.056846
C39   C     C_R   0.671710 0.486067 0.504356 -0.068702
C40   C     C_R   0.289446 0.411832 0.356217 -0.046015
Cu1   Cu    Cu3+1 0.506340 0.517380 0.684380 1.132791
Cu2   Cu    Cu3+1 0.493660 0.482620 0.315620 1.136100
H1    H     H_    0.050234 0.120525 0.346835 0.209839
H2    H     H_    0.570565 0.009474 0.833119 0.159907
H3    H     H_    0.949834 0.889894 0.638047 0.214643
H4    H     H_    0.394248 0.793125 0.709124 0.132580
H5    H     H_    0.606846 0.206900 0.294423 0.132014
H6    H     H_    0.344317 0.210257 0.285534 0.137525
H7    H     H_    0.656188 0.793377 0.722171 0.120417
H8    H     H_    0.194884 0.229034 0.110386 0.205237
H9    H     H_    0.849239 0.606384 0.854144 0.110389
H10   H     H_    0.429391 0.990565 0.167009 0.161697
N1    N     N_R   0.850126 0.475326 0.461724 -0.408886
N2    N     N_R   0.150123 0.535052 0.526539 -0.377136
N3    N     N_2   0.484110 0.456420 0.038520 0.016581
N4    N     N_2   0.515890 0.543580 0.961480 0.015898
O1    O     O_R   0.504120 0.286130 0.619770 -0.449637
O2    O     O_2   0.148183 0.255426 0.470511 -0.437181
O3    O     O_2   0.846582 0.231268 0.245057 -0.342228
O4    O     O_2   0.153283 0.779192 0.742837 -0.358299
O5    O     O_2   0.332207 0.873574 0.854620 -0.404664
O6    O     O_2   0.668774 0.126784 0.148187 -0.400556
O7    O     O_2   0.295953 0.242694 0.065347 -0.416408
O8    O     O_2   0.701476 0.743463 0.938515 -0.365004
O9    O     O_2   0.149859 0.415766 0.116875 -0.452178
O10   O     O_2   0.808979 0.803395 0.877606 -0.338000
O11   O     O_2   0.400788 0.861246 0.331637 -0.475612
O12   O     O_R   0.495880 0.713870 0.380230 -0.449644
O13   O     O_2   0.599196 0.138802 0.668545 -0.476240
O14   O     O_R   0.493410 0.256770 0.308360 -0.535642
O15   O     O_R   0.506590 0.743230 0.691640 -0.536765
O16   O     O_R   0.423230 0.514630 0.655730 -0.490220
O17   O     O_R   0.576770 0.485370 0.344270 -0.487911
O18   O     O_R   0.412530 0.485280 0.344320 -0.464593
O19   O     O_R   0.587470 0.514720 0.655680 -0.469866
O20   O     O_2   0.851906 0.754394 0.510499 -0.390429

loop_
_geom_bond_atom_site_label_1
_geom_bond_atom_site_label_2
_ccdc_geom_bond_type
C20   C26   A    
C15   O4    S    
Cu2   O14   S    
Cu1   N4    S    
C27   H4    S    
C27   C36   S    
Cu2   O17   S    
C18   C20   A    
C9    C38   S    
Cu1   O1    S    
C23   C36   A    
C9    O16   A    
C11   O20   S    
C2    C30   S    
Br3   C23   S    
C8    C12   S    
C2    C39   A    
C31   H8    S    
C34   C37   A    
Cu1   Cu2   S    
C38   C40   A    
Br1   C22   S    
C13   C21   A    
Cu1   O19   S    
C3    C40   A    
C12   O12   A    
C16   C22   A    
C7    C8    D    
C29   H6    S    
C6    N1    S    
C36   C38   A    
C25   H1    S    
C29   O7    D    
C30   O8    D    
C32   O10   D    
C21   C25   A    
C17   C24   A    
Cu2   O12   S    
C14   O3    S    
C18   C19   A    
C15   N2    A    
C28   O6    D    
C33   H10   S    
C6    C34   A    
C26   H3    S    
Br4   C34   S    
C35   O13   D    
C32   H9    S    
C37   C39   A    
C9    O18   A    
C13   O2    S    
C3    C31   S    
Br5   N3    S    
C14   N1    A    
C3    C5    A    
C1    O1    A    
C4    C6    A    
C11   N1    A    
C8    C35   S    
C14   C16   A    
C31   O9    D    
C16   C18   A    
C11   C20   A    
C5    N2    S    
C35   H2    S    
C27   O5    D    
C22   C25   A    
C28   C37   S    
C10   C39   S    
C1    O14   A    
C13   N2    A    
C19   C21   A    
Br2   C24   S    
C4    C32   S    
C10   O17   A    
Br6   N4    S    
C15   C17   A    
C30   H7    S    
C24   C26   A    
Cu2   O18   S    
Cu2   N3    S    
C12   O15   A    
C10   O19   A    
C33   O11   D    
N3    N4    D    
C7    C33   S    
C1    C7    S    
C17   C19   A    
C5    C23   A    
C28   H5    S    
C2    C4    A    
Cu1   O15   S    
Cu1   O16   S    
C29   C40   S    
