data_mof_unit_53397.cif
_audit_creation_date              2012-12-11T15:18:03-0500
_audit_creation_method            fapswitch 2.2
_symmetry_space_group_name_H-M    P1
_symmetry_Int_Tables_number       1
_space_group_crystal_system       triclinic
_cell_length_a                    18.510383
_cell_length_b                    18.340644
_cell_length_c                    18.569911
_cell_angle_alpha                 90.000372
_cell_angle_beta                  90.000091
_cell_angle_gamma                 90.000166
_cell_volume                      6304.34262993

loop_
_atom_site_label
_atom_site_type_symbol
_atom_type_description
_atom_site_fract_x
_atom_site_fract_y
_atom_site_fract_z
_atom_type_partial_charge
C1    C     C_R   0.674236 0.590305 0.118396 0.522254
C2    C     C_R   0.316622 0.599863 0.098653 0.513384
C3    C     C_3   0.351135 0.857194 0.043042 -0.314879
C4    C     C_3   0.326674 0.926940 0.080491 -1.037315
C5    C     C_3   0.535301 0.246169 0.789873 0.195720
C6    C     C_3   0.497826 0.303196 0.741927 -0.355558
C7    C     C_3   0.492607 0.276265 0.664455 -0.993628
C8    C     C_3   0.795591 0.371392 0.888995 0.232249
C9    C     C_3   0.784177 0.318233 0.952153 -0.313365
C10   C     C_3   0.836967 0.254575 0.948963 -1.042291
C11   C     C_3   0.205824 0.578426 0.156668 0.288494
C12   C     C_3   0.243440 0.563503 0.229529 -0.358730
C13   C     C_R   0.599660 0.687412 0.911532 0.548313
C14   C     C_3   0.191724 0.575550 0.292349 -1.015893
C15   C     C_3   0.593282 0.815914 0.911428 0.309547
C16   C     C_3   0.648863 0.857195 0.956962 -0.314877
C17   C     C_3   0.673326 0.926941 0.919514 -1.037314
C18   C     C_3   0.464696 0.246166 0.210124 0.195731
C19   C     C_3   0.502173 0.303190 0.258074 -0.355553
C20   C     C_3   0.507387 0.276257 0.335545 -0.993633
C21   C     C_3   0.204410 0.628612 0.889001 0.232234
C22   C     C_3   0.215826 0.681764 0.952166 -0.313348
C23   C     C_3   0.163044 0.745428 0.948978 -1.042312
C24   C     C_R   0.418185 0.331085 0.126684 0.543158
C25   C     C_3   0.794179 0.421570 0.156664 0.288470
C26   C     C_3   0.756562 0.436485 0.229527 -0.358632
C27   C     C_3   0.808293 0.424441 0.292348 -1.015399
C28   C     C_3   0.406719 0.184086 0.911427 0.309550
C29   C     C_3   0.351138 0.142804 0.956961 -0.314870
C30   C     C_3   0.326678 0.073056 0.919513 -1.037328
C31   C     C_3   0.535313 0.753843 0.210122 0.195732
C32   C     C_3   0.497836 0.696827 0.258080 -0.355533
C33   C     C_3   0.492646 0.723762 0.335553 -0.993617
C34   C     C_3   0.295588 0.128610 0.611004 0.232233
C35   C     C_R   0.325763 0.590306 0.881606 0.522251
C36   C     C_3   0.284174 0.181758 0.547836 -0.313348
C37   C     C_3   0.336954 0.245424 0.551023 -1.042314
C38   C     C_3   0.705830 0.921575 0.343321 0.288482
C39   C     C_3   0.743453 0.936499 0.270463 -0.358732
C40   C     C_3   0.691743 0.924454 0.207638 -1.015889
C41   C     C_3   0.093283 0.684086 0.588569 0.309549
C42   C     C_3   0.148867 0.642809 0.543035 -0.314874
C43   C     C_3   0.173332 0.573063 0.580482 -1.037319
C44   C     C_3   0.964722 0.253799 0.289858 0.195698
C45   C     C_3   0.002198 0.196752 0.241935 -0.355576
C46   C     C_R   0.683378 0.400136 0.098650 0.513386
C47   C     C_3   0.007446 0.223664 0.164459 -0.993622
C48   C     C_3   0.704413 0.871386 0.610996 0.232219
C49   C     C_3   0.715828 0.818241 0.547825 -0.313334
C50   C     C_3   0.663054 0.754570 0.551010 -1.042319
C51   C     C_3   0.294174 0.078427 0.343330 0.288482
C52   C     C_3   0.256556 0.063503 0.270469 -0.358731
C53   C     C_3   0.308269 0.075551 0.207647 -1.015886
C54   C     C_3   0.906718 0.315914 0.588574 0.309560
C55   C     C_3   0.851134 0.357195 0.543043 -0.314887
C56   C     C_3   0.826674 0.426940 0.580493 -1.037313
C57   C     C_R   0.400340 0.312588 0.911531 0.548314
C58   C     C_3   0.035303 0.746169 0.289873 0.195715
C59   C     C_3   0.997827 0.803195 0.241926 -0.355553
C60   C     C_3   0.992611 0.776262 0.164454 -0.993631
C61   C     C_3   0.295591 0.871390 0.388996 0.232253
C62   C     C_3   0.284174 0.818229 0.452153 -0.313366
C63   C     C_3   0.336962 0.754569 0.448962 -1.042289
C64   C     C_3   0.705823 0.078426 0.656666 0.288497
C65   C     C_3   0.743437 0.063503 0.729528 -0.358735
C66   C     C_3   0.691720 0.075549 0.792347 -1.015893
C67   C     C_3   0.093282 0.315914 0.411427 0.309547
C68   C     C_R   0.581815 0.668915 0.126684 0.543150
C69   C     C_3   0.148862 0.357196 0.456961 -0.314874
C70   C     C_3   0.173324 0.426942 0.419513 -1.037311
C71   C     C_3   0.964696 0.746166 0.710124 0.195729
C72   C     C_3   0.002173 0.803191 0.758074 -0.355557
C73   C     C_3   0.007389 0.776257 0.835545 -0.993635
C74   C     C_3   0.704411 0.128612 0.389000 0.232240
C75   C     C_3   0.715828 0.181766 0.452163 -0.313353
C76   C     C_3   0.663046 0.245431 0.448974 -1.042313
C77   C     C_3   0.294183 0.921571 0.656655 0.288494
C78   C     C_3   0.256571 0.936487 0.729521 -0.358723
C79   C     C_R   0.174235 0.090304 0.618396 0.522251
C80   C     C_3   0.308302 0.924463 0.792336 -1.015782
C81   C     C_3   0.906721 0.684086 0.411425 0.309551
C82   C     C_3   0.851141 0.642799 0.456955 -0.314856
C83   C     C_3   0.826688 0.573050 0.419505 -1.037326
C84   C     C_3   0.035318 0.253850 0.710118 0.195735
C85   C     C_3   0.997840 0.196840 0.758083 -0.355523
C86   C     C_3   0.992660 0.223779 0.835556 -0.993605
C87   C     C_R   0.816623 0.900137 0.401346 0.513380
C88   C     C_R   0.099660 0.812587 0.588467 0.548322
C89   C     C_R   0.316623 0.400137 0.901345 0.513380
C90   C     C_R   0.918186 0.168912 0.373313 0.543175
C91   C     C_R   0.825764 0.909694 0.618395 0.522249
C92   C     C_R   0.183378 0.099864 0.401348 0.513375
C93   C     C_R   0.900340 0.187412 0.588469 0.548327
C94   C     C_R   0.081815 0.831085 0.373316 0.543160
C95   C     C_R   0.174237 0.909695 0.381607 0.522265
C96   C     C_R   0.816622 0.099863 0.598652 0.513383
C97   C     C_R   0.099661 0.187412 0.411533 0.548321
C98   C     C_R   0.918185 0.831085 0.626684 0.543160
C99   C     C_R   0.825763 0.090305 0.381606 0.522248
C100  C     C_R   0.599660 0.312587 0.088467 0.548322
C101  C     C_R   0.183379 0.900137 0.598650 0.513386
C102  C     C_R   0.900340 0.812588 0.411531 0.548315
C103  C     C_R   0.081815 0.168916 0.626684 0.543143
C104  C     C_R   0.646585 0.647615 0.158742 -0.347775
C105  C     C_R   0.329179 0.326109 0.892714 -0.352976
C106  C     C_R   0.670823 0.326109 0.107281 -0.352972
C107  C     C_R   0.353413 0.647615 0.841260 -0.347771
C108  C     C_R   0.353414 0.352384 0.158741 -0.347761
C109  C     C_R   0.670822 0.673891 0.892717 -0.352970
C110  C     C_R   0.329178 0.673890 0.107285 -0.352971
C111  C     C_R   0.418185 0.668914 0.873315 0.543171
C112  C     C_R   0.646587 0.352384 0.841260 -0.347783
C113  C     C_R   0.146585 0.147614 0.658743 -0.347774
C114  C     C_R   0.829179 0.826109 0.392714 -0.352968
C115  C     C_R   0.170823 0.826109 0.607280 -0.352968
C116  C     C_R   0.853414 0.147614 0.341258 -0.347770
C117  C     C_R   0.853414 0.852384 0.658741 -0.347765
C118  C     C_R   0.170823 0.173891 0.392718 -0.352974
C119  C     C_R   0.829178 0.173890 0.607285 -0.352970
C120  C     C_R   0.146587 0.852384 0.341260 -0.347784
C121  C     C_1   0.718994 0.275555 0.138065 -0.016240
C122  C     C_R   0.325764 0.409695 0.118395 0.522247
C123  C     C_1   0.322194 0.674415 0.777317 0.001689
C124  C     C_1   0.322196 0.325587 0.222685 0.001680
C125  C     C_1   0.718995 0.724447 0.861936 -0.016210
C126  C     C_1   0.281006 0.724445 0.138067 -0.016225
C127  C     C_1   0.677805 0.325586 0.777316 0.001683
C128  C     C_1   0.677803 0.674410 0.222688 0.001680
C129  C     C_1   0.281005 0.275552 0.861936 -0.016195
C130  C     C_1   0.218995 0.775555 0.638064 -0.016246
C131  C     C_1   0.822194 0.174415 0.277317 0.001690
C132  C     C_1   0.822195 0.825587 0.722685 0.001679
C133  C     C_R   0.683378 0.599864 0.901348 0.513379
C134  C     C_1   0.218995 0.224447 0.361936 -0.016205
C135  C     C_1   0.781006 0.224445 0.638067 -0.016229
C136  C     C_1   0.177806 0.825586 0.277316 0.001682
C137  C     C_1   0.177802 0.174409 0.722689 0.001687
C138  C     C_1   0.781005 0.775552 0.361936 -0.016203
C139  C     C_1   0.755849 0.237037 0.173775 -0.019933
C140  C     C_1   0.293608 0.699950 0.726040 -0.033904
C141  C     C_1   0.293610 0.300054 0.273963 -0.033902
C142  C     C_1   0.755851 0.762965 0.826227 -0.019948
C143  C     C_1   0.244150 0.762964 0.173775 -0.019947
C144  C     C_R   0.400340 0.687412 0.088469 0.548325
C145  C     C_1   0.706391 0.300052 0.726039 -0.033903
C146  C     C_1   0.706389 0.699943 0.273966 -0.033899
C147  C     C_1   0.244148 0.237032 0.826230 -0.019968
C148  C     C_1   0.255850 0.737037 0.673775 -0.019931
C149  C     C_1   0.793608 0.199950 0.226040 -0.033923
C150  C     C_1   0.793610 0.800053 0.773962 -0.033901
C151  C     C_1   0.255851 0.262965 0.326228 -0.019949
C152  C     C_1   0.744150 0.262964 0.673775 -0.019945
C153  C     C_1   0.206391 0.800052 0.226040 -0.033902
C154  C     C_1   0.206388 0.199942 0.773967 -0.033896
C155  C     C_R   0.581815 0.331085 0.873316 0.543161
C156  C     C_1   0.744148 0.737032 0.326230 -0.019962
C157  C     C_3   0.795588 0.628610 0.111003 0.232227
C158  C     C_3   0.784174 0.681760 0.047837 -0.313349
C159  C     C_3   0.836955 0.745425 0.051024 -1.042313
C160  C     C_3   0.205833 0.421576 0.843316 0.288482
C161  C     C_3   0.243460 0.436501 0.770460 -0.358732
C162  C     C_3   0.191753 0.424454 0.707632 -1.015893
C163  C     C_3   0.593283 0.184086 0.088568 0.309551
C164  C     C_3   0.648867 0.142809 0.043034 -0.314875
C165  C     C_3   0.673333 0.073063 0.080481 -1.037311
C166  C     C_R   0.674237 0.409695 0.881606 0.522262
C167  C     C_3   0.464711 0.753814 0.789866 0.195707
C168  C     C_3   0.502189 0.696776 0.741934 -0.355559
C169  C     C_3   0.507427 0.723698 0.664460 -0.993615
C170  C     C_3   0.204413 0.371385 0.110995 0.232213
C171  C     C_3   0.215828 0.318245 0.047820 -0.313335
C172  C     C_3   0.163056 0.254572 0.051004 -1.042329
C173  C     C_3   0.794175 0.578427 0.843330 0.288489
C174  C     C_3   0.756557 0.563503 0.770470 -0.358735
C175  C     C_3   0.808271 0.575553 0.707648 -1.015894
C176  C     C_3   0.406718 0.815914 0.088573 0.309557
H1    H     H_    0.850446 0.604805 0.105027 0.111156
H2    H     H_    0.263285 0.493610 0.768890 0.223725
H3    H     H_    0.389050 0.190786 0.854579 0.054308
H4    H     H_    0.375470 0.128660 0.009900 0.215051
H5    H     H_    0.303364 0.177714 0.967462 0.214131
H6    H     H_    0.303467 0.085670 0.865772 0.280051
H7    H     H_    0.284477 0.045914 0.952381 0.279147
H8    H     H_    0.373009 0.035128 0.913007 0.271117
H9    H     H_    0.501397 0.803690 0.211043 0.097352
H10   H     H_    0.587415 0.772709 0.232129 0.109294
H11   H     H_    0.442547 0.686180 0.237313 0.185775
H12   H     H_    0.528153 0.644617 0.257874 0.194628
H13   H     H_    0.290410 0.399635 0.762829 0.186198
H14   H     H_    0.547493 0.733457 0.357921 0.271724
H15   H     H_    0.465179 0.681991 0.369055 0.278953
H16   H     H_    0.461119 0.775244 0.337811 0.258793
H17   H     H_    0.350446 0.104804 0.605028 0.111152
H18   H     H_    0.297213 0.157208 0.663356 0.095656
H19   H     H_    0.293202 0.152320 0.496703 0.243692
H20   H     H_    0.228445 0.204068 0.547852 0.200907
H21   H     H_    0.330223 0.275943 0.602269 0.282273
H22   H     H_    0.326427 0.283099 0.505400 0.279071
H23   H     H_    0.393298 0.225198 0.546498 0.275388
H24   H     H_    0.173424 0.366874 0.706464 0.269511
H25   H     H_    0.659379 0.959706 0.347318 0.124065
H26   H     H_    0.680747 0.866878 0.345372 0.077356
H27   H     H_    0.763280 0.993607 0.268893 0.223727
H28   H     H_    0.790402 0.899632 0.262830 0.186198
H29   H     H_    0.673411 0.866875 0.206471 0.269511
H30   H     H_    0.719955 0.936333 0.156199 0.286981
H31   H     H_    0.644133 0.961003 0.212382 0.261819
H32   H     H_    0.043773 0.649938 0.591168 0.122077
H33   H     H_    0.110951 0.690786 0.645418 0.054310
H34   H     H_    0.124536 0.628663 0.490096 0.215048
H35   H     H_    0.219966 0.436335 0.656194 0.286981
H36   H     H_    0.196638 0.677722 0.532534 0.214126
H37   H     H_    0.196541 0.585678 0.634223 0.280050
H38   H     H_    0.215536 0.545925 0.547614 0.279143
H39   H     H_    0.127004 0.535130 0.586985 0.271117
H40   H     H_    0.998650 0.303638 0.288926 0.097371
H41   H     H_    0.912631 0.272665 0.267823 0.109286
H42   H     H_    0.057470 0.186084 0.262735 0.185778
H43   H     H_    0.971856 0.144557 0.242137 0.194624
H44   H     H_    0.952617 0.233373 0.142055 0.271725
H45   H     H_    0.034920 0.181875 0.130984 0.278954
H46   H     H_    0.144141 0.461001 0.712375 0.261820
H47   H     H_    0.038993 0.275134 0.162209 0.258805
H48   H     H_    0.649554 0.895190 0.605022 0.111153
H49   H     H_    0.702788 0.842784 0.663346 0.095657
H50   H     H_    0.706795 0.847681 0.496694 0.243690
H51   H     H_    0.771559 0.795936 0.547837 0.200912
H52   H     H_    0.669792 0.724048 0.602254 0.282272
H53   H     H_    0.673581 0.716899 0.505384 0.279071
H54   H     H_    0.606708 0.774791 0.546491 0.275390
H55   H     H_    0.340625 0.040295 0.347329 0.124062
H56   H     H_    0.319257 0.133123 0.345384 0.077358
H57   H     H_    0.543773 0.149937 0.091167 0.122076
H58   H     H_    0.236731 0.006394 0.268896 0.223727
H59   H     H_    0.209606 0.100369 0.262834 0.186203
H60   H     H_    0.326601 0.133130 0.206484 0.269512
H61   H     H_    0.280061 0.063673 0.156206 0.286980
H62   H     H_    0.355880 0.039003 0.212394 0.261817
H63   H     H_    0.956229 0.350060 0.591171 0.122076
H64   H     H_    0.889052 0.309213 0.645423 0.054307
H65   H     H_    0.875463 0.371341 0.490103 0.215048
H66   H     H_    0.803361 0.322283 0.532542 0.214128
H67   H     H_    0.803465 0.414325 0.634235 0.280050
H68   H     H_    0.610950 0.190785 0.145418 0.054309
H69   H     H_    0.784471 0.454082 0.547627 0.279141
H70   H     H_    0.873004 0.464870 0.586998 0.271115
H71   H     H_    0.001383 0.696325 0.288949 0.097361
H72   H     H_    0.087402 0.727302 0.267857 0.109296
H73   H     H_    0.942546 0.813853 0.262707 0.185780
H74   H     H_    0.028156 0.855397 0.242126 0.194631
H75   H     H_    0.047449 0.766557 0.142072 0.271726
H76   H     H_    0.965144 0.818040 0.130960 0.278956
H77   H     H_    0.961072 0.724788 0.162204 0.258799
H78   H     H_    0.350448 0.895197 0.394981 0.111160
H79   H     H_    0.624537 0.128664 0.990095 0.215048
H80   H     H_    0.297221 0.842803 0.336638 0.095645
H81   H     H_    0.293192 0.847658 0.503294 0.243683
H82   H     H_    0.228448 0.795912 0.452126 0.200907
H83   H     H_    0.330242 0.724061 0.397707 0.282270
H84   H     H_    0.326432 0.716883 0.494575 0.279065
H85   H     H_    0.393303 0.774802 0.453499 0.275378
H86   H     H_    0.659372 0.040295 0.652664 0.124066
H87   H     H_    0.680741 0.133123 0.654611 0.077353
H88   H     H_    0.763263 0.006395 0.731102 0.223736
H89   H     H_    0.790386 0.100370 0.737166 0.186197
H90   H     H_    0.696639 0.177723 0.032533 0.214125
H91   H     H_    0.673388 0.133128 0.793509 0.269514
H92   H     H_    0.719927 0.063673 0.843790 0.286982
H93   H     H_    0.644112 0.038999 0.787599 0.261818
H94   H     H_    0.043770 0.350059 0.408824 0.122084
H95   H     H_    0.110952 0.309213 0.354579 0.054310
H96   H     H_    0.124529 0.371342 0.509899 0.215048
H97   H     H_    0.196635 0.322285 0.467465 0.214127
H98   H     H_    0.196536 0.414326 0.365773 0.280048
H99   H     H_    0.215526 0.454083 0.452381 0.279144
H100  H     H_    0.126995 0.464872 0.413006 0.271115
H101  H     H_    0.696541 0.085678 0.134222 0.280049
H102  H     H_    0.998616 0.696322 0.711047 0.097366
H103  H     H_    0.912597 0.727300 0.732140 0.109292
H104  H     H_    0.057454 0.813849 0.737293 0.185780
H105  H     H_    0.971845 0.855394 0.757875 0.194631
H106  H     H_    0.952550 0.766550 0.857926 0.271726
H107  H     H_    0.034855 0.818034 0.869040 0.278956
H108  H     H_    0.038928 0.724783 0.837794 0.258798
H109  H     H_    0.649553 0.104806 0.394981 0.111159
H110  H     H_    0.702782 0.157205 0.336645 0.095649
H111  H     H_    0.706805 0.152333 0.503299 0.243685
H112  H     H_    0.797214 0.657207 0.163356 0.095652
H113  H     H_    0.715536 0.045925 0.047613 0.279142
H114  H     H_    0.771556 0.204078 0.452141 0.200909
H115  H     H_    0.669773 0.275945 0.397725 0.282267
H116  H     H_    0.673574 0.283110 0.494594 0.279069
H117  H     H_    0.606703 0.225202 0.453503 0.275388
H118  H     H_    0.340631 0.959705 0.652654 0.124075
H119  H     H_    0.319267 0.866875 0.654596 0.077340
H120  H     H_    0.236725 0.993590 0.731093 0.223726
H121  H     H_    0.209635 0.899602 0.737166 0.186188
H122  H     H_    0.326664 0.866890 0.793496 0.269487
H123  H     H_    0.280093 0.936325 0.843781 0.286968
H124  H     H_    0.627004 0.035130 0.086984 0.271116
H125  H     H_    0.355896 0.961039 0.787584 0.261798
H126  H     H_    0.956235 0.649944 0.408824 0.122085
H127  H     H_    0.889053 0.690788 0.354576 0.054302
H128  H     H_    0.875472 0.628656 0.509895 0.215049
H129  H     H_    0.803364 0.677706 0.467456 0.214124
H130  H     H_    0.803479 0.585663 0.365763 0.280041
H131  H     H_    0.784486 0.545904 0.452370 0.279144
H132  H     H_    0.873022 0.535124 0.413002 0.271107
H133  H     H_    0.001404 0.303699 0.711038 0.097347
H134  H     H_    0.087423 0.272716 0.732122 0.109293
H135  H     H_    0.498636 0.803655 0.788938 0.097369
H136  H     H_    0.942547 0.186198 0.737321 0.185773
H137  H     H_    0.028151 0.144626 0.757875 0.194629
H138  H     H_    0.047511 0.233469 0.857917 0.271723
H139  H     H_    0.965193 0.182012 0.869062 0.278952
H140  H     H_    0.961138 0.275264 0.837816 0.258787
H141  H     H_    0.412617 0.772680 0.767838 0.109286
H142  H     H_    0.557464 0.686111 0.762728 0.185774
H143  H     H_    0.471851 0.644578 0.742133 0.194622
H144  H     H_    0.452594 0.733406 0.642063 0.271721
H145  H     H_    0.534899 0.681913 0.630977 0.278952
H146  H     H_    0.538972 0.775168 0.662211 0.258799
H147  H     H_    0.149554 0.395190 0.105022 0.111152
H148  H     H_    0.793200 0.652323 0.996703 0.243691
H149  H     H_    0.202790 0.342781 0.163343 0.095658
H150  H     H_    0.206792 0.347687 0.996691 0.243695
H151  H     H_    0.271560 0.295942 0.047830 0.200911
H152  H     H_    0.169798 0.224047 0.102245 0.282275
H153  H     H_    0.173582 0.216904 0.005374 0.279075
H154  H     H_    0.106709 0.274792 0.046488 0.275394
H155  H     H_    0.840626 0.540296 0.847330 0.124061
H156  H     H_    0.819257 0.633124 0.845385 0.077357
H157  H     H_    0.736733 0.506394 0.768895 0.223730
H158  H     H_    0.709607 0.600369 0.762834 0.186203
H159  H     H_    0.728445 0.704071 0.047855 0.200907
H160  H     H_    0.826601 0.633132 0.706486 0.269515
H161  H     H_    0.780063 0.563675 0.656207 0.286981
H162  H     H_    0.855882 0.539005 0.712395 0.261819
H163  H     H_    0.456230 0.850060 0.091172 0.122078
H164  H     H_    0.389052 0.809213 0.145422 0.054307
H165  H     H_    0.375465 0.871340 0.990102 0.215050
H166  H     H_    0.303362 0.822283 0.032541 0.214129
H167  H     H_    0.303465 0.914325 0.134233 0.280050
H168  H     H_    0.284472 0.954082 0.047625 0.279143
H169  H     H_    0.373005 0.964870 0.086996 0.271115
H170  H     H_    0.830225 0.775943 0.102271 0.282273
H171  H     H_    0.501381 0.196326 0.788949 0.097365
H172  H     H_    0.587400 0.227303 0.767856 0.109294
H173  H     H_    0.442544 0.313855 0.762708 0.185780
H174  H     H_    0.528154 0.355399 0.742127 0.194631
H175  H     H_    0.547446 0.266560 0.642071 0.271726
H176  H     H_    0.465139 0.318043 0.630962 0.278955
H177  H     H_    0.461069 0.224790 0.662204 0.258798
H178  H     H_    0.850448 0.395200 0.894978 0.111163
H179  H     H_    0.797220 0.342804 0.836638 0.095647
H180  H     H_    0.793192 0.347663 0.003292 0.243685
H181  H     H_    0.826428 0.783102 0.005402 0.279070
H182  H     H_    0.728451 0.295913 0.952126 0.200905
H183  H     H_    0.830249 0.224065 0.897710 0.282269
H184  H     H_    0.826439 0.216890 0.994577 0.279066
H185  H     H_    0.893307 0.274810 0.953500 0.275377
H186  H     H_    0.159373 0.540295 0.152667 0.124066
H187  H     H_    0.180742 0.633123 0.154613 0.077353
H188  H     H_    0.263265 0.506395 0.231103 0.223735
H189  H     H_    0.290389 0.600370 0.237166 0.186197
H190  H     H_    0.173392 0.633129 0.293512 0.269514
H191  H     H_    0.219931 0.563674 0.343791 0.286982
H192  H     H_    0.893298 0.725198 0.046498 0.275387
H193  H     H_    0.144115 0.539000 0.287602 0.261818
H194  H     H_    0.543771 0.850060 0.908827 0.122086
H195  H     H_    0.610951 0.809213 0.854580 0.054311
H196  H     H_    0.624531 0.871340 0.009901 0.215049
H197  H     H_    0.696636 0.822284 0.967464 0.214129
H198  H     H_    0.696537 0.914326 0.865773 0.280049
H199  H     H_    0.715527 0.954082 0.952382 0.279145
H200  H     H_    0.626996 0.964871 0.913008 0.271117
H201  H     H_    0.498615 0.196321 0.211047 0.097364
H202  H     H_    0.412597 0.227300 0.232139 0.109291
H203  H     H_    0.159382 0.459708 0.847310 0.124065
H204  H     H_    0.557456 0.313846 0.237294 0.185776
H205  H     H_    0.471847 0.355394 0.257873 0.194629
H206  H     H_    0.452547 0.266553 0.357926 0.271726
H207  H     H_    0.534855 0.318034 0.369040 0.278954
H208  H     H_    0.538923 0.224781 0.337796 0.258797
H209  H     H_    0.149553 0.604806 0.894979 0.111159
H210  H     H_    0.202784 0.657207 0.836647 0.095650
H211  H     H_    0.206801 0.652329 0.003301 0.243686
H212  H     H_    0.271554 0.704075 0.952146 0.200910
H213  H     H_    0.169773 0.775945 0.897730 0.282270
H214  H     H_    0.180750 0.366880 0.845365 0.077358
H215  H     H_    0.173571 0.783106 0.994599 0.279070
H216  H     H_    0.106701 0.725201 0.953504 0.275387
H217  H     H_    0.840627 0.459706 0.152666 0.124056
H218  H     H_    0.819263 0.366875 0.154604 0.077343
H219  H     H_    0.736725 0.493599 0.231102 0.223662
H220  H     H_    0.709613 0.399603 0.237164 0.186125
H221  H     H_    0.826641 0.366849 0.293510 0.269413
H222  H     H_    0.780076 0.436312 0.343789 0.286916
H223  H     H_    0.855910 0.461010 0.287602 0.261706
H224  H     H_    0.456231 0.149941 0.908827 0.122084
N1    N     N_R   0.623050 0.569880 0.071660 -0.127585
N2    N     N_R   0.376950 0.569880 0.071660 -0.131330
N3    N     N_R   0.569880 0.623050 0.928340 -0.130066
N4    N     N_R   0.430120 0.376950 0.071660 -0.119058
N5    N     N_R   0.376950 0.569880 0.928340 -0.127586
N6    N     N_R   0.623050 0.430120 0.071660 -0.131331
N7    N     N_R   0.430120 0.376950 0.928340 -0.130064
N8    N     N_R   0.569880 0.623050 0.071660 -0.119056
N9    N     N_R   0.123050 0.069880 0.571660 -0.127585
N10   N     N_R   0.876950 0.930120 0.428340 -0.131330
N11   N     N_R   0.069880 0.876950 0.571660 -0.130065
N12   N     N_R   0.376950 0.430120 0.928340 -0.131330
N13   N     N_R   0.930120 0.123050 0.428340 -0.119059
N14   N     N_R   0.876950 0.930120 0.571660 -0.127587
N15   N     N_R   0.123050 0.069880 0.428340 -0.131331
N16   N     N_R   0.930120 0.123050 0.571660 -0.130062
N17   N     N_R   0.069880 0.876950 0.428340 -0.119057
N18   N     N_R   0.123050 0.930120 0.428340 -0.127584
N19   N     N_R   0.876950 0.069880 0.571660 -0.131330
N20   N     N_R   0.069880 0.123050 0.428340 -0.130066
N21   N     N_R   0.930120 0.876950 0.571660 -0.119057
N22   N     N_R   0.876950 0.069880 0.428340 -0.127586
N23   N     N_R   0.569880 0.376950 0.071660 -0.130065
N24   N     N_R   0.123050 0.930120 0.571660 -0.131330
N25   N     N_R   0.930120 0.876950 0.428340 -0.130065
N26   N     N_R   0.069880 0.123050 0.571660 -0.119056
N27   N     N_R   0.430120 0.623050 0.928340 -0.119059
N28   N     N_R   0.376950 0.430120 0.071660 -0.127588
N29   N     N_R   0.623050 0.569880 0.928340 -0.131330
N30   N     N_R   0.430120 0.623050 0.071660 -0.130063
N31   N     N_R   0.569880 0.376950 0.928340 -0.119057
N32   N     N_R   0.623050 0.430120 0.928340 -0.127584
Ni1   Ni    Ni4+2 0.621940 0.500000 0.000000 0.259393
Ni2   Ni    Ni4+2 0.378060 0.500000 0.000000 0.259389
Ni3   Ni    Ni4+2 0.500000 0.378060 0.000000 0.270078
Ni4   Ni    Ni4+2 0.500000 0.621940 0.000000 0.270078
Ni5   Ni    Ni4+2 0.121940 0.000000 0.500000 0.259394
Ni6   Ni    Ni4+2 0.878060 0.000000 0.500000 0.259391
Ni7   Ni    Ni4+2 0.000000 0.878060 0.500000 0.270078
Ni8   Ni    Ni4+2 1.000000 0.121940 0.500000 0.270077
O1    O     O_3   0.745983 0.569513 0.110898 -0.615357
O2    O     O_3   0.250011 0.565571 0.095345 -0.609824
O3    O     O_3   0.574429 0.749976 0.945931 -0.597336
O4    O     O_3   0.458831 0.268320 0.137333 -0.636731
O5    O     O_3   0.254016 0.569515 0.889107 -0.615346
O6    O     O_3   0.749990 0.434427 0.095342 -0.609817
O7    O     O_3   0.425570 0.250024 0.945931 -0.597336
O8    O     O_3   0.541169 0.731680 0.137332 -0.636737
O9    O     O_3   0.245982 0.069513 0.610900 -0.615360
O10   O     O_3   0.750011 0.934428 0.404648 -0.609826
O11   O     O_3   0.074428 0.750024 0.554068 -0.597334
O12   O     O_3   0.250012 0.434429 0.904645 -0.609828
O13   O     O_3   0.958835 0.231673 0.362656 -0.636736
O14   O     O_3   0.754016 0.930484 0.610896 -0.615354
O15   O     O_3   0.249989 0.065572 0.404654 -0.609823
O16   O     O_3   0.925569 0.249976 0.554069 -0.597341
O17   O     O_3   0.041169 0.768320 0.362665 -0.636739
O18   O     O_3   0.245984 0.930486 0.389108 -0.615350
O19   O     O_3   0.750011 0.065571 0.595344 -0.609822
O20   O     O_3   0.074428 0.249976 0.445930 -0.597337
O21   O     O_3   0.958831 0.768320 0.637333 -0.636730
O22   O     O_3   0.754016 0.069515 0.389107 -0.615348
O23   O     O_3   0.574428 0.250024 0.054067 -0.597333
O24   O     O_3   0.249991 0.934427 0.595337 -0.609818
O25   O     O_3   0.925569 0.750025 0.445932 -0.597337
O26   O     O_3   0.041169 0.231681 0.637331 -0.636738
O27   O     O_3   0.458832 0.731677 0.862662 -0.636730
O28   O     O_3   0.254016 0.430484 0.110896 -0.615354
O29   O     O_3   0.749989 0.565573 0.904654 -0.609823
O30   O     O_3   0.425570 0.749976 0.054069 -0.597338
O31   O     O_3   0.541169 0.268320 0.862665 -0.636736
O32   O     O_3   0.745984 0.430487 0.889106 -0.615354

loop_
_geom_bond_atom_site_label_1
_geom_bond_atom_site_label_2
_ccdc_geom_bond_type
C73   H106  S    
C174  H157  S    
C157  C158  S    
C68   N8    A    
C101  O24   S    
C79   N9    A    
C132  C150  T    
C50   H52   S    
C19   C20   S    
C165  H124  S    
C52   H58   S    
C155  O31   S    
C21   H209  S    
C5    H171  S    
C34   O9    S    
C58   H71   S    
C172  H152  S    
C5    C6    S    
C74   H110  S    
C162  H24   S    
C126  C143  T    
C50   H53   S    
C30   H7    S    
C155  N31   A    
C14   H190  S    
C117  C132  S    
N25   Ni7   S    
C76   H115  S    
C77   H118  S    
C21   O5    S    
C78   H121  S    
C112  C155  A    
C4    H168  S    
C90   C116  A    
C85   H136  S    
C62   H82   S    
C79   O9    S    
C24   O4    S    
C34   H18   S    
C90   N13   A    
C59   C60   S    
C21   C22   S    
C30   H6    S    
C108  C124  S    
C57   N7    A    
C163  O23   S    
C80   H125  S    
C45   C47   S    
C11   H186  S    
C111  O27   S    
C71   H102  S    
C17   H199  S    
C18   H201  S    
C109  C133  A    
C51   C52   S    
C99   C116  A    
N31   Ni3   S    
C35   N5    A    
C166  O32   S    
C159  H192  S    
C102  C114  A    
C22   H211  S    
C104  C128  S    
N11   N24   A    
C59   H74   S    
C168  H142  S    
C90   O13   S    
C160  H214  S    
C7    H176  S    
C127  C145  T    
C92   N15   A    
C82   H129  S    
N32   Ni1   S    
C57   O7    S    
C158  C159  S    
C167  H141  S    
C113  C137  S    
N27   Ni4   S    
C131  C149  T    
C65   H88   S    
C68   O8    S    
C27   H222  S    
C47   H47   S    
C164  C165  S    
C67   O20   S    
C44   H40   S    
C91   O14   S    
C58   O17   S    
C72   C73   S    
C93   N16   A    
N3    N29   A    
C6    C7    S    
C69   H97   S    
C100  C106  A    
C33   H15   S    
C159  H170  S    
C102  N25   A    
C76   H117  S    
C32   C33   S    
C136  C153  T    
C88   O11   S    
C158  H159  S    
N10   Ni6   S    
C69   C70   S    
C19   H204  S    
C129  C147  T    
C35   C107  A    
C3    C176  S    
C44   O13   S    
C24   N4    A    
C95   N18   A    
N1    Ni1   S    
C13   N3    A    
C22   C23   S    
C89   N12   A    
C171  H151  S    
N16   Ni8   S    
C66   H91   S    
C38   O10   S    
C2    O2    S    
C20   H206  S    
C55   H66   S    
C25   H217  S    
C6    H173  S    
C87   N10   A    
C86   H139  S    
C85   C86   S    
C51   O15   S    
C36   C37   S    
C64   O19   S    
C175  H161  S    
C11   H187  S    
C38   C39   S    
C176  O30   S    
C170  C171  S    
C134  C151  T    
C135  C152  T    
C11   O2    S    
C92   C118  A    
C174  C175  S    
C112  C127  S    
C13   C109  A    
C67   H94   S    
C94   C120  A    
N3    Ni4   S    
N31   N32   A    
C2    N2    A    
C14   H193  S    
C9    C10   S    
C166  N32   A    
C118  C134  S    
C23   H215  S    
C133  O29   S    
C10   H184  S    
C25   H218  S    
C47   H45   S    
N19   Ni6   S    
C45   H42   S    
C173  H156  S    
C81   H127  S    
C84   H133  S    
C82   H128  S    
C157  H112  S    
C70   H100  S    
C51   H55   S    
N16   N19   A    
C53   H61   S    
C39   C40   S    
C10   H185  S    
C48   H48   S    
C25   C26   S    
C164  H90   S    
C71   H103  S    
C72   H104  S    
N8    Ni4   S    
C36   H20   S    
C29   C30   S    
N20   Ni8   S    
C63   H83   S    
C3    H165  S    
N7    Ni3   S    
C31   C32   S    
C160  H203  S    
N29   Ni1   S    
C31   H9    S    
C37   H22   S    
N15   Ni5   S    
C95   O18   S    
N14   Ni6   S    
C53   H60   S    
C175  H160  S    
C110  C126  S    
C8    H179  S    
C20   H208  S    
C25   O6    S    
C79   C113  A    
C38   H26   S    
C124  C141  T    
C77   O24   S    
C3    C4    S    
C54   O16   S    
C52   C53   S    
C174  H158  S    
C40   H29   S    
C32   H11   S    
N26   Ni8   S    
C107  C111  A    
C12   C14   S    
N13   N22   A    
C103  N26   A    
C27   H223  S    
C98   O21   S    
C28   H224  S    
C92   O15   S    
C47   H44   S    
C99   N22   A    
C121  C139  T    
C88   C115  A    
C58   H72   S    
C71   C72   S    
C69   H96   S    
C128  C146  T    
C83   H132  S    
C46   O6    S    
C46   C106  A    
C103  O26   S    
C12   H189  S    
N4    N28   A    
C50   H54   S    
C34   C36   S    
C114  C138  S    
C170  H147  S    
C76   H116  S    
C145  C152  S    
C23   H213  S    
C99   O22   S    
C93   O16   S    
N14   N21   A    
C26   H219  S    
C89   C105  A    
C72   H105  S    
C93   C119  A    
C39   H28   S    
C43   H38   S    
C15   O3    S    
C19   H205  S    
C115  C130  S    
C5    O31   S    
C173  O29   S    
C55   C56   S    
C169  H146  S    
C70   H98   S    
C39   H27   S    
C41   C42   S    
C96   C119  A    
N23   Ni3   S    
C176  H163  S    
C107  C123  S    
C65   H89   S    
C161  C162  S    
C15   H194  S    
C42   H36   S    
C94   O17   S    
C77   C78   S    
C26   C27   S    
C73   H108  S    
C17   H198  S    
C18   H202  S    
C28   C29   S    
C46   N6    A    
C54   H63   S    
C122  N28   A    
C85   H137  S    
C172  H153  S    
C64   H86   S    
C143  C153  S    
C162  H35   S    
C138  C156  T    
C159  H181  S    
N2    Ni2   S    
C96   O19   S    
C18   C19   S    
C74   O22   S    
C18   O4    S    
C80   H123  S    
C22   H212  S    
C54   C55   S    
N12   Ni2   S    
C158  H148  S    
C87   O10   S    
C16   C17   S    
C8    O32   S    
N9    N26   A    
C59   H73   S    
C60   H75   S    
C91   C117  A    
C24   C108  A    
C1    O1    S    
C49   H51   S    
C7    H175  S    
C42   H34   S    
C96   N19   A    
C173  H155  S    
C67   H95   S    
C73   H107  S    
C40   H31   S    
C167  O27   S    
C168  H143  S    
C75   H114  S    
C27   H221  S    
N17   N18   A    
C21   H210  S    
C64   H87   S    
C5    H172  S    
N21   Ni7   S    
C14   H191  S    
C84   C85   S    
N18   Ni5   S    
C167  C168  S    
C74   H109  S    
C58   C59   S    
C133  N29   A    
C139  C149  S    
C119  C135  S    
C33   H14   S    
C120  C136  S    
C81   O25   S    
C62   C63   S    
C163  H57   S    
C77   H119  S    
C1    N1    A    
C112  C166  A    
C4    H167  S    
C110  C144  A    
C62   H81   S    
N6    Ni1   S    
C34   H17   S    
C48   C49   S    
C157  O1    S    
N4    Ni3   S    
C42   C43   S    
C66   H92   S    
C44   C45   S    
C165  H113  S    
C56   H69   S    
C8    H178  S    
C2    C110  A    
C55   H65   S    
C17   H200  S    
C44   H41   S    
C68   C104  A    
C165  H101  S    
C6    H174  S    
C86   H140  S    
C95   C120  A    
C83   H130  S    
C160  O12   S    
C64   C65   S    
C142  C150  S    
C41   H32   S    
C66   H93   S    
C48   H49   S    
C60   H77   S    
C137  C154  T    
C78   C80   S    
C28   H3    S    
C167  H135  S    
N1    N8    A    
C88   N11   A    
C82   C83   S    
C12   H188  S    
N15   N20   A    
C161  H2    S    
C31   O8    S    
C52   H59   S    
C16   H197  S    
C101  N24   A    
C57   C105  A    
C171  C172  S    
C61   H78   S    
C61   O18   S    
C163  C164  S    
N22   Ni6   S    
C75   C76   S    
C97   N20   A    
C43   H39   S    
C81   H126  S    
C140  C148  S    
C84   H134  S    
C81   C82   S    
C173  C174  S    
C94   N17   A    
C29   H5    S    
C33   H16   S    
C103  C113  A    
C9    H180  S    
C122  O28   S    
C98   N21   A    
C97   O20   S    
C15   C16   S    
C28   O7    S    
N2    N30   A    
C106  C121  S    
C4    H169  S    
C97   C118  A    
C49   C50   S    
C147  C154  S    
C87   C114  A    
C7    H177  S    
C169  H144  S    
C78   H120  S    
C162  H46   S    
C8    C9    S    
C29   H4    S    
C102  O25   S    
N13   Ni8   S    
C37   H21   S    
C80   H122  S    
C41   H33   S    
C41   O11   S    
C144  O30   S    
C61   C62   S    
C63   H85   S    
C86   H138  S    
C111  N27   A    
C40   H30   S    
C74   C75   S    
C32   H12   S    
C130  C148  T    
C71   O21   S    
C170  O28   S    
C161  H13   S    
C175  H162  S    
C144  N30   A    
C105  C129  S    
C56   H70   S    
C123  C140  T    
C38   H25   S    
N10   N25   A    
C67   C69   S    
N17   Ni7   S    
C13   O3    S    
C15   H195  S    
C83   H131  S    
C125  C142  T    
C163  H68   S    
C157  H1    S    
N7    N12   A    
C1    C104  A    
C23   H216  S    
C100  N23   A    
C109  C125  S    
C10   H183  S    
C56   H67   S    
N9    Ni5   S    
N24   Ni5   S    
C61   H80   S    
C26   H220  S    
C45   H43   S    
C84   O26   S    
C75   H111  S    
C43   H37   S    
N30   Ni4   S    
C141  C151  S    
C98   C117  A    
N28   Ni2   S    
C168  C169  S    
C91   N14   A    
C169  H145  S    
C70   H99   S    
C51   H56   S    
N5    N27   A    
C30   H8    S    
C170  H149  S    
C176  H164  S    
C108  C122  A    
C9    H182  S    
C53   H62   S    
C11   C12   S    
C160  C161  S    
C36   H19   S    
C54   H64   S    
C35   O5    S    
C63   H84   S    
C3    H166  S    
C172  H154  S    
C89   O12   S    
C116  C131  S    
C101  C115  A    
N6    N23   A    
C16   H196  S    
C31   H10   S    
N5    Ni2   S    
C100  O23   S    
C171  H150  S    
C37   H23   S    
C164  H79   S    
C146  C156  S    
C20   H207  S    
C65   C66   S    
N11   Ni7   S    
C60   H76   S    
C49   H50   S    
C48   O14   S    
