data_mof_unit_68557.cif
_audit_creation_date              2012-12-11T14:22:48-0500
_audit_creation_method            fapswitch 2.2
_symmetry_space_group_name_H-M    P1
_symmetry_Int_Tables_number       1
_space_group_crystal_system       triclinic
_cell_length_a                    8.490868
_cell_length_b                    14.495354
_cell_length_c                    15.057663
_cell_angle_alpha                 94.956647
_cell_angle_beta                  98.916358
_cell_angle_gamma                 91.816949
_cell_volume                      1822.11092165

loop_
_atom_site_label
_atom_site_type_symbol
_atom_type_description
_atom_site_fract_x
_atom_site_fract_y
_atom_site_fract_z
_atom_type_partial_charge
Ba1   Ba    Ba6+2 0.142880 0.544780 0.454020 1.648019
Ba2   Ba    Ba6+2 0.667290 0.455210 0.545900 1.691662
C1    C     C_3   0.215725 0.771818 0.107143 0.155525
C2    C     C_3   0.324053 0.758728 0.196301 0.283375
C3    C     C_3   0.515519 0.741080 0.670421 0.320724
C4    C     C_3   0.494586 0.845610 0.691518 0.679841
C5    C     C_3   0.959655 0.212301 0.838208 0.688757
C6    C     C_3   0.881365 0.138315 0.888216 -0.180499
C7    C     C_3   0.455850 0.252352 0.802202 0.367263
C8    C     C_3   0.487997 0.224395 0.898971 0.298937
C9    C     C_R   0.010395 0.943337 0.548221 -0.009608
C10   C     C_R   0.822644 0.803985 0.498930 0.034959
C11   C     C_R   0.670104 0.772665 0.455247 -0.280978
C12   C     C_3   0.896446 0.795127 0.260715 0.370960
C13   C     C_R   0.557263 0.833885 0.420225 0.058008
C14   C     C_R   0.596292 0.929625 0.424370 0.006310
C15   C     C_R   0.753369 0.964169 0.460155 0.004910
C16   C     C_R   0.864055 0.902769 0.502691 -0.102550
C17   C     C_R   0.942987 0.100346 0.504541 -0.091550
C18   C     C_R   0.050119 0.040147 0.550579 -0.007522
C19   C     C_R   0.982755 0.199070 0.509181 0.081657
C20   C     C_R   0.131296 0.231153 0.558445 -0.289092
C21   C     C_R   0.244281 0.170321 0.595075 -0.085894
C22   C     C_R   0.198736 0.076352 0.597186 0.323875
C23   C     C_3   0.868268 0.896639 0.239797 0.248611
C24   C     C_R   0.799969 0.059363 0.456202 -0.025881
C25   C     C_R   0.252258 0.451278 0.771245 0.043719
C26   C     C_R   0.154868 0.426739 0.833253 0.093398
C27   C     C_R   0.208574 0.446362 0.925831 -0.130577
C28   C     C_R   0.355627 0.496028 0.957806 0.016231
C29   C     C_R   0.430601 0.539628 0.892598 0.385047
C30   C     C_R   0.390517 0.510051 0.800419 -0.031320
C31   C     C_R   0.588811 0.536994 0.085196 0.320303
C32   C     C_R   0.643147 0.568408 0.176625 -0.045703
C33   C     C_R   0.405000 0.496506 0.216970 0.113156
C34   C     C_3   0.743011 0.283582 0.261098 0.328722
C35   C     C_R   0.340106 0.481048 0.125176 -0.183140
C36   C     C_R   0.426866 0.506634 0.057290 0.036147
C37   C     C_R   0.545288 0.552611 0.241945 -0.305659
C38   C     C_3   0.771905 0.254244 0.162531 -0.046100
C39   C     C_3   0.975385 0.684951 0.734894 0.312413
C40   C     C_3   0.907417 0.722977 0.819894 0.293137
C41   C     C_3   0.333249 0.238943 0.310544 0.327230
C42   C     C_3   0.286665 0.144400 0.254341 0.310168
H1    H     H_    0.306001 0.685546 0.210414 0.071800
H2    H     H_    0.668547 0.276508 0.116005 0.056798
H3    H     H_    0.900954 0.623883 0.702775 0.106266
H4    H     H_    0.783210 0.739637 0.797344 0.080504
H5    H     H_    0.456209 0.237770 0.346686 -0.006167
H6    H     H_    0.089431 0.767941 0.116320 0.107259
H7    H     H_    0.267793 0.091900 0.300470 0.050855
H8    H     H_    0.634973 0.729260 0.651301 -0.135970
H9    H     H_    0.423304 0.716622 0.611639 0.045162
H10   H     H_    0.239792 0.841597 0.085476 0.084773
H11   H     H_    0.759502 0.918371 0.266971 0.061538
H12   H     H_    0.772239 0.106601 0.844844 0.102562
H13   H     H_    0.845929 0.172663 0.950006 0.082741
H14   H     H_    0.324413 0.250162 0.780139 -0.002854
H15   H     H_    0.504355 0.324573 0.802856 0.043978
H16   H     H_    0.617373 0.232951 0.923415 0.069243
H17   H     H_    0.020457 0.786705 0.291561 0.094790
H18   H     H_    0.635196 0.699922 0.452757 0.062543
H19   H     H_    0.165571 0.303093 0.558955 0.104945
H20   H     H_    0.094834 0.899257 0.582036 0.168167
H21   H     H_    0.727279 0.102521 0.413799 0.084180
H22   H     H_    0.131279 0.424568 0.971060 0.080366
H23   H     H_    0.225891 0.444052 0.108667 0.103280
H24   H     H_    0.822493 0.779815 0.312398 -0.077495
H25   H     H_    0.591584 0.569822 0.312731 0.080391
H26   H     H_    0.624585 0.255577 0.265140 0.015885
O1    O     O_2   0.113690 0.728200 0.532750 -0.457311
O2    O     O_3   0.317247 0.308021 0.250414 -0.661555
O3    O     O_3   0.859796 0.732503 0.182680 -0.615071
O4    O     O_2   0.696600 0.271740 0.467230 -0.483843
O5    O     O_3   0.938380 0.387880 0.459490 -0.475382
O6    O     O_3   0.484630 0.331100 0.627330 -0.499901
O7    O     O_3   0.854289 0.244501 0.324190 -0.652360
O8    O     O_3   0.389110 0.548970 0.605210 -0.497045
O9    O     O_3   0.904740 0.378630 0.670330 -0.413530
O10   O     O_2   0.841844 0.463823 0.821542 -0.405809
O11   O     O_3   0.857627 0.287895 0.829860 -0.613030
O12   O     O_3   0.871900 0.612110 0.540440 -0.487232
O13   O     O_3   0.421180 0.451020 0.394720 -0.501097
O14   O     O_2   0.662730 0.548230 0.717350 -0.436545
O15   O     O_3   0.495402 0.694715 0.746315 -0.623696
O16   O     O_2   0.570405 0.164887 0.575332 -0.457914
O17   O     O_3   0.531538 0.193264 0.744341 -0.639554
O18   O     O_3   0.325660 0.668890 0.372600 -0.479416
O19   O     O_2   0.233922 0.829584 0.432167 -0.467244
O20   O     O_3   0.982240 0.754464 0.676141 -0.686508
O21   O     O_3   0.281734 0.821087 0.265062 -0.659045
O22   O     O_2   0.147570 0.451710 0.282630 -0.482317
O23   O     O_3   0.905540 0.621350 0.329600 -0.486645
O24   O     O_2   0.977496 0.566000 0.170862 -0.499837
P1    P     P_3+3 0.947560 0.714050 0.560480 0.970076
P2    P     P_3+3 0.325150 0.423860 0.297970 0.956232
P3    P     P_3+3 0.848179 0.618847 0.214122 0.925349
P4    P     P_3+3 0.862730 0.285940 0.439440 0.970130
P5    P     P_3+3 0.944653 0.385599 0.789674 1.080229
P6    P     P_3+3 0.352408 0.787698 0.373389 0.938141
P7    P     P_3+3 0.483739 0.574642 0.718164 1.027535
P8    P     P_3+3 0.455531 0.213152 0.633039 0.959299
C43   C     C_3   0.775915 0.148170 0.141757 -0.278250
H27   H     H_    0.787253 0.111792 0.203791 0.161951
H28   H     H_    0.664729 0.120980 0.097509 0.073347
H29   H     H_    0.873650 0.127710 0.104366 0.165448
C44   C     C_3   0.918663 0.305299 0.138184 -0.322280
H30   H     H_    0.894512 0.379015 0.129363 0.137807
H31   H     H_    0.021227 0.302959 0.192393 0.193992
H32   H     H_    0.949970 0.274958 0.073602 0.078447
C45   C     C_3   0.141554 0.654946 0.761514 -0.279625
H33   H     H_    0.224958 0.715331 0.784851 0.152931
H34   H     H_    0.144452 0.610583 0.817509 0.083869
H35   H     H_    0.175216 0.617430 0.700850 0.085735
C46   C     C_3   0.998328 0.811242 0.868088 -0.383597
H36   H     H_    0.119246 0.795650 0.901116 0.186542
H37   H     H_    0.010169 0.863364 0.819590 0.129826
H38   H     H_    0.932543 0.841574 0.920979 0.100776
O25   O     O_3   0.906700 0.654793 0.880688 -0.691850
H39   H     H_    0.840170 0.677177 0.926110 0.341688
C47   C     C_3   0.230463 0.253985 0.382455 -0.242095
H40   H     H_    0.124097 0.289343 0.355080 0.137980
H41   H     H_    0.197904 0.186606 0.405240 -0.009882
H42   H     H_    0.297742 0.298973 0.440075 0.065076
O26   O     O_3   0.141545 0.147807 0.196245 -0.735704
H43   H     H_    0.162934 0.176998 0.141768 0.316053
C48   C     C_3   0.416614 0.110287 0.201326 -0.430779
H44   H     H_    0.438557 0.160915 0.152954 0.111483
H45   H     H_    0.528180 0.100924 0.248068 0.071860
H46   H     H_    0.377586 0.042430 0.162844 0.135214
C49   C     C_3   0.496755 0.778963 0.185525 -0.285521
H47   H     H_    0.517522 0.854001 0.179457 0.126455
H48   H     H_    0.574294 0.758309 0.245380 0.028580
H49   H     H_    0.527588 0.738873 0.124965 0.131305
O27   O     O_3   0.240661 0.704242 0.038932 -0.764935
H50   H     H_    0.177744 0.647583 0.047164 0.324401
C50   C     C_3   0.631165 0.892147 0.761598 -0.268648
H51   H     H_    0.632107 0.864431 0.828163 0.115610
H52   H     H_    0.747731 0.882511 0.738277 0.017586
H53   H     H_    0.614397 0.967743 0.770194 0.125297
O28   O     O_3   0.485433 0.888638 0.610965 -0.698464
H54   H     H_    0.595411 0.896630 0.597774 0.264788
O29   O     O_3   0.352720 0.858469 0.727109 -0.685629
H55   H     H_    0.264323 0.830558 0.681084 0.329276
C51   C     C_3   0.980300 0.169469 0.744602 -0.232360
H56   H     H_    0.039346 0.221344 0.710324 0.058577
H57   H     H_    0.057129 0.109255 0.749116 0.058020
H58   H     H_    0.862858 0.147581 0.703400 0.103677
O30   O     O_3   0.108932 0.241314 0.887751 -0.753754
H59   H     H_    0.091348 0.264959 0.949076 0.297721
C52   C     C_3   0.990616 0.061403 0.919236 -0.459525
H60   H     H_    0.923747 0.012516 0.954154 0.139683
H61   H     H_    0.030971 0.022086 0.861291 0.137569
H62   H     H_    0.095921 0.090529 0.967798 0.162464
O31   O     O_3   0.411158 0.284626 0.954355 -0.728000
H63   H     H_    0.439275 0.268013 0.017150 0.298426
C53   C     C_3   0.431065 0.123424 0.903223 -0.348335
H64   H     H_    0.438291 0.107116 0.974363 0.096196
H65   H     H_    0.306143 0.110659 0.868905 0.156628
H66   H     H_    0.506939 0.075305 0.869691 0.098277
C54   C     C_3   0.463309 0.992811 0.396577 -0.344428
H67   H     H_    0.491912 0.067677 0.410708 0.090458
H68   H     H_    0.422101 0.976207 0.323498 0.102570
H69   H     H_    0.363795 0.981635 0.434586 0.166819
O32   O     O_3   0.295703 0.018238 0.645674 -0.672390
H70   H     H_    0.364292 0.054652 0.696278 0.324874
O33   O     O_3   0.694047 0.525129 0.024254 -0.687113
H71   H     H_    0.777664 0.575441 0.037283 0.335090
O34   O     O_3   0.526240 0.619644 0.914968 -0.689905
H72   H     H_    0.494812 0.653097 0.969179 0.322739
O35   O     O_3   0.191669 0.433075 0.681645 -0.743950
H73   H     H_    0.281139 0.421381 0.649529 0.325307
C55   C     C_3   0.005353 0.963090 0.287714 -0.433297
H74   H     H_    0.038810 0.948713 0.359045 0.105250
H75   H     H_    0.111020 0.956097 0.253289 0.166165
H76   H     H_    0.969366 0.035729 0.287681 0.161072
O36   O     O_3   0.839724 0.905938 0.146509 -0.699089
H77   H     H_    0.941405 0.896993 0.122935 0.310746
C56   C     C_3   0.743122 0.387670 0.276951 -0.270610
H78   H     H_    0.681046 0.409177 0.334234 0.081940
H79   H     H_    0.865231 0.419574 0.289229 0.151480
H80   H     H_    0.678477 0.409133 0.214309 -0.012693

loop_
_geom_bond_atom_site_label_1
_geom_bond_atom_site_label_2
_ccdc_geom_bond_type
O35   H73   S    
C42   C48   S    
C53   H64   S    
O14   P7    D    
O23   P3    S    
O34   H72   S    
Ba2   O14   S    
C17   C18   A    
C13   P6    S    
C49   H49   S    
C6    H12   S    
C54   H67   S    
O15   P7    S    
O27   H50   S    
C9    C16   A    
O32   H70   S    
C33   P2    S    
C38   H2    S    
C50   H52   S    
Ba1   O1    S    
C15   C24   A    
O9    P5    S    
C26   C27   A    
C17   C19   A    
C35   C36   A    
C7    H14   S    
C34   O7    S    
C28   C29   A    
C1    H10   S    
C23   O36   S    
C40   O25   S    
C21   P8    S    
O1    P1    D    
O29   H55   S    
O22   P2    D    
C32   P3    S    
C53   H66   S    
C28   C36   S    
Ba1   Ba2   S    
C39   C40   S    
C52   H62   S    
C17   C24   A    
C47   H42   S    
Ba2   O9    S    
C51   H57   S    
C20   H19   S    
C5    O30   S    
C11   H18   S    
C18   C22   A    
C14   C15   A    
C46   H37   S    
C21   C22   A    
C3    H8    S    
O21   P6    S    
C45   H35   S    
C7    C8    S    
C41   C47   S    
Ba2   O4    S    
C45   H34   S    
C56   H80   S    
C3    O15   S    
Ba1   O18   S    
C39   O20   S    
C52   H60   S    
C53   H65   S    
C19   C20   A    
O8    P7    S    
Ba1   O8    S    
C44   H31   S    
Ba2   O13   S    
C31   O33   S    
C34   C56   S    
C54   H68   S    
C1    H6    S    
C34   H26   S    
C51   H56   S    
C2    C49   S    
C2    H1    S    
C55   H75   S    
O6    P8    S    
C42   O26   S    
C50   H53   S    
C9    C18   A    
O19   P6    D    
C32   C37   A    
Ba1   O5    S    
C12   O3    S    
O20   P1    S    
C6    C52   S    
O4    P4    D    
C9    H20   S    
O33   H71   S    
C41   H5    S    
O11   P5    S    
O24   P3    D    
Ba1   O12   S    
C55   H74   S    
C12   H17   S    
O5    P4    S    
C56   H78   S    
C7    H15   S    
C33   C37   A    
C41   C42   S    
C48   H45   S    
C27   C28   A    
Ba2   O8    S    
C6    H13   S    
O17   P8    S    
C29   C30   A    
C34   C38   S    
Ba1   P1    S    
C46   H38   S    
C25   C26   A    
C15   C16   A    
C39   H3    S    
O7    P4    S    
C43   H28   S    
C40   H4    S    
C4    O28   S    
C8    C53   S    
C47   H40   S    
O18   P6    S    
C38   C44   S    
C26   P5    S    
C5    O11   S    
O3    P3    S    
Ba1   O22   S    
C11   C13   A    
O10   P5    D    
O26   H43   S    
C44   H32   S    
Ba2   O12   S    
C10   P1    S    
C44   H30   S    
C1    C2    S    
O16   P8    D    
C25   O35   S    
C43   H27   S    
C54   H69   S    
Ba2   O6    S    
C51   H58   S    
C42   H7    S    
C55   H76   S    
C3    H9    S    
C41   O2    S    
C8    H16   S    
O12   P1    S    
C45   H33   S    
C33   C35   A    
C25   C30   A    
C20   C21   A    
C24   H21   S    
C23   H11   S    
C49   H48   S    
C8    O31   S    
O25   H39   S    
C48   H44   S    
C14   C54   S    
Ba1   O13   S    
C29   O34   S    
C50   H51   S    
C31   C36   A    
C2    O21   S    
C4    C50   S    
C22   O32   S    
C48   H46   S    
O30   H59   S    
C7    O17   S    
C38   C43   S    
C19   P4    S    
C46   H36   S    
C3    C4    S    
Ba1   P2    S    
O13   P2    S    
C35   H23   S    
C37   H25   S    
C31   C32   A    
C43   H29   S    
C1    O27   S    
C52   H61   S    
C12   C23   S    
C49   H47   S    
C47   H41   S    
C5    C6    S    
C27   H22   S    
O2    P2    S    
C23   C55   S    
C40   C46   S    
C10   C11   A    
Ba2   P4    S    
Ba1   O23   S    
O36   H77   S    
C39   C45   S    
C10   C16   A    
O31   H63   S    
C12   H24   S    
C30   P7    S    
C56   H79   S    
C4    O29   S    
O28   H54   S    
Ba2   O5    S    
C13   C14   A    
C5    C51   S    
