data_mof_unit_16031.cif
_audit_creation_date              2012-10-26T18:26:54-0400
_audit_creation_method            fapswitch 2.2
_symmetry_space_group_name_H-M    P1
_symmetry_Int_Tables_number       1
_space_group_crystal_system       triclinic
_cell_length_a                    15.044321
_cell_length_b                    10.927872
_cell_length_c                    9.730519
_cell_angle_alpha                 90.423812
_cell_angle_beta                  90.989878
_cell_angle_gamma                 90.75888
_cell_volume                      1599.29525752

loop_
_atom_site_label
_atom_site_type_symbol
_atom_type_description
_atom_site_fract_x
_atom_site_fract_y
_atom_site_fract_z
_atom_type_partial_charge
C1    C     C_R   0.497176 0.265664 0.499531 0.566317
C2    C     C_R   0.186938 0.398697 0.545740 0.085453
C3    C     C_R   0.233042 0.501250 0.496916 0.080268
C4    C     C_R   0.329331 0.500739 0.499009 0.600140
C5    C     C_R   0.187957 0.604832 0.449134 0.069860
C6    C     C_2   0.494902 0.932824 0.392504 -0.101905
C7    C     C_2   0.517129 0.866404 0.503529 0.079580
C8    C     C_2   0.503411 0.066239 0.389005 -0.110112
C9    C     C_2   0.486975 0.134279 0.500109 -0.066832
C10   C     C_2   0.465446 0.413920 0.921050 0.011125
C11   C     C_2   0.447116 0.431944 0.070997 0.348271
C12   C     C_R   0.906682 0.609229 0.453561 0.085261
C13   C     C_R   0.503402 0.734545 0.500657 0.533113
C14   C     C_R   0.670759 0.500631 0.500958 0.529811
C15   C     C_R   0.812730 0.607600 0.455901 0.082309
C16   C     C_R   0.767263 0.502857 0.502828 0.000741
C17   C     C_R   0.813197 0.399721 0.549275 0.059954
C18   C     C_R   0.906191 0.400389 0.548360 0.053998
C19   C     C_R   0.953197 0.504409 0.500239 -0.023969
C20   C     C_R   0.953105 0.298021 0.594508 -0.097146
C21   C     C_R   0.045162 0.297275 0.593835 -0.137055
C22   C     C_R   0.093383 0.398821 0.546518 0.024633
C23   C     C_R   0.047149 0.503045 0.499009 0.004345
C24   C     C_R   0.094776 0.605844 0.450581 0.038040
C25   C     C_R   0.048561 0.708468 0.404825 -0.107533
C26   C     C_R   0.955984 0.711673 0.405829 0.105839
Cu1   Cu    Cu3+1 0.500020 0.500020 0.638630 0.959807
Cu2   Cu    Cu3+1 0.499980 0.499980 0.361370 1.020396
H1    H     H_    0.520048 0.108607 0.291959 0.155559
H2    H     H_    0.723314 0.689184 0.327959 0.249533
H3    H     H_    0.722572 0.740289 0.493665 0.224208
H4    H     H_    0.522693 0.902959 0.707988 0.239593
H5    H     H_    0.622358 0.878748 0.635772 0.235821
H6    H     H_    0.239806 0.257760 0.021622 0.367373
H7    H     H_    0.722681 0.262380 0.515613 0.240247
H8    H     H_    0.728209 0.315978 0.680089 0.257529
H9    H     H_    0.221742 0.278595 0.695305 0.252141
H10   H     H_    0.218479 0.218644 0.532758 0.238906
H11   H     H_    0.279734 0.740715 0.481391 0.224537
H12   H     H_    0.463627 0.093485 0.594363 0.145260
H13   H     H_    0.273792 0.685885 0.317570 0.277034
H14   H     H_    0.932491 0.834845 0.255755 0.232683
H15   H     H_    0.936443 0.894265 0.416911 0.230151
H16   H     H_    0.440254 0.331915 0.869730 0.198006
H17   H     H_    0.515399 0.580021 0.895706 0.203663
H18   H     H_    0.556801 0.531085 0.110417 0.172437
H19   H     H_    0.918946 0.217343 0.631886 0.160497
H20   H     H_    0.077808 0.215994 0.630828 0.113131
H21   H     H_    0.084014 0.788142 0.367422 0.159290
H22   H     H_    0.469957 0.888071 0.299228 0.132497
N1    N     N_2   0.499020 0.498660 0.846910 -0.382572
N2    N     N_2   0.499000 0.498630 0.153040 -0.358932
N3    N     N_3   0.763188 0.712767 0.413320 -0.569976
N4    N     N_3   0.561016 0.921128 0.621680 -0.639732
N5    N     N_3   0.765735 0.292656 0.594638 -0.640461
N6    N     N_3   0.236711 0.295109 0.592523 -0.603324
N7    N     N_3   0.236402 0.710628 0.402645 -0.644056
N8    N     N_3   0.913398 0.820077 0.357189 -0.574890
O1    O     O_R   0.500020 0.321960 0.617040 -0.505838
O2    O     O_2   0.280101 0.467910 0.151266 -0.285363
O3    O     O_3   0.300066 0.281594 0.991224 -0.570109
O4    O     O_R   0.499980 0.321920 0.382900 -0.456132
O5    O     O_R   0.370270 0.499990 0.617090 -0.476472
O6    O     O_R   0.370240 0.499950 0.382940 -0.419236
O7    O     O_R   0.500020 0.678080 0.617100 -0.506950
O8    O     O_R   0.499980 0.678040 0.382960 -0.521299
O9    O     O_R   0.629760 0.500050 0.617060 -0.500634
O10   O     O_R   0.629730 0.500010 0.382910 -0.518846
O11   O     O_2   0.353400 0.285874 0.244254 -0.264556
S1    S     S_3+6 0.343760 0.366714 0.121131 0.034571

loop_
_geom_bond_atom_site_label_1
_geom_bond_atom_site_label_2
_ccdc_geom_bond_type
O3    S1    S    
C2    C22   A    
Cu2   O8    S    
C14   O9    A    
C6    C7    D    
Cu1   O7    S    
C5    N7    S    
Cu2   N2    S    
C17   N5    S    
C19   C23   A    
H15   N8    S    
C12   C15   A    
O2    S1    D    
C23   C24   A    
C21   H20   S    
C1    O4    A    
H14   N8    S    
C2    C3    A    
C11   S1    S    
H13   N7    S    
H8    N5    S    
Cu1   O1    S    
C21   C22   A    
C20   C21   A    
C26   N8    S    
C4    O5    A    
C5    C24   A    
Cu1   O5    S    
H5    N4    S    
H17   N1    S    
C6    C8    S    
C10   N1    D    
C15   N3    S    
C12   C19   A    
H4    N4    S    
Cu2   O10   S    
Cu1   N1    S    
C17   C18   A    
C18   C20   A    
C13   O8    A    
C1    O1    A    
C14   O10   A    
O11   S1    D    
C13   O7    A    
H2    N3    S    
C14   C16   S    
H3    N3    S    
C20   H19   S    
Cu1   O9    S    
C10   C11   S    
C8    H1    S    
C10   H16   S    
C3    C4    S    
H11   N7    S    
C1    C9    S    
H18   N2    S    
C7    C13   S    
H10   N6    S    
C24   C25   A    
Cu2   O6    S    
C18   C19   A    
H6    O3    S    
Cu1   Cu2   S    
C4    O6    A    
C22   C23   A    
C8    C9    D    
C2    N6    S    
C11   N2    D    
C7    N4    S    
C25   C26   A    
H9    N6    S    
H7    N5    S    
C9    H12   S    
C6    H22   S    
C15   C16   A    
C12   C26   A    
C16   C17   A    
C3    C5    A    
C25   H21   S    
Cu2   O4    S    
