data_mof_unit_67971.cif
_audit_creation_date              2012-12-10T20:52:09-0500
_audit_creation_method            fapswitch 2.2
_symmetry_space_group_name_H-M    P1
_symmetry_Int_Tables_number       1
_space_group_crystal_system       triclinic
_cell_length_a                    10.687028
_cell_length_b                    8.905174
_cell_length_c                    8.111771
_cell_angle_alpha                 89.869099
_cell_angle_beta                  89.769572
_cell_angle_gamma                 89.862169
_cell_volume                      771.985504958

loop_
_atom_site_label
_atom_site_type_symbol
_atom_type_description
_atom_site_fract_x
_atom_site_fract_y
_atom_site_fract_z
_atom_type_partial_charge
C1    C     C_R   0.499895 0.218059 0.500091 0.931402
C2    C     C_R   0.500104 0.781941 0.499909 0.931404
C3    C     C_R   0.872436 0.504456 0.501205 -0.078829
C4    C     C_R   0.127564 0.495544 0.498794 -0.078832
C5    C     C_R   0.937968 0.594977 0.613281 0.043624
C6    C     C_R   0.062032 0.405025 0.386716 0.043618
C7    C     C_1   0.499955 0.065254 0.500153 -0.200120
C8    C     C_1   0.500045 0.934746 0.499846 -0.200119
C9    C     C_R   0.259675 0.496424 0.499874 0.873230
C10   C     C_R   0.740325 0.503576 0.500126 0.873231
C11   C     C_R   0.225393 0.241051 0.010625 -0.173429
C12   C     C_R   0.774605 0.758976 0.989355 -0.173423
C13   C     C_R   0.168309 0.345336 0.115955 0.375656
C14   C     C_R   0.831686 0.654683 0.884033 0.375660
C15   C     C_R   0.124360 0.298732 0.272271 0.058592
C16   C     C_R   0.875641 0.701278 0.727718 0.058588
C17   C     C_R   0.138227 0.147938 0.319949 -0.249912
C18   C     C_R   0.861785 0.852070 0.680033 -0.249915
C19   C     C_R   0.195559 0.044841 0.214015 -0.095504
C20   C     C_R   0.804458 0.955176 0.785961 -0.095515
C21   C     C_R   0.238947 0.091310 0.059493 -0.141568
C22   C     C_R   0.761062 0.908716 0.940481 -0.141569
C23   C     C_R   0.933423 0.409923 0.390085 -0.185886
C24   C     C_R   0.066577 0.590078 0.609913 -0.185885
H1    H     H_    0.283364 0.011297 0.977641 0.160719
H2    H     H_    0.716649 0.988735 0.022328 0.160723
H3    H     H_    0.259907 0.276186 0.890992 0.171292
H4    H     H_    0.740086 0.723850 0.108988 0.171286
H5    H     H_    0.104771 0.110438 0.439362 0.146883
H6    H     H_    0.895249 0.889564 0.560622 0.146889
H7    H     H_    0.206310 0.928831 0.251729 0.166933
H8    H     H_    0.793718 0.071185 0.748243 0.166931
H9    H     H_    0.880605 0.337933 0.308211 0.185539
H10   H     H_    0.119395 0.662070 0.691786 0.185540
N1    N     N_1   0.500020 0.500030 0.073640 -0.006424
N2    N     N_1   0.499980 0.499970 0.926360 -0.006426
O1    O     O_R   0.499990 0.285340 0.636850 -0.622515
O2    O     O_R   0.500010 0.714660 0.363150 -0.622514
O3    O     O_R   0.500010 0.285350 0.363100 -0.611246
O4    O     O_R   0.499990 0.714650 0.636900 -0.611246
O5    O     O_R   0.316750 0.500000 0.636870 -0.617464
O6    O     O_R   0.683250 0.500000 0.363130 -0.617455
O7    O     O_R   0.316770 0.500020 0.363120 -0.599096
O8    O     O_R   0.683230 0.499980 0.636880 -0.599096
Zn1   Zn    Zn3+2 0.499990 0.499990 0.682780 1.003181
Zn2   Zn    Zn3+2 0.500010 0.500010 0.317220 1.003185
Br1   Br    Br    0.157033 0.550817 0.045023 -0.535061
Br2   Br    Br    0.842955 0.449207 0.954980 -0.535056

loop_
_geom_bond_atom_site_label_1
_geom_bond_atom_site_label_2
_ccdc_geom_bond_type
C18   H6    S    
C12   C22   A    
C10   O6    A    
C17   H5    S    
C2    O2    A    
C9    O5    A    
N1    N2    T    
C11   H3    S    
C19   H7    S    
C4    C9    S    
N2    Zn1   S    
C3    C10   S    
C11   C13   A    
C5    C24   A    
O6    Zn2   S    
C12   H4    S    
O3    Zn2   S    
C6    C23   A    
C4    C6    A    
C13   Br1   S    
C19   C21   A    
C12   C14   A    
C18   C20   A    
C13   C15   A    
C22   H2    S    
O4    Zn1   S    
C4    C24   A    
O7    Zn2   S    
C14   C16   A    
O2    Zn2   S    
C9    O7    A    
C1    O3    A    
C10   O8    A    
C2    O4    A    
C7    C8    T    
O8    Zn1   S    
C23   H9    S    
C16   C18   A    
C21   H1    S    
C20   H8    S    
C15   C17   A    
C3    C23   A    
O5    Zn1   S    
C5    C16   S    
C14   Br2   S    
C17   C19   A    
C6    C15   S    
C1    C7    S    
N1    Zn2   S    
O1    Zn1   S    
C11   C21   A    
C2    C8    S    
C20   C22   A    
C1    O1    A    
C3    C5    A    
C24   H10   S    
