data_mof_unit_6671.cif
_audit_creation_date              2013-03-05T15:40:28-0500
_audit_creation_method            fapswitch 2.2
_symmetry_space_group_name_H-M    P1
_symmetry_Int_Tables_number       1
_space_group_crystal_system       triclinic
_cell_length_a                    18.953751
_cell_length_b                    10.93115
_cell_length_c                    18.839011
_cell_angle_alpha                 90.076945
_cell_angle_beta                  89.558458
_cell_angle_gamma                 90.318648
_cell_volume                      3903.00533533

loop_
_atom_site_label
_atom_site_type_symbol
_atom_site_description
_atom_site_fract_x
_atom_site_fract_y
_atom_site_fract_z
_atom_type_partial_charge
O1    O     O_R   0.215090 0.709860 0.828130 -0.528269
O2    O     O_R   0.784910 0.709860 0.171870 -0.511993
O3    O     O_R   0.715090 0.209860 0.828130 -0.521347
O4    O     O_R   0.284910 0.209860 0.171870 -0.518444
O5    O     O_R   0.236990 0.958390 0.823710 -0.484360
O6    O     O_R   0.763010 0.958390 0.176290 -0.506641
O7    O     O_R   0.736990 0.458390 0.823710 -0.495156
O8    O     O_R   0.263010 0.458390 0.176290 -0.491417
C1    C     C_R   0.287774 0.003061 0.861496 0.564499
C2    C     C_R   0.727646 0.041951 0.146275 0.563032
C3    C     C_R   0.771322 0.545598 0.851914 0.561114
C4    C     C_R   0.227754 0.542326 0.146432 0.569478
O9    O     O_R   0.332380 0.074750 0.830850 -0.500597
O10   O     O_R   0.667620 0.074750 0.169150 -0.502575
O11   O     O_R   0.832380 0.574750 0.830850 -0.510925
O12   O     O_R   0.167620 0.574750 0.169150 -0.504032
O13   O     O_R   0.445800 0.917770 0.825070 -0.529004
O14   O     O_R   0.554200 0.917770 0.174930 -0.508370
O15   O     O_R   0.945800 0.417770 0.825070 -0.512565
O16   O     O_R   0.054200 0.417770 0.174930 -0.507843
C5    C     C_R   0.470866 0.822315 0.853669 0.525005
C6    C     C_R   0.528120 0.822257 0.147123 0.544277
C7    C     C_R   0.971145 0.322307 0.853442 0.537631
C8    C     C_R   0.028402 0.322268 0.146917 0.553616
O17   O     O_R   0.456410 0.716580 0.829970 -0.524910
O18   O     O_R   0.543590 0.716580 0.170030 -0.522983
O19   O     O_R   0.956410 0.216580 0.829970 -0.524126
O20   O     O_R   0.043590 0.216580 0.170030 -0.513150
O21   O     O_R   0.321080 0.625290 0.822650 -0.492153
O22   O     O_R   0.678920 0.625290 0.177350 -0.480602
O23   O     O_R   0.821080 0.125290 0.822650 -0.498659
O24   O     O_R   0.178920 0.125290 0.177350 -0.490536
C9    C     C_R   0.260803 0.636550 0.851627 0.549369
C10   C     C_R   0.727531 0.679605 0.140371 0.560021
C11   C     C_R   0.760695 0.136191 0.851475 0.548533
C12   C     C_R   0.240228 0.132907 0.150161 0.560997
O25   O     O_R   0.214930 0.711450 0.668160 -0.537257
O26   O     O_R   0.785070 0.711450 0.331840 -0.515127
O27   O     O_R   0.714930 0.211450 0.668160 -0.517410
O28   O     O_R   0.285070 0.211450 0.331840 -0.518879
O29   O     O_R   0.236850 0.959870 0.675420 -0.497857
O30   O     O_R   0.763150 0.959870 0.324580 -0.463680
O31   O     O_R   0.736850 0.459870 0.675420 -0.503056
O32   O     O_R   0.263150 0.459870 0.324580 -0.487037
C13   C     C_R   0.291561 0.998142 0.640255 0.580825
C14   C     C_R   0.704724 0.990791 0.357629 0.572315
C15   C     C_R   0.791868 0.497421 0.640427 0.580583
C16   C     C_R   0.208328 0.498620 0.359541 0.535449
O33   O     O_R   0.332230 0.076350 0.670880 -0.424930
O34   O     O_R   0.667770 0.076350 0.329120 -0.419270
O35   O     O_R   0.832230 0.576350 0.670880 -0.457763
O36   O     O_R   0.167770 0.576350 0.329120 -0.424924
O37   O     O_R   0.445660 0.919250 0.676780 -0.472984
O38   O     O_R   0.554340 0.919250 0.323220 -0.463870
O39   O     O_R   0.945660 0.419250 0.676780 -0.470286
O40   O     O_R   0.054340 0.419250 0.323220 -0.478782
C17   C     C_R   0.473483 0.824070 0.649631 0.564733
C18   C     C_R   0.562462 0.819561 0.359752 0.535991
C19   C     C_R   0.973330 0.324031 0.649541 0.573423
C20   C     C_R   0.062644 0.319534 0.359733 0.535976
O41   O     O_R   0.456260 0.718170 0.670000 -0.503687
O42   O     O_R   0.543740 0.718170 0.330000 -0.470509
O43   O     O_R   0.956260 0.218170 0.670000 -0.493340
O44   O     O_R   0.043740 0.218170 0.330000 -0.463806
O45   O     O_R   0.320940 0.626760 0.674370 -0.457543
O46   O     O_R   0.679060 0.626760 0.325630 -0.499349
O47   O     O_R   0.820940 0.126760 0.674370 -0.462765
O48   O     O_R   0.179060 0.126760 0.325630 -0.501091
C21   C     C_R   0.259277 0.634128 0.648234 0.586995
C22   C     C_R   0.740757 0.632429 0.350770 0.570911
C23   C     C_R   0.760798 0.135959 0.646119 0.565146
C24   C     C_R   0.240843 0.132130 0.350502 0.571986
Cr1   Cr    Cr6+3 0.230530 0.836340 0.748870 1.041606
Cr2   Cr    Cr6+3 0.769470 0.836340 0.251130 1.053998
Cr3   Cr    Cr6+3 0.730530 0.336340 0.748870 1.043295
Cr4   Cr    Cr6+3 0.269470 0.336340 0.251130 1.050471
Cr5   Cr    Cr6+3 0.387420 0.989430 0.750820 1.074631
Cr6   Cr    Cr6+3 0.612580 0.989430 0.249180 1.083056
Cr7   Cr    Cr6+3 0.887420 0.489430 0.750820 1.077904
Cr8   Cr    Cr6+3 0.112580 0.489430 0.249180 1.085635
Cr9   Cr    Cr6+3 0.385640 0.677860 0.749230 1.057549
Cr10  Cr    Cr6+3 0.614360 0.677860 0.250770 1.056811
Cr11  Cr    Cr6+3 0.885640 0.177860 0.749230 1.061820
Cr12  Cr    Cr6+3 0.114360 0.177860 0.250770 1.067108
O49   O     O_3   0.334530 0.834540 0.749640 -0.305218
O50   O     O_3   0.665470 0.834540 0.250360 -0.343637
O51   O     O_3   0.834530 0.334540 0.749640 -0.283835
O52   O     O_3   0.165470 0.334540 0.250360 -0.316126
H1    H     H_    0.490048 0.632383 0.939528 0.139095
H2    H     H_    0.493372 0.633652 0.064746 0.138915
H3    H     H_    0.991855 0.132263 0.938876 0.140771
H4    H     H_    0.995821 0.133474 0.063998 0.142169
C25   C     C_R   0.498625 0.831359 0.075624 0.001080
C26   C     C_R   0.496439 0.830230 0.926794 0.003750
C27   C     C_R   0.999974 0.331365 0.074989 0.002298
C28   C     C_R   0.997646 0.330144 0.926185 0.005937
C29   C     C_R   0.496467 0.944310 0.038441 0.021437
C30   C     C_R   0.502293 0.943447 0.963384 0.019219
C31   C     C_R   0.998113 0.444384 0.037716 0.023447
C32   C     C_R   0.003894 0.443310 0.962661 0.023350
C33   C     C_R   0.494239 0.720714 0.965367 -0.153797
C34   C     C_R   0.493698 0.721425 0.038054 -0.160686
C35   C     C_R   0.996021 0.220606 0.964715 -0.148235
C36   C     C_R   0.995771 0.221313 0.037376 -0.150335
C37   C     C_R   0.488981 0.057902 0.073666 -0.085790
C38   C     C_R   0.513685 0.055655 0.927666 -0.090947
C39   C     C_R   0.991000 0.558269 0.072758 -0.077318
C40   C     C_R   0.015609 0.555226 0.926751 -0.085610
C41   C     C_R   0.998524 0.667856 0.035611 -0.126800
C42   C     C_R   0.013052 0.666214 0.963174 -0.129516
C43   C     C_R   0.495919 0.167696 0.036645 -0.126572
C44   C     C_R   0.510498 0.166484 0.964214 -0.127466
H5    H     H_    0.476005 0.063127 0.129562 0.142310
H6    H     H_    0.526762 0.058979 0.871757 0.135788
H7    H     H_    0.977885 0.564031 0.128593 0.145260
H8    H     H_    0.028455 0.558074 0.870770 0.137147
H9    H     H_    0.993969 0.754312 0.063321 0.113355
H10   H     H_    0.021297 0.751299 0.934881 0.113798
H11   H     H_    0.490961 0.253983 0.064460 0.115552
H12   H     H_    0.518384 0.251774 0.936030 0.113594
C45   C     C_2   0.248571 0.581081 0.920917 -0.108888
C46   C     C_2   0.736851 0.636088 0.068042 -0.107197
C47   C     C_2   0.748074 0.079650 0.920421 -0.112603
C48   C     C_2   0.258283 0.061897 0.087281 -0.107105
C49   C     C_2   0.250549 0.586817 0.077122 -0.103697
C50   C     C_2   0.744184 0.606606 0.914919 -0.107434
C51   C     C_2   0.750194 0.085263 0.076638 -0.099452
C52   C     C_2   0.269776 0.037224 0.933948 -0.100534
C53   C     C_2   0.294525 0.520240 0.036624 -0.165069
C54   C     C_2   0.692978 0.557086 0.955184 -0.161435
C55   C     C_2   0.793453 0.017356 0.036048 -0.171231
C56   C     C_2   0.224701 0.970988 0.973834 -0.171680
C57   C     C_2   0.303243 0.545481 0.960760 -0.158324
C58   C     C_2   0.682110 0.598047 0.028725 -0.163221
C59   C     C_2   0.802429 0.042510 0.960193 -0.162688
C60   C     C_2   0.208925 0.007371 0.047414 -0.159625
H13   H     H_    0.323557 0.443917 0.058625 0.154019
H14   H     H_    0.661912 0.480042 0.936259 0.149099
H15   H     H_    0.821916 0.940377 0.058047 0.148033
H16   H     H_    0.196135 0.893992 0.951223 0.148258
H17   H     H_    0.355922 0.537261 0.938209 0.153305
H18   H     H_    0.629661 0.589991 0.051859 0.152149
H19   H     H_    0.855098 0.033583 0.937706 0.153129
H20   H     H_    0.155033 0.997117 0.066618 0.151365
H21   H     H_    0.223250 0.665111 0.055064 0.111797
H22   H     H_    0.772902 0.687011 0.932978 0.109907
H23   H     H_    0.723332 0.163963 0.054549 0.118380
H24   H     H_    0.295980 0.117541 0.955598 0.119710
H25   H     H_    0.195649 0.585480 0.943415 0.112045
H26   H     H_    0.790063 0.638260 0.046165 0.115367
H27   H     H_    0.695147 0.084572 0.942871 0.113216
H28   H     H_    0.312753 0.066764 0.068970 0.110215
C61   C     C_2   0.520551 0.836009 0.588242 -0.104775
C62   C     C_2   0.544114 0.827109 0.434441 -0.087078
C63   C     C_2   0.020233 0.336066 0.588137 -0.075720
C64   C     C_2   0.043797 0.326713 0.434243 -0.069920
C65   C     C_2   0.568631 0.743133 0.479614 -0.180254
C66   C     C_2   0.543126 0.736679 0.553129 -0.147149
C67   C     C_2   0.069749 0.244776 0.479870 -0.144449
C68   C     C_2   0.043424 0.237156 0.553076 -0.110761
H29   H     H_    0.601495 0.668936 0.460130 0.159644
H30   H     H_    0.536695 0.645903 0.575738 0.190592
H31   H     H_    0.104568 0.172877 0.460949 0.155248
H32   H     H_    0.037359 0.146230 0.575574 0.190598
H33   H     H_    0.508667 0.898966 0.451806 0.186447
H34   H     H_    0.532181 0.926631 0.567934 0.157926
H35   H     H_    0.005587 0.394688 0.450793 0.187942
H36   H     H_    0.031427 0.426665 0.567922 0.189963
C69   C     C_2   0.239419 0.566751 0.586314 0.116672
C70   C     C_2   0.757654 0.569184 0.414359 0.118987
C71   C     C_2   0.751121 0.080011 0.577188 0.143001
C72   C     C_2   0.257352 0.070329 0.414461 0.117289
C73   C     C_2   0.221532 0.525822 0.432501 -0.085901
C74   C     C_2   0.777402 0.523362 0.567668 -0.080916
C75   C     C_2   0.704593 0.984716 0.434945 -0.096347
C76   C     C_2   0.276058 0.025942 0.567983 -0.074862
C77   C     C_2   0.174477 0.582896 0.474134 0.182877
C78   C     C_2   0.818790 0.594501 0.527191 0.189045
C79   C     C_2   0.667611 0.058726 0.478789 0.188643
C80   C     C_2   0.317093 0.096819 0.527038 0.221311
C81   C     C_2   0.199358 0.628804 0.540335 -0.082831
C82   C     C_2   0.788837 0.639399 0.463347 -0.132072
C83   C     C_2   0.685010 0.061145 0.554214 -0.131360
C84   C     C_2   0.285737 0.142512 0.464079 -0.104988
H37   H     H_    0.186438 0.724634 0.549134 0.177545
H38   H     H_    0.795246 0.737146 0.455342 0.158773
H39   H     H_    0.640939 0.073889 0.590748 0.139845
H40   H     H_    0.288941 0.241214 0.456860 0.173414
H41   H     H_    0.273637 0.503205 0.452194 0.146207
H42   H     H_    0.726116 0.493343 0.548448 0.135911
H43   H     H_    0.739826 0.918311 0.457931 0.093427
H44   H     H_    0.224221 0.997337 0.549361 0.116726
N1    N     N_R   0.109182 0.632475 0.448825 0.099930
O53   O     O_R   0.051203 0.602923 0.481766 -0.309116
O54   O     O_R   0.110573 0.735423 0.414190 -0.241477
N2    N     N_R   0.884239 0.648135 0.550365 0.127662
O55   O     O_R   0.898154 0.762793 0.537498 -0.267809
O56   O     O_R   0.934801 0.578329 0.571820 -0.297413
N3    N     N_R   0.615666 0.145024 0.454987 0.130786
O57   O     O_R   0.612479 0.252204 0.484946 -0.257050
O58   O     O_R   0.562092 0.108376 0.417810 -0.299830
N4    N     N_R   0.384690 0.145345 0.547606 0.136511
O59   O     O_R   0.402254 0.256846 0.530615 -0.256451
O60   O     O_R   0.434012 0.071242 0.567039 -0.334594
Br1   Br    Br    0.254870 0.393462 0.584248 -0.517947
Br2   Br    Br    0.752427 0.393239 0.415176 -0.387366
Br3   Br    Br    0.834826 0.078552 0.517484 -0.388876
Br4   Br    Br    0.257675 0.894308 0.415022 -0.471731

loop_
_geom_bond_atom_site_label_1
_geom_bond_atom_site_label_2
_geom_bond_distance
_ccdc_geom_bond_type
C18   O42   1.290536 A    
Cr11  O51   1.972336 S    
O4    C12   1.260390 A    
O47   Cr11  1.954911 S    
C65   C66   1.465024 S    
O39   C19   1.273672 A    
C61   H34   1.083296 S    
O20   Cr12  2.081227 S    
H4    C36   1.083880 S    
O15   C7    1.271394 A    
C43   C44   1.390199 A    
C42   H10   1.082589 S    
Cr7   O51   1.963024 S    
C29   C30   1.417460 A    
C50   H22   1.086856 S    
C41   H9    1.082600 S    
C38   C44   1.394046 A    
O7    C3    1.269476 A    
C76   C80   1.336363 D    
C33   C34   1.369324 A    
C77   N1    1.438728 S    
C38   H6    1.080789 S    
C24   C72   1.420043 S    
C37   H5    1.081025 S    
C12   C48   1.455029 S    
C70   Br2   1.925364 S    
C80   N4    1.439630 S    
O40   Cr8   1.929335 S    
C75   H43   1.082166 S    
C27   C31   1.422596 A    
C76   H44   1.089847 S    
O46   Cr10  1.959885 S    
C5    C26   1.466189 S    
C26   C30   1.420028 A    
C77   C81   1.426318 S    
O21   C9    1.268926 A    
O8    Cr4   1.947387 S    
O23   Cr11  1.925854 S    
C7    C28   1.465418 S    
C43   H11   1.082573 S    
O30   C14   1.311935 A    
C65   H29   1.087125 S    
C61   C66   1.341059 D    
O32   Cr4   1.935627 S    
C1    O9    1.283942 A    
C46   C58   1.343226 D    
O25   Cr1   2.063965 S    
C18   C62   1.449156 S    
C3    O11   1.259949 A    
O44   Cr12  2.046380 S    
C4    O12   1.266657 A    
C26   C33   1.401501 A    
C45   H25   1.087201 S    
N1    O54   1.301622 A    
C62   H33   1.084979 S    
C7    O19   1.267344 A    
O7    Cr3   1.943858 S    
O3    Cr3   2.054516 S    
Cr4   O52   1.971342 S    
O47   C23   1.266322 A    
O2    Cr2   2.054009 S    
C56   C60   1.470547 S    
C29   C37   1.414434 A    
O2    C10   1.284405 A    
C59   H19   1.086264 S    
O42   Cr10  2.046380 S    
Cr5   O49   1.963024 S    
N3    O57   1.301287 A    
C10   C46   1.452468 S    
O26   Cr2   2.068835 S    
C70   C82   1.338503 D    
C9    C45   1.456449 S    
C39   C41   1.394235 A    
C54   C58   1.468793 S    
C52   C56   1.342923 D    
O6    Cr2   1.947387 S    
C79   C83   1.461338 S    
C64   C67   1.340343 D    
O31   Cr3   1.937289 S    
O24   Cr12  1.928807 S    
O16   Cr8   1.950870 S    
O11   Cr7   2.052815 S    
C32   C40   1.414395 A    
C1    C52   1.453187 S    
O30   Cr2   1.935627 S    
N4    O59   1.301426 A    
O22   C10   1.293003 A    
O1    C9    1.266270 A    
O48   Cr12  1.959885 S    
C8    O20   1.270493 A    
C72   Br4   1.924198 S    
C3    C50   1.452745 S    
C79   N3    1.441726 S    
C62   C65   1.340059 D    
N2    O56   1.295749 A    
C5    O17   1.267783 A    
C2    O10   1.266976 A    
C13   C76   1.428548 S    
C44   H12   1.082593 S    
C81   H37   1.089285 S    
C52   H24   1.086801 S    
C48   C60   1.340875 D    
C15   O35   1.287191 A    
C4    C49   1.455612 S    
C64   H35   1.084291 S    
Cr10  O50   1.962976 S    
C17   C61   1.460694 S    
O13   C5    1.271119 A    
C84   H40   1.088948 S    
C47   C59   1.343491 D    
O48   C24   1.265660 A    
O12   Cr8   2.049378 S    
O22   Cr10  1.928807 S    
O37   Cr5   1.932726 S    
C20   C64   1.447904 S    
O5    C1    1.294634 A    
C83   H39   1.087693 S    
C58   H18   1.085532 S    
O39   Cr7   1.932726 S    
O25   C21   1.250604 A    
C72   C84   1.336723 D    
C25   C29   1.421309 A    
O45   Cr9   1.954911 S    
C67   C68   1.465302 S    
C46   H26   1.086730 S    
C13   O33   1.286895 A    
C63   H36   1.080864 S    
O8    C4    1.272311 A    
C39   H7    1.080812 S    
O13   Cr5   1.957307 S    
C53   H13   1.086373 S    
O36   Cr8   2.067456 S    
C21   C69   1.430471 S    
O29   C13   1.294038 A    
Cr2   O50   1.971342 S    
O15   Cr7   1.957307 S    
O35   Cr7   2.074654 S    
Cr1   O49   1.971565 S    
C78   C82   1.423031 S    
N4    O60   1.295609 A    
C74   H42   1.088686 S    
C53   C57   1.463883 S    
Cr3   O51   1.971565 S    
O26   C22   1.251753 A    
O21   Cr9   1.925854 S    
O31   C15   1.294557 A    
O27   Cr3   2.063965 S    
O9    Cr5   2.052815 S    
C6    C25   1.466064 S    
C67   H31   1.087059 S    
C8    C27   1.465798 S    
O18   Cr10  2.081227 S    
O3    C11   1.266337 A    
C2    C51   1.455554 S    
C54   H14   1.086275 S    
C68   H32   1.086212 S    
O34   Cr6   2.067456 S    
C31   C39   1.414933 A    
C27   C36   1.397544 A    
O14   Cr6   1.950870 S    
C16   C73   1.429572 S    
O38   C18   1.300134 A    
C71   C83   1.343580 D    
C74   C78   1.336844 D    
O27   C23   1.269125 A    
O28   C24   1.251509 A    
H1    C33   1.083545 S    
C63   C68   1.340658 D    
O14   C6    1.267137 A    
C19   O43   1.259930 A    
C69   C81   1.343268 D    
C47   H27   1.087253 S    
Cr12  O52   1.962976 S    
H3    C35   1.083629 S    
N2    O55   1.302056 A    
O17   Cr9   2.077354 S    
O37   C17   1.273855 A    
C25   C34   1.396877 A    
O6    C2    1.271765 A    
C75   C79   1.350438 D    
O24   C12   1.268635 A    
C17   O41   1.260533 A    
C56   H16   1.086508 S    
C19   C63   1.459125 S    
C14   O34   1.291580 A    
C55   C59   1.464063 S    
C30   C38   1.414539 A    
C31   C32   1.417402 A    
C20   O44   1.291075 A    
O1    Cr1   2.054516 S    
C40   H8    1.080986 S    
C11   C47   1.456728 S    
C22   C70   1.423448 S    
Cr8   O52   1.972669 S    
O32   C16   1.298649 A    
H2    C34   1.083808 S    
C41   C42   1.390166 A    
C69   Br1   1.918655 S    
Cr6   O50   1.972669 S    
C48   H28   1.087042 S    
O46   C22   1.266211 A    
C40   C42   1.393919 A    
C78   N2    1.439707 S    
O45   C21   1.274720 A    
C28   C32   1.419086 A    
O23   C11   1.269165 A    
C73   H41   1.087528 S    
C82   H38   1.085291 S    
O33   Cr5   2.074654 S    
C23   C71   1.447155 S    
O10   Cr6   2.049379 S    
O5    Cr1   1.943858 S    
O16   C8    1.266593 A    
C51   C55   1.342970 D    
O4    Cr4   2.054009 S    
C15   C74   1.429037 S    
C55   H15   1.086411 S    
C66   H30   1.086237 S    
O29   Cr1   1.937289 S    
O19   Cr11  2.077354 S    
C37   C43   1.393997 A    
C49   C53   1.342350 D    
C16   O36   1.287139 A    
O40   C20   1.300635 A    
C60   H20   1.086264 S    
N1    O53   1.297357 A    
C6    O18   1.270309 A    
O28   Cr4   2.068835 S    
O43   Cr11  2.044036 S    
C35   C36   1.368852 A    
N3    O58   1.299141 A    
C50   C54   1.339494 D    
C14   C75   1.458139 S    
O41   Cr9   2.044036 S    
C57   H17   1.086207 S    
C45   C57   1.343843 D    
C73   C77   1.339367 D    
C28   C35   1.401112 A    
C71   Br3   1.937830 S    
C49   H21   1.087223 S    
Cr9   O49   1.972336 S    
C80   C84   1.423108 S    
C51   H23   1.086992 S    
O38   Cr6   1.929335 S    
