data_mof_unit_46598.cif
_audit_creation_date              2012-12-10T17:49:40-0500
_audit_creation_method            fapswitch 2.2
_symmetry_space_group_name_H-M    P1
_symmetry_Int_Tables_number       1
_space_group_crystal_system       triclinic
_cell_length_a                    14.753765
_cell_length_b                    14.711713
_cell_length_c                    15.897355
_cell_angle_alpha                 76.448198
_cell_angle_beta                  103.196854
_cell_angle_gamma                 115.022992
_cell_volume                      3006.78030606

loop_
_atom_site_label
_atom_site_type_symbol
_atom_type_description
_atom_site_fract_x
_atom_site_fract_y
_atom_site_fract_z
_atom_type_partial_charge
C1    C     C_R   0.880423 0.312013 0.512093 0.819879
C2    C     C_3   0.029847 0.413815 0.074578 -0.453056
C3    C     C_3   0.002645 0.502409 0.083013 0.140915
C4    C     C_3   0.084119 0.605574 0.043562 0.151019
C5    C     C_3   0.080555 0.603927 0.944630 -0.489027
C6    C     C_1   0.001325 0.501184 0.175445 -0.006859
C7    C     C_1   0.001196 0.500811 0.824746 -0.041319
C8    C     C_1   0.000478 0.500436 0.749209 -0.143483
C9    C     C_R   0.812944 0.203477 0.518775 -0.099006
C10   C     C_R   0.187891 0.795084 0.488655 -0.057271
C11   C     C_R   0.778607 0.025930 0.526329 -0.147476
C12   C     C_R   0.000059 0.500001 0.659656 0.817389
C13   C     C_R   0.844898 0.127337 0.513788 0.196199
C14   C     C_R   0.712054 0.176366 0.527960 -0.258864
C15   C     C_R   0.641438 0.075098 0.532062 0.062968
C16   C     C_R   0.677712 0.998496 0.536231 0.062699
C17   C     C_R   0.535774 0.048158 0.529413 0.082419
C18   C     C_R   0.468401 0.944855 0.528578 0.033912
C19   C     C_R   0.509296 0.870195 0.544531 -0.237775
C20   C     C_R   0.611932 0.896016 0.548336 0.168653
C21   C     C_R   0.494499 0.120770 0.524966 -0.198840
C22   C     C_R   0.390789 0.093457 0.516508 -0.174689
C23   C     C_R   0.119764 0.687840 0.487176 0.821099
C24   C     C_R   0.323994 0.993932 0.508858 0.146015
C25   C     C_R   0.362051 0.919003 0.513248 0.100538
C26   C     C_R   0.219214 0.968641 0.495788 -0.141612
C27   C     C_R   0.151505 0.869504 0.486619 -0.154585
C28   C     C_R   0.292209 0.821126 0.499205 -0.226296
C29   C     C_R   0.711843 0.665906 0.352659 -0.261039
C30   C     C_R   0.793655 0.637443 0.375439 0.335654
C31   C     C_R   0.714478 0.509596 0.487837 -0.007190
C32   C     C_R   0.627378 0.535057 0.466020 -0.029964
C33   C     C_R   0.629512 0.618390 0.398850 0.104535
C34   C     C_R   0.999917 0.499891 0.340380 0.843733
C35   C     C_R   0.539099 0.481109 0.508363 0.106683
C36   C     C_R   0.455478 0.512289 0.484307 0.095843
C37   C     C_R   0.462947 0.597014 0.418765 -0.280843
C38   C     C_R   0.548419 0.651042 0.377586 0.020484
C39   C     C_R   0.531652 0.396609 0.573898 -0.242847
C40   C     C_R   0.447135 0.345099 0.615429 -0.163000
C41   C     C_R   0.364323 0.373950 0.593473 0.105438
C42   C     C_R   0.367755 0.459103 0.528030 -0.022111
C43   C     C_R   0.279875 0.321466 0.638538 -0.141217
C44   C     C_R   0.203253 0.359234 0.622060 0.113742
C45   C     C_3   0.026992 0.411008 0.976736 -0.125317
C46   C     C_R   0.283148 0.487598 0.509646 0.006284
C47   C     C_3   0.896810 0.488625 0.930661 -0.369207
C48   C     C_3   0.895667 0.488049 0.028493 -0.150531
C49   C     C_1   0.000387 0.500409 0.250858 -0.092415
C50   C     C_3   0.002440 0.501051 0.917253 0.154617
Cu1   Cu    Cu3+1 0.081750 0.475690 0.522550 0.982821
Cu2   Cu    Cu3+1 0.918250 0.524310 0.477450 0.980434
H1    H     H_    0.976169 0.339870 0.104334 0.230379
H2    H     H_    0.105215 0.421659 0.113129 0.161516
H3    H     H_    0.317201 0.763721 0.494611 0.151367
H4    H     H_    0.071075 0.850953 0.478893 0.182080
H5    H     H_    0.362598 0.151460 0.513595 0.173608
H6    H     H_    0.805825 0.969225 0.523611 0.195410
H7    H     H_    0.690329 0.236592 0.530659 0.153500
H8    H     H_    0.964502 0.338807 0.959723 0.206400
H9    H     H_    0.463325 0.790139 0.556077 0.161609
H10   H     H_    0.539778 0.199885 0.527829 0.138061
H11   H     H_    0.189691 0.025483 0.493261 0.174649
H12   H     H_    0.277173 0.547949 0.458464 0.141545
H13   H     H_    0.449426 0.283227 0.667086 0.189297
H14   H     H_    0.713289 0.724544 0.296903 0.207619
H15   H     H_    0.720507 0.450140 0.540078 0.131223
H16   H     H_    0.877746 0.552530 0.889660 0.175065
H17   H     H_    0.403977 0.625703 0.399380 0.132461
H18   H     H_    0.590367 0.367671 0.595511 0.130201
H19   H     H_    0.838216 0.418201 0.906970 0.206315
H20   H     H_    0.877839 0.553372 0.031272 0.141891
H21   H     H_    0.155926 0.619232 0.929040 0.145954
H22   H     H_    0.059315 0.666040 0.902917 0.216000
N1    N     N_R   0.795410 0.560790 0.443550 -0.197471
N2    N     N_R   0.204590 0.439170 0.556520 -0.209620
O1    O     O_R   0.977910 0.338120 0.529720 -0.533933
O2    O     O_R   0.839850 0.379180 0.491640 -0.602132
O3    O     O_R   0.069060 0.479460 0.639610 -0.606011
O4    O     O_R   0.931000 0.520530 0.601530 -0.573779
O5    O     O_R   0.160150 0.620820 0.508360 -0.597533
O6    O     O_R   0.022090 0.661880 0.470280 -0.560483
O7    O     O_R   0.069000 0.479470 0.398470 -0.568716
O8    O     O_R   0.930940 0.520540 0.360390 -0.561507
C51   C     C_2   0.124378 0.409973 0.962347 0.370895
H23   H     H_    0.196115 0.471392 0.978122 0.064707
O9    O     O_2   0.123234 0.339748 0.933124 -0.527670
I1    I     I_    0.056093 0.736535 0.053082 -0.276897
I2    I     I_    0.661120 0.773824 0.576125 -0.356035
I3    I     I_    0.985677 0.155552 0.476915 -0.256364
C52   C     C_2   0.549733 0.744211 0.315247 0.368057
H24   H     H_    0.479943 0.745645 0.275185 0.100523
O10   O     O_2   0.626177 0.821982 0.312422 -0.510488
C53   C     C_2   0.122123 0.311907 0.677515 0.429167
H25   H     H_    0.121189 0.351443 0.726595 0.094432
O11   O     O_2   0.060544 0.225127 0.673705 -0.512192
I4    I     I_    0.909655 0.722547 0.295937 -0.269412
C54   C     C_2   0.270182 0.227828 0.703641 0.407326
H26   H     H_    0.247581 0.219196 0.766347 0.096199
O12   O     O_2   0.281867 0.157551 0.685706 -0.528240
C55   C     C_2   0.811018 0.394983 0.066032 0.363999
H27   H     H_    0.769757 0.402866 0.110485 0.084396
O13   O     O_2   0.790264 0.310711 0.049672 -0.524444
C56   C     C_2   0.189922 0.621884 0.092694 0.390396
H28   H     H_    0.243310 0.608423 0.065364 0.044519
O14   O     O_2   0.215490 0.646441 0.165451 -0.525972

loop_
_geom_bond_atom_site_label_1
_geom_bond_atom_site_label_2
_ccdc_geom_bond_type
C10   C27   A    
C45   H8    S    
C55   H27   S    
C23   O6    A    
C37   H17   S    
C13   I3    S    
C1    O1    A    
C41   C42   A    
C36   C42   A    
C19   C20   A    
C43   C54   S    
C43   C44   A    
C3    C6    S    
C22   H5    S    
C56   O14   D    
C7    C8    T    
C51   H23   S    
C25   C28   A    
C31   H15   S    
C14   H7    S    
C30   I4    S    
C26   C27   A    
C29   C30   A    
C36   C37   A    
C24   C26   A    
C15   C16   A    
C12   O3    A    
C29   C33   A    
C3    C48   S    
C44   N2    A    
C18   C19   A    
C42   C46   A    
C5    H22   S    
Cu2   O8    S    
C9    C13   A    
C31   C32   A    
C11   H6    S    
Cu1   O5    S    
C8    C12   S    
C53   O11   D    
Cu2   N1    S    
C55   O13   D    
C21   C22   A    
C1    O2    A    
C41   C43   A    
C18   C25   A    
C34   O8    A    
C48   H20   S    
Cu2   O2    S    
C46   N2    A    
C56   H28   S    
C28   H3    S    
C47   C50   S    
C51   O9    D    
C2    C45   S    
Cu1   Cu2   S    
C32   C35   A    
C1    C9    S    
Cu1   N2    S    
C2    H2    S    
C52   H24   S    
C9    C14   A    
C27   H4    S    
C38   C52   S    
C17   C21   A    
C46   H12   S    
C35   C36   A    
C35   C39   A    
C26   H11   S    
Cu1   O1    S    
C37   C38   A    
C52   O10   D    
C11   C16   A    
C31   N1    A    
C47   C48   S    
C16   C20   A    
C17   C18   A    
C24   C25   A    
Cu2   O6    S    
C47   H19   S    
C21   H10   S    
C40   C41   A    
C54   O12   D    
C40   H13   S    
C22   C24   A    
C5    C50   S    
C34   O7    A    
C3    C4    S    
Cu1   O7    S    
C47   H16   S    
C39   C40   A    
C10   C28   A    
C15   C17   A    
C34   C49   S    
C23   O5    A    
C7    C50   S    
C4    C5    S    
C2    H1    S    
C4    I1    S    
C10   C23   S    
C20   I2    S    
C33   C38   A    
C45   C51   S    
C32   C33   A    
C2    C3    S    
C30   N1    A    
C11   C13   A    
C45   C50   S    
C19   H9    S    
C48   C55   S    
C12   O4    A    
C39   H18   S    
C4    C56   S    
C6    C49   T    
C5    H21   S    
C53   H25   S    
Cu1   O3    S    
C44   C53   S    
C29   H14   S    
C54   H26   S    
C14   C15   A    
Cu2   O4    S    
