data_mof_unit_51827.cif
_audit_creation_date              2012-12-11T16:45:51-0500
_audit_creation_method            fapswitch 2.2
_symmetry_space_group_name_H-M    P1
_symmetry_Int_Tables_number       1
_space_group_crystal_system       triclinic
_cell_length_a                    19.96015
_cell_length_b                    17.317059
_cell_length_c                    15.278299
_cell_angle_alpha                 89.999535
_cell_angle_beta                  52.521131
_cell_angle_gamma                 89.999506
_cell_volume                      4190.85324398

loop_
_atom_site_label
_atom_site_type_symbol
_atom_type_description
_atom_site_fract_x
_atom_site_fract_y
_atom_site_fract_z
_atom_type_partial_charge
C1    C     C_R   0.852099 0.682511 0.023821 -0.102329
C2    C     C_R   0.154548 0.313099 0.062761 -0.256573
C3    C     C_3   0.290487 0.474081 0.108578 -0.664295
C4    C     C_3   0.232194 0.046220 0.925241 0.230516
C5    C     C_3   0.209356 0.973927 0.891822 -0.664470
C6    C     C_3   0.767839 0.046151 0.074655 0.230575
C7    C     C_3   0.790644 0.973888 0.108173 -0.664499
C8    C     C_R   0.345448 0.813100 0.937250 -0.256576
C9    C     C_R   0.654525 0.813087 0.062789 -0.256659
C10   C     C_R   0.813377 0.644637 0.330097 -0.062547
C11   C     C_R   0.186634 0.644625 0.669905 -0.062527
C12   C     C_R   0.313373 0.144632 0.330097 -0.062533
C13   C     C_R   0.686623 0.144636 0.669903 -0.062561
C14   C     C_R   0.689476 0.637292 0.535330 -0.037420
C15   C     C_R   0.310528 0.637282 0.464664 -0.037386
C16   C     C_R   0.189477 0.137287 0.535335 -0.037418
C17   C     C_R   0.147850 0.682542 0.976259 -0.102198
C18   C     C_R   0.810527 0.137290 0.464670 -0.037417
C19   C     C_R   0.731977 0.671876 0.430617 0.027195
C20   C     C_R   0.268035 0.671862 0.569380 0.027223
C21   C     C_R   0.231972 0.171869 0.430620 0.027221
C22   C     C_R   0.768024 0.171875 0.569383 0.027197
C23   C     C_R   0.194073 0.238669 0.425275 -0.089859
C24   C     C_R   0.805918 0.238677 0.574732 -0.089811
C25   C     C_R   0.694082 0.738678 0.425268 -0.089808
C26   C     C_R   0.305933 0.738662 0.574724 -0.089860
C27   C     C_R   0.136253 0.280936 0.520887 -0.104126
C28   C     C_R   0.352112 0.182519 0.023802 -0.102271
C29   C     C_R   0.863740 0.280943 0.479120 -0.104125
C30   C     C_R   0.636261 0.780945 0.520880 -0.104129
C31   C     C_R   0.363748 0.780932 0.479113 -0.104135
C32   C     C_R   0.115950 0.256290 0.622264 0.040352
C33   C     C_R   0.884051 0.256294 0.377741 0.040333
C34   C     C_R   0.615951 0.756296 0.622259 0.040342
C35   C     C_R   0.384050 0.756288 0.377736 0.040341
C36   C     C_R   0.630648 0.678512 0.630162 -0.063907
C37   C     C_R   0.369352 0.678506 0.369832 -0.063908
C38   C     C_R   0.130651 0.178509 0.630167 -0.063936
C39   C     C_R   0.647901 0.182511 0.976179 -0.102320
C40   C     C_R   0.869355 0.178511 0.369839 -0.063933
C41   C     C_3   0.650289 0.635963 0.697138 0.519478
C42   C     C_3   0.349705 0.635962 0.302859 0.519481
C43   C     C_3   0.150297 0.135963 0.697140 0.519474
C44   C     C_3   0.849716 0.135961 0.302861 0.519468
C45   C     C_R   0.904810 0.301607 0.204153 -0.127313
C46   C     C_R   0.095193 0.301607 0.795848 -0.127307
C47   C     C_R   0.404807 0.801607 0.204153 -0.127321
C48   C     C_R   0.595190 0.801608 0.795847 -0.127300
C49   C     C_3   0.715159 0.592174 0.594066 0.649177
C50   C     C_R   0.897206 0.314185 0.298730 0.000078
C51   C     C_3   0.284841 0.592169 0.405931 0.649145
C52   C     C_3   0.215164 0.092171 0.594069 0.649193
C53   C     C_3   0.784845 0.092173 0.405934 0.649184
C54   C     C_2   0.753711 0.206297 0.004759 -0.474707
C55   C     C_2   0.246317 0.206318 0.995203 -0.474766
C56   C     C_2   0.253600 0.706379 0.004918 -0.474923
C57   C     C_2   0.746290 0.706299 0.995241 -0.474724
C58   C     C_2   0.302012 0.755716 0.921694 0.841294
C59   C     C_2   0.697917 0.755687 0.078409 0.841228
C60   C     C_2   0.802080 0.255689 0.921595 0.841224
C61   C     C_R   0.102796 0.314183 0.701272 0.000077
C62   C     C_2   0.197946 0.255703 0.078373 0.841281
C63   C     C_R   0.868062 0.386979 0.894989 0.796484
C64   C     C_R   0.131956 0.386988 0.104991 0.796403
C65   C     C_R   0.368046 0.886985 0.895009 0.796465
C66   C     C_R   0.631936 0.886979 0.105013 0.796489
C67   C     C_R   0.864617 0.584641 0.318019 0.527574
C68   C     C_R   0.135388 0.584639 0.681981 0.527550
C69   C     C_R   0.364615 0.084641 0.318019 0.527563
C70   C     C_R   0.635384 0.084641 0.681981 0.527582
C71   C     C_R   0.872875 0.301113 0.999011 -0.288941
C72   C     C_R   0.397204 0.814182 0.298728 0.000091
C73   C     C_R   0.127136 0.301117 0.000977 -0.288937
C74   C     C_R   0.372863 0.801118 0.999029 -0.288959
C75   C     C_R   0.627124 0.801112 0.000991 -0.288942
C76   C     C_R   0.854693 0.675295 0.223978 -0.184477
C77   C     C_R   0.145321 0.675283 0.776024 -0.184464
C78   C     C_R   0.354688 0.175292 0.223978 -0.184482
C79   C     C_R   0.645307 0.175294 0.776021 -0.184467
C80   C     C_R   0.911539 0.391908 0.300716 0.036853
C81   C     C_R   0.088459 0.391905 0.699286 0.036842
C82   C     C_R   0.411541 0.891903 0.300714 0.036836
C83   C     C_R   0.602795 0.814186 0.701270 0.000081
C84   C     C_R   0.588462 0.891909 0.699283 0.036841
C85   C     C_R   0.838048 0.587185 0.936098 0.484365
C86   C     C_R   0.161888 0.587229 0.064019 0.484413
C87   C     C_R   0.338060 0.087194 0.936075 0.484397
C88   C     C_R   0.661952 0.087183 0.063903 0.484365
C89   C     C_R   0.804253 0.656821 0.992842 0.027952
C90   C     C_R   0.195659 0.656880 0.007309 0.027950
C91   C     C_R   0.304273 0.156835 0.992808 0.027906
C92   C     C_R   0.695747 0.156820 0.007159 0.027939
C93   C     C_3   0.926695 0.561648 0.399486 0.172364
C94   C     C_R   0.845472 0.313088 0.937214 -0.256657
C95   C     C_3   0.918105 0.517762 0.492776 -0.844068
C96   C     C_3   0.073319 0.561614 0.600507 0.172455
C97   C     C_3   0.081933 0.517723 0.507203 -0.844301
C98   C     C_3   0.426683 0.061604 0.399493 0.172385
C99   C     C_3   0.418063 0.017709 0.492798 -0.844189
C100  C     C_3   0.573306 0.061657 0.600512 0.172374
C101  C     C_3   0.581892 0.017775 0.507223 -0.844059
C102  C     C_3   0.732155 0.546148 0.925363 0.230554
C103  C     C_3   0.709357 0.473898 0.891814 -0.664475
C104  C     C_3   0.267663 0.546346 0.075090 0.230405
F1    F     F_    0.583232 0.590418 0.777231 -0.632616
F2    F     F_    0.694584 0.756930 0.170121 -0.689944
F3    F     F_    0.805409 0.256936 0.829885 -0.689950
F4    F     F_    0.194613 0.256946 0.170085 -0.689959
F5    F     F_    0.880308 0.409858 0.801426 -0.676414
F6    F     F_    0.119712 0.409861 0.198553 -0.676437
F7    F     F_    0.380281 0.909858 0.801451 -0.676412
F8    F     F_    0.619688 0.909856 0.198577 -0.676418
F9    F     F_    0.416761 0.590419 0.222759 -0.632692
F10   F     F_    0.083242 0.090420 0.777239 -0.632660
F11   F     F_    0.916774 0.090416 0.222771 -0.632645
F12   F     F_    0.696541 0.514316 0.600992 -0.613539
F13   F     F_    0.303463 0.514311 0.398996 -0.613571
F14   F     F_    0.196542 0.014313 0.601002 -0.613553
F15   F     F_    0.803462 0.014314 0.399010 -0.613548
F16   F     F_    0.305371 0.756911 0.829962 -0.689931
H1    H     H_    0.852346 0.739932 0.051171 0.153352
H2    H     H_    0.319159 0.669471 0.273956 -0.102628
H3    H     H_    0.180842 0.169472 0.726045 -0.102550
H4    H     H_    0.819175 0.169466 0.273947 -0.102496
H5    H     H_    0.778307 0.606143 0.569822 -0.035036
H6    H     H_    0.221691 0.606136 0.430181 -0.035009
H7    H     H_    0.278314 0.106138 0.569820 -0.034996
H8    H     H_    0.721698 0.106143 0.430177 -0.035048
H9    H     H_    0.748541 0.208869 0.079571 0.131905
H10   H     H_    0.251487 0.208893 0.920392 0.131885
H11   H     H_    0.248408 0.708999 0.079743 0.131889
H12   H     H_    0.147589 0.739960 0.948910 0.153313
H13   H     H_    0.751465 0.708876 0.920426 0.131918
H14   H     H_    0.917653 0.247531 0.161972 0.140401
H15   H     H_    0.082353 0.247531 0.838030 0.140407
H16   H     H_    0.417646 0.747531 0.161972 0.140413
H17   H     H_    0.582348 0.747531 0.838028 0.140408
H18   H     H_    0.877231 0.246964 0.030642 0.158836
H19   H     H_    0.122782 0.246967 0.969347 0.158820
H20   H     H_    0.377204 0.746970 0.030677 0.158828
H21   H     H_    0.622769 0.746964 0.969359 0.158838
H22   H     H_    0.836926 0.725963 0.202153 0.153323
H23   H     H_    0.352365 0.239940 0.051148 0.153362
H24   H     H_    0.163102 0.725936 0.797853 0.153359
H25   H     H_    0.336917 0.225956 0.202153 0.153337
H26   H     H_    0.663074 0.225961 0.797846 0.153325
H27   H     H_    0.928621 0.416173 0.349039 0.149981
H28   H     H_    0.071369 0.416164 0.650970 0.149973
H29   H     H_    0.428633 0.916161 0.349029 0.149971
H30   H     H_    0.571381 0.916177 0.650959 0.149980
H31   H     H_    0.215556 0.264273 0.347766 0.175795
H32   H     H_    0.784429 0.264283 0.652241 0.175793
H33   H     H_    0.715570 0.764285 0.347759 0.175792
H34   H     H_    0.647653 0.239932 0.948828 0.153356
H35   H     H_    0.284450 0.764266 0.652233 0.175782
H36   H     H_    0.927497 0.624818 0.413187 0.091850
H37   H     H_    0.988020 0.545733 0.319788 0.148432
H38   H     H_    0.965920 0.471024 0.458194 0.245367
H39   H     H_    0.926826 0.557737 0.541895 0.226633
H40   H     H_    0.854855 0.490730 0.549697 0.295802
H41   H     H_    0.072493 0.624783 0.586820 0.091829
H42   H     H_    0.011997 0.545684 0.680201 0.148367
H43   H     H_    0.034066 0.471035 0.541780 0.245383
H44   H     H_    0.073316 0.557707 0.457991 0.226683
H45   H     H_    0.118937 0.337542 0.510973 0.138075
H46   H     H_    0.145156 0.490624 0.450367 0.295814
H47   H     H_    0.427516 0.124772 0.413177 0.091838
H48   H     H_    0.488003 0.045669 0.319799 0.148379
H49   H     H_    0.465944 0.971032 0.458221 0.245361
H50   H     H_    0.426655 0.057694 0.542034 0.226681
H51   H     H_    0.354847 0.990593 0.549613 0.295852
H52   H     H_    0.572511 0.124828 0.586808 0.091852
H53   H     H_    0.511978 0.045746 0.680210 0.148369
H54   H     H_    0.534094 0.971023 0.541803 0.245361
H55   H     H_    0.573143 0.057749 0.458129 0.226619
H56   H     H_    0.881052 0.337550 0.489036 0.138096
H57   H     H_    0.645151 0.990762 0.450279 0.295795
H58   H     H_    0.716104 0.595958 0.895716 0.113679
H59   H     H_    0.692252 0.546974 0.017277 0.107255
H60   H     H_    0.715515 0.421858 0.928789 0.229366
H61   H     H_    0.642867 0.477826 0.922016 0.214554
H62   H     H_    0.751059 0.468206 0.800545 0.278774
H63   H     H_    0.283516 0.596143 0.104994 0.113549
H64   H     H_    0.307697 0.547293 0.983167 0.107374
H65   H     H_    0.284456 0.422069 0.071437 0.229497
H66   H     H_    0.356938 0.478067 0.078517 0.214632
H67   H     H_    0.618948 0.837552 0.510964 0.138099
H68   H     H_    0.248710 0.468294 0.199838 0.278694
H69   H     H_    0.216241 0.095996 0.895424 0.113658
H70   H     H_    0.192241 0.047155 0.017158 0.107319
H71   H     H_    0.215464 0.921931 0.928917 0.229299
H72   H     H_    0.142877 0.977871 0.921985 0.214581
H73   H     H_    0.251073 0.968143 0.800564 0.278809
H74   H     H_    0.783874 0.095953 0.104333 0.113672
H75   H     H_    0.807749 0.047003 0.982741 0.107260
H76   H     H_    0.784488 0.921860 0.071177 0.229348
H77   H     H_    0.857133 0.977814 0.077972 0.214547
H78   H     H_    0.381062 0.837538 0.489028 0.138075
H79   H     H_    0.748945 0.968177 0.199440 0.278776
H80   H     H_    0.680831 0.669469 0.726050 -0.102508
N1    N     N_R   0.908660 0.628630 0.995840 -0.084441
N2    N     N_R   0.096530 0.421430 0.063580 -0.118263
N3    N     N_R   0.403470 0.921430 0.936420 -0.118271
N4    N     N_R   0.596530 0.921430 0.063580 -0.118279
N5    N     N_R   0.927500 0.575670 0.211370 -0.115101
N6    N     N_R   0.072500 0.575670 0.788630 -0.115097
N7    N     N_R   0.427500 0.075670 0.211370 -0.115096
N8    N     N_R   0.572500 0.075670 0.788630 -0.115099
N9    N     N_R   0.908660 0.365680 0.995820 -0.063895
N10   N     N_R   0.091340 0.365680 0.004180 -0.063883
N11   N     N_R   0.408660 0.865680 0.995820 -0.063894
N12   N     N_R   0.091340 0.628630 0.004160 -0.084447
N13   N     N_R   0.591340 0.865680 0.004180 -0.063893
N14   N     N_R   0.922310 0.631420 0.151980 -0.069909
N15   N     N_R   0.077690 0.631420 0.848020 -0.069905
N16   N     N_R   0.422310 0.131420 0.151980 -0.069900
N17   N     N_R   0.577690 0.131420 0.848020 -0.069904
N18   N     N_R   0.927500 0.426330 0.211360 -0.060542
N19   N     N_R   0.072500 0.426330 0.788640 -0.060539
N20   N     N_R   0.427500 0.926330 0.211360 -0.060540
N21   N     N_R   0.572500 0.926330 0.788640 -0.060545
N22   N     N_R   0.903470 0.570760 0.936440 -0.109134
N23   N     N_R   0.408660 0.128630 0.995840 -0.084447
N24   N     N_R   0.096530 0.570760 0.063560 -0.109127
N25   N     N_R   0.403470 0.070760 0.936440 -0.109132
N26   N     N_R   0.596530 0.070760 0.063560 -0.109131
N27   N     N_R   0.591340 0.128630 0.004160 -0.084442
N28   N     N_R   0.922310 0.368460 0.151950 -0.045247
N29   N     N_R   0.077690 0.368460 0.848050 -0.045244
N30   N     N_R   0.422310 0.868460 0.151950 -0.045247
N31   N     N_R   0.577690 0.868460 0.848050 -0.045248
N32   N     N_R   0.903470 0.421430 0.936420 -0.118280
Ni1   Ni    Ni4+2 1.000000 0.630300 0.000000 0.192719
Ni2   Ni    Ni4+2 0.500000 0.130300 0.000000 0.192724
Ni3   Ni    Ni4+2 0.000000 0.369700 0.000000 0.212132
Ni4   Ni    Ni4+2 0.500000 0.869700 0.000000 0.212128
Ni5   Ni    Ni4+2 0.988090 0.497570 0.863760 0.255386
Ni6   Ni    Ni4+2 0.011910 0.497570 0.136240 0.255414
Ni7   Ni    Ni4+2 0.488090 0.997570 0.863760 0.255398
Ni8   Ni    Ni4+2 0.511910 0.997570 0.136240 0.255383
O1    O     O_3   0.857642 0.542930 0.399460 -0.635199
O2    O     O_3   0.142375 0.542919 0.600539 -0.635192
O3    O     O_3   0.357625 0.042918 0.399461 -0.635194
O4    O     O_3   0.642357 0.042932 0.600540 -0.635194
O5    O     O_3   0.819823 0.546694 0.874345 -0.612160
O6    O     O_3   0.180037 0.546768 0.125873 -0.612176
O7    O     O_3   0.319848 0.046704 0.874308 -0.612164
O8    O     O_3   0.680175 0.046690 0.125657 -0.612164

loop_
_geom_bond_atom_site_label_1
_geom_bond_atom_site_label_2
_ccdc_geom_bond_type
N6    N15   A    
C3    C104  S    
C12   C69   A    
C13   C79   A    
C7    H77   S    
C16   C21   A    
C87   C91   A    
C47   H16   S    
C100  H52   S    
C95   H38   S    
N16   Ni2   S    
C64   N2    A    
N15   Ni1   S    
C100  C101  S    
C84   H30   S    
N4    Ni8   S    
C17   N12   A    
C1    N1    A    
C3    H68   S    
N12   Ni1   S    
C67   O1    S    
C99   H50   S    
C54   C60   D    
C10   C67   A    
C96   H41   S    
C55   H10   S    
C63   C94   A    
C24   H32   S    
C45   H14   S    
C41   F1    S    
C48   H17   S    
N21   Ni7   S    
C95   H39   S    
N23   N25   A    
C6    O8    S    
N23   Ni2   S    
N2    N10   A    
C32   C61   S    
C84   N21   A    
C43   F10   S    
C80   N18   A    
C43   C52   S    
C57   C59   D    
C14   C49   S    
C99   H51   S    
C13   C70   A    
C70   N8    A    
C97   H46   S    
C81   N19   A    
C55   C62   D    
C29   C33   A    
C25   C30   A    
N11   Ni4   S    
C103  H60   S    
C41   C49   S    
C37   C42   S    
N27   Ni2   S    
C18   C40   A    
C24   C29   A    
C65   F7    S    
N28   Ni3   S    
C55   C91   S    
C11   C77   A    
C18   C53   S    
C70   O4    S    
C46   H15   S    
C9    C66   A    
C48   N31   A    
C10   C76   A    
C44   C53   S    
C80   H27   S    
C88   N26   A    
C88   C92   A    
C44   F11   S    
C68   O2    S    
C71   N9    A    
C12   C78   A    
C13   C22   S    
C49   H5    S    
N30   Ni4   S    
N31   Ni4   S    
C23   C27   A    
C57   H13   S    
N13   Ni4   S    
C75   H21   S    
C85   N22   A    
C39   N27   A    
C98   H47   S    
C67   N5    A    
C42   C51   S    
C8    C58   S    
C97   H44   S    
C56   C90   S    
C26   H35   S    
C26   C31   A    
C93   C95   S    
C103  H61   S    
C17   H12   S    
C85   O5    S    
C102  H59   S    
N3    N11   A    
C36   C41   S    
N5    Ni6   S    
C102  O5    S    
C86   N24   A    
N1    N22   A    
N19   N29   A    
C41   H80   S    
C3    H65   S    
N8    Ni7   S    
N18   N28   A    
C6    H75   S    
C52   H7    S    
C2    C64   A    
C71   H18   S    
C15   C20   A    
C47   C72   A    
C11   C20   S    
C69   N7    A    
C33   C40   A    
N26   Ni8   S    
C30   C34   A    
C46   C61   A    
C25   H33   S    
C95   H40   S    
C59   F2    S    
C103  H62   S    
C4    H70   S    
C79   H26   S    
C5    H71   S    
C15   C37   A    
C86   C90   A    
C78   N16   A    
C47   N30   A    
C85   C89   A    
C69   O3    S    
C39   H34   S    
C87   N25   A    
C33   C50   S    
C74   H20   S    
C12   C21   S    
C75   N13   A    
C50   C80   A    
C9    C59   S    
C45   N28   A    
C63   F5    S    
N9    Ni3   S    
C4    O7    S    
C54   C92   S    
C53   H8    S    
C88   O8    S    
C97   H43   S    
C73   N10   A    
C42   F9    S    
C64   F6    S    
C83   C84   A    
C65   N3    A    
C10   C19   S    
C81   H28   S    
C96   C97   S    
C49   F12   S    
C8    C74   A    
C82   N20   A    
C28   H23   S    
N10   Ni3   S    
C93   H37   S    
C60   F3    S    
C96   O2    S    
C98   O3    S    
C96   H42   S    
C2    C73   A    
C57   C89   S    
N7    Ni8   S    
C27   H45   S    
C104  H64   S    
N5    N14   A    
C98   C99   S    
C15   C51   S    
C21   C23   A    
C68   N6    A    
N32   Ni5   S    
N25   Ni7   S    
C46   N29   A    
C22   C24   A    
C101  H55   S    
N14   Ni1   S    
C34   C83   S    
N18   Ni6   S    
C29   H56   S    
C3    H66   S    
C43   H3    S    
C39   C92   A    
C6    H74   S    
C101  H54   S    
C11   C68   A    
C77   N15   A    
C79   N17   A    
C5    H73   S    
N12   N24   A    
N8    N17   A    
C54   H9    S    
C23   H31   S    
C1    C89   A    
C35   C37   A    
C27   C32   A    
C18   C22   A    
C51   H6    S    
N3    Ni7   S    
C14   C19   A    
C93   H36   S    
C56   H11   S    
C17   C90   A    
C16   C52   S    
C5    H72   S    
C4    C5    S    
C58   F16   S    
C100  O4    S    
N17   Ni2   S    
N2    Ni6   S    
C98   H48   S    
C53   F15   S    
C35   C72   S    
C87   O7    S    
C6    C7    S    
C99   H49   S    
C73   H19   S    
N22   Ni5   S    
C104  O6    S    
C32   C38   A    
C48   C83   A    
N20   N30   A    
C74   N11   A    
C4    H69   S    
C30   H67   S    
N19   Ni5   S    
C52   F14   S    
C7    H76   S    
C77   H24   S    
C66   N4    A    
C38   C43   S    
C61   C81   A    
C14   C36   A    
C20   C26   A    
C45   C50   A    
C28   N23   A    
C102  H58   S    
N4    N13   A    
N7    N16   A    
C51   F13   S    
C34   C36   A    
C56   C58   D    
C42   H2    S    
C28   C91   A    
C31   C35   A    
C7    H79   S    
C102  C103  S    
C19   C25   A    
C1    H1    S    
N29   Ni3   S    
C82   H29   S    
C101  H57   S    
C76   N14   A    
C40   C44   S    
C104  H63   S    
C62   F4    S    
C78   H25   S    
C86   O6    S    
N26   N27   A    
C16   C38   A    
C100  H53   S    
C8    C65   A    
C44   H4    S    
N20   Ni8   S    
C93   O1    S    
N6    Ni5   S    
C9    C75   A    
C66   F8    S    
C71   C94   A    
N24   Ni6   S    
N9    N32   A    
C31   H78   S    
C72   C82   A    
N21   N31   A    
C2    C62   S    
N1    Ni1   S    
C60   C94   S    
C63   N32   A    
C76   H22   S    
