data_mof_unit_20948.cif
_audit_creation_date              2012-12-11T15:54:00-0500
_audit_creation_method            fapswitch 2.2
_symmetry_space_group_name_H-M    P1
_symmetry_Int_Tables_number       1
_space_group_crystal_system       triclinic
_cell_length_a                    10.680422
_cell_length_b                    10.650843
_cell_length_c                    17.001681
_cell_angle_alpha                 80.893543
_cell_angle_beta                  99.370986
_cell_angle_gamma                 118.514362
_cell_volume                      1669.50123213

loop_
_atom_site_label
_atom_site_type_symbol
_atom_type_description
_atom_site_fract_x
_atom_site_fract_y
_atom_site_fract_z
_atom_type_partial_charge
C1    C     C_R   0.361343 0.229295 0.627473 0.539088
C2    C     C_1   0.320844 0.160255 0.778276 -0.020443
C3    C     C_1   0.335592 0.663397 0.277726 -0.025856
C4    C     C_R   0.414241 0.619894 0.601650 0.556112
C5    C     C_1   0.323413 0.672798 0.206892 -0.041326
C6    C     C_R   0.864028 0.682292 0.166478 0.004471
C7    C     C_R   0.917835 0.606208 0.224197 -0.026990
C8    C     C_R   0.906969 0.600408 0.303856 0.015974
C9    C     C_R   0.814199 0.771880 0.272600 -0.122071
C10   C     C_R   0.822650 0.774629 0.191445 -0.167322
C11   C     C_3   0.894511 0.454494 0.230712 0.126052
C12   C     C_R   0.515110 0.713017 0.735016 -0.145728
C13   C     C_3   0.880726 0.447301 0.319035 0.256731
C14   C     C_R   0.843115 0.673176 0.328366 -0.006579
C15   C     C_R   0.263808 0.052891 0.180438 -0.028966
C16   C     C_R   0.781386 0.621388 0.626160 0.537895
C17   C     C_R   0.157875 0.064230 0.212387 -0.074602
C18   C     C_R   0.178908 0.101657 0.288696 0.046028
C19   C     C_R   0.403643 0.093027 0.311463 0.321271
C20   C     C_R   0.381540 0.051917 0.233096 0.221323
C21   C     C_3   0.078023 0.148419 0.180956 -0.217075
C22   C     C_3   0.099250 0.188194 0.265371 0.120981
C23   C     C_R   0.492553 0.728974 0.810876 -0.134581
C24   C     C_R   0.308832 0.132737 0.335783 -0.029260
C25   C     C_R   0.947772 0.724826 0.851638 0.541502
C26   C     C_R   0.316096 0.705448 0.898520 0.524701
C27   C     C_R   0.284448 0.114686 0.857826 0.557258
C28   C     C_R   0.349266 0.222283 0.401050 0.558308
C29   C     C_R   0.890796 0.692766 0.085277 0.561796
C30   C     C_R   0.313114 0.700514 0.123731 0.540367
C31   C     C_R   0.246717 0.038185 0.094926 0.588763
C32   C     C_R   0.365137 0.654170 0.360837 0.586181
C33   C     C_R   0.774729 0.624194 0.401071 0.544527
C34   C     C_3   0.097207 0.483014 0.772790 0.266037
C35   C     C_R   0.354851 0.650258 0.837878 -0.016950
C36   C     C_R   0.253479 0.534055 0.796290 0.071328
C37   C     C_R   0.276237 0.517820 0.721535 -0.037138
C38   C     C_3   0.121822 0.464699 0.690828 -0.187590
C39   C     C_R   0.400778 0.617331 0.686112 -0.015634
C40   C     C_1   0.850335 0.669790 0.702611 -0.046299
C41   C     C_1   0.897432 0.703857 0.769382 -0.049061
C42   C     C_1   0.345507 0.187948 0.709856 -0.027334
Cr1   Cr    Cr6+3 0.608440 0.389080 0.519680 1.095331
Cr2   Cr    Cr6+3 0.288640 0.400090 0.490760 1.113801
Cr3   Cr    Cr6+3 0.602940 0.710800 0.489510 1.080040
Cr4   Cr    Cr6+3 0.052530 0.947560 0.964210 1.060340
Cr5   Cr    Cr6+3 0.059970 0.626800 0.992920 1.075866
Cr6   Cr    Cr6+3 0.373320 0.938440 0.995370 1.083276
F1    F     F_    0.992624 0.435716 0.367581 -0.619281
F2    F     F_    0.523502 0.108008 0.359945 -0.627689
F3    F     F_    0.015546 0.353260 0.814578 -0.596150
H1    H     H_    0.617615 0.783696 0.712274 0.152440
H2    H     H_    0.769147 0.834375 0.289783 0.193242
H3    H     H_    0.790316 0.842707 0.148272 0.139751
H4    H     H_    0.989688 0.447007 0.218357 0.174758
H5    H     H_    0.687164 0.376845 0.199367 0.326806
H6    H     H_    0.552030 0.023612 0.249435 0.381781
H7    H     H_    0.921591 0.183105 0.279514 0.358123
H8    H     H_    0.773297 0.368289 0.337421 0.199934
H9    H     H_    0.964636 0.080186 0.159320 0.170575
H10   H     H_    0.137346 0.243067 0.138967 0.132298
H11   H     H_    0.165117 0.305293 0.271628 0.136990
H12   H     H_    0.578241 0.813839 0.843891 0.165615
H13   H     H_    0.062405 0.565835 0.772626 0.111700
H14   H     H_    0.070301 0.350914 0.677176 0.193093
H15   H     H_    0.103469 0.539532 0.642548 0.119664
O1    O     O_R   0.754020 0.497590 0.609930 -0.492302
O2    O     O_R   0.406180 0.826930 0.920660 -0.518126
O3    O     O_R   0.358620 0.062870 0.901950 -0.494149
O4    O     O_R   0.481420 0.271390 0.600630 -0.487226
O5    O     O_R   0.163910 0.085460 0.050210 -0.517598
O6    O     O_R   0.935200 0.815170 0.045770 -0.523842
O7    O     O_R   0.916120 0.596690 0.069430 -0.467579
O8    O     O_R   0.192310 0.631200 0.086170 -0.517549
O9    O     O_R   0.406770 0.819480 0.096420 -0.467169
O10   O     O_R   0.359170 0.055960 0.064880 -0.423510
O11   O     O_3   0.161940 0.837600 0.984160 -0.322497
O12   O     O_R   0.295080 0.533620 0.397890 -0.443106
O13   O     O_R   0.263810 0.254550 0.589590 -0.512977
O14   O     O_R   0.300820 0.531200 0.560890 -0.483876
O15   O     O_R   0.491480 0.744020 0.564270 -0.486812
O16   O     O_R   0.726290 0.693800 0.583010 -0.515835
O17   O     O_R   0.747830 0.500190 0.434090 -0.499198
O18   O     O_R   0.475680 0.273800 0.437630 -0.441406
O19   O     O_R   0.257620 0.257160 0.413750 -0.486925
O20   O     O_3   0.766878 0.361539 0.187767 -0.674388
O21   O     O_3   0.478593 0.022688 0.205332 -0.640604
O22   O     O_3   0.971029 0.124502 0.301279 -0.649010
O23   O     O_R   0.485280 0.746620 0.388440 -0.483344
O24   O     O_R   0.720550 0.696220 0.420010 -0.502264
O25   O     O_3   0.500010 0.499990 0.499980 -0.316233
O26   O     O_R   0.163320 0.092900 0.874450 -0.471313
O27   O     O_R   0.934650 0.822080 0.882840 -0.486331
O28   O     O_R   0.915520 0.604140 0.893670 -0.471066
O29   O     O_R   0.191760 0.638110 0.923230 -0.491957

loop_
_geom_bond_atom_site_label_1
_geom_bond_atom_site_label_2
_ccdc_geom_bond_type
C25   O27   A    
C8    C13   S    
C28   O18   A    
Cr1   O17   S    
Cr6   O10   S    
Cr3   O16   S    
Cr6   O3    S    
C14   C33   S    
C7    C8    A    
C7    C11   S    
C12   C23   A    
C34   F3    S    
C18   C24   A    
C36   C37   A    
C2    C42   T    
C4    O14   A    
C30   O8    A    
Cr4   O26   S    
C11   O20   S    
C20   O21   S    
C4    O15   A    
C38   H15   S    
C38   H14   S    
C2    C27   S    
C22   O22   S    
Cr3   O23   S    
C9    C10   A    
Cr4   O6    S    
C27   O3    A    
C29   O6    A    
C23   H12   S    
C25   O28   A    
C34   C38   S    
C21   C22   S    
Cr1   O18   S    
Cr6   O9    S    
C10   H3    S    
C16   O16   A    
C12   H1    S    
C15   C20   A    
Cr2   O14   S    
Cr5   O7    S    
C21   H9    S    
C25   C41   S    
Cr1   O25   S    
H6    O21   S    
C35   C36   A    
Cr6   O11   S    
C9    C14   A    
C37   C38   S    
C22   H11   S    
C1    C42   S    
H5    O20   S    
C32   O23   A    
C4    C39   S    
C34   H13   S    
C17   C18   A    
C27   O26   A    
C16   O1    A    
Cr6   O2    S    
Cr3   O24   S    
C33   O17   A    
Cr4   O5    S    
Cr2   O25   S    
C16   C40   S    
C13   F1    S    
C40   C41   T    
Cr1   O4    S    
C23   C35   A    
C1    O13   A    
C9    H2    S    
Cr5   O11   S    
Cr2   O19   S    
C11   H4    S    
C5    C30   S    
C26   O29   A    
C15   C17   A    
C8    C14   A    
C18   C22   S    
C21   H10   S    
Cr2   O13   S    
Cr3   O15   S    
C24   C28   S    
Cr5   O8    S    
C3    C5    T    
H7    O22   S    
C6    C10   A    
Cr4   O11   S    
C15   C31   S    
C6    C7    A    
C13   H8    S    
C1    O4    A    
C26   O2    A    
C19   C20   A    
Cr2   O12   S    
C19   C24   A    
C37   C39   A    
C33   O24   A    
C30   O9    A    
C11   C13   S    
C19   F2    S    
C31   O10   A    
Cr4   O27   S    
C12   C39   A    
C31   O5    A    
Cr5   O28   S    
C34   C36   S    
C3    C32   S    
Cr3   O25   S    
C17   C21   S    
C32   O12   A    
C26   C35   S    
C6    C29   S    
C29   O7    A    
Cr1   O1    S    
C28   O19   A    
Cr5   O29   S    
