data_mof_unit_48783.cif
_audit_creation_date              2012-10-26T18:50:23-0400
_audit_creation_method            fapswitch 2.2
_symmetry_space_group_name_H-M    P1
_symmetry_Int_Tables_number       1
_space_group_crystal_system       triclinic
_cell_length_a                    9.606656
_cell_length_b                    10.861928
_cell_length_c                    15.455006
_cell_angle_alpha                 86.972781
_cell_angle_beta                  74.354847
_cell_angle_gamma                 90.919552
_cell_volume                      1549.99467138

loop_
_atom_site_label
_atom_site_type_symbol
_atom_type_description
_atom_site_fract_x
_atom_site_fract_y
_atom_site_fract_z
_atom_type_partial_charge
C1    C     C_R   0.001457 0.263196 0.494565 0.544504
C2    C     C_R   0.235530 0.572535 0.043758 0.049386
C3    C     C_R   0.331908 0.530604 0.093283 0.034227
C4    C     C_R   0.918237 0.499867 0.672132 0.542973
C5    C     C_R   0.088931 0.587766 0.087259 -0.142392
C6    C     C_R   0.035954 0.560662 0.179546 -0.144944
C7    C     C_R   0.274335 0.499209 0.185594 -0.134297
C8    C     C_R   0.263713 0.128987 0.411834 -0.088070
C9    C     C_R   0.396370 0.074798 0.404148 -0.119079
C10   C     C_R   0.400962 0.960108 0.447029 -0.091710
C11   C     C_R   0.272696 0.894102 0.489165 -0.082615
C12   C     C_R   0.677332 0.519278 0.908391 0.036930
C13   C     C_R   0.136147 0.942100 0.488944 0.013354
C14   C     C_R   0.133533 0.067768 0.462377 0.024168
C15   C     C_R   0.002291 0.129387 0.490123 -0.035429
C16   C     C_R   0.999204 0.737300 0.506991 0.521515
C17   C     C_R   0.873009 0.062764 0.529314 -0.120017
C18   C     C_R   0.870606 0.934809 0.542114 -0.016480
C19   C     C_R   0.002377 0.872088 0.516385 -0.047606
C20   C     C_R   0.701251 0.658326 0.375364 -0.084358
C21   C     C_R   0.658218 0.732856 0.312129 -0.183770
C22   C     C_R   0.514734 0.733267 0.312095 -0.178489
C23   C     C_R   0.776378 0.489182 0.959098 0.049331
C24   C     C_R   0.413373 0.659794 0.375698 -0.097369
C25   C     C_R   0.453305 0.578178 0.438765 0.137936
C26   C     C_R   0.602750 0.577820 0.438708 0.153169
C27   C     C_R   0.549314 0.425968 0.558113 0.035240
C28   C     C_R   0.081912 0.502505 0.327863 0.533448
C29   C     C_R   0.400851 0.424893 0.559239 0.108075
C30   C     C_R   0.872882 0.500127 0.770826 -0.002840
C31   C     C_R   0.128998 0.517331 0.229245 -0.003129
C32   C     C_R   0.921720 0.468523 0.915650 -0.134867
C33   C     C_R   0.970051 0.475125 0.822090 -0.130803
C34   C     C_R   0.530139 0.540772 0.953586 0.035772
C35   C     C_R   0.728267 0.522337 0.814011 -0.127093
C36   C     C_2   0.731401 0.870655 0.591143 0.239621
C37   C     C_2   0.301958 0.338967 0.627430 0.232503
C38   C     C_R   0.481738 0.520603 0.048935 0.033460
C39   C     C_R   0.585163 0.493771 0.096909 -0.137070
C40   C     C_R   0.729440 0.478884 0.052620 -0.136591
C41   C     C_R   0.430239 0.583256 0.906899 -0.122808
C42   C     C_R   0.286296 0.599660 0.951478 -0.127720
Cu1   Cu    Cu3+1 0.140660 0.499990 0.500010 0.899942
Cu2   Cu    Cu3+1 0.859340 0.500010 0.499990 0.921040
H1    H     H_    0.804484 0.457251 0.092090 0.112387
H2    H     H_    0.736600 0.792473 0.263889 0.123771
H3    H     H_    0.340197 0.459457 0.225484 0.120483
H4    H     H_    0.480710 0.793866 0.264246 0.133038
H5    H     H_    0.304926 0.673503 0.373930 0.190144
H6    H     H_    0.923443 0.576237 0.212116 0.122691
H7    H     H_    0.213815 0.633049 0.913113 0.117284
H8    H     H_    0.997665 0.445152 0.954079 0.120110
H9    H     H_    0.082268 0.457474 0.790045 0.145416
H10   H     H_    0.656360 0.538117 0.772247 0.126230
H11   H     H_    0.559204 0.486591 0.169307 0.111528
H12   H     H_    0.015682 0.622662 0.050033 0.111726
H13   H     H_    0.460327 0.608506 0.835848 0.115158
H14   H     H_    0.730388 0.781196 0.626013 0.136628
H15   H     H_    0.190176 0.325482 0.630298 0.182550
H16   H     H_    0.773690 0.111506 0.553655 0.185870
H17   H     H_    0.264268 0.219120 0.378421 0.140790
H18   H     H_    0.495706 0.123932 0.368039 0.117560
H19   H     H_    0.504159 0.921293 0.446661 0.169172
H20   H     H_    0.283913 0.809461 0.525875 0.165913
H21   H     H_    0.586728 0.365927 0.604737 0.175552
H22   H     H_    0.812767 0.668040 0.371900 0.185138
N1    N     N_R   0.648320 0.501210 0.499140 -0.271476
N2    N     N_R   0.352470 0.501290 0.499110 -0.279525
O1    O     O_R   0.118810 0.319640 0.500010 -0.527402
O2    O     O_2   0.345792 0.279456 0.683508 -0.536726
O3    O     O_R   0.881240 0.319660 0.500000 -0.498414
O4    O     O_R   0.055570 0.499980 0.629840 -0.524198
O5    O     O_R   0.818000 0.500010 0.629830 -0.509413
O6    O     O_R   0.118760 0.680340 0.500000 -0.528785
O7    O     O_R   0.881190 0.680360 0.499990 -0.526578
O8    O     O_R   0.182000 0.499990 0.370170 -0.527661
O9    O     O_R   0.944430 0.500020 0.370160 -0.514808
O10   O     O_2   0.615811 0.918438 0.595061 -0.521199

loop_
_geom_bond_atom_site_label_1
_geom_bond_atom_site_label_2
_ccdc_geom_bond_type
C22   H4    S    
Cu1   O4    S    
C27   C29   A    
C16   O7    A    
C41   C42   A    
C5    H12   S    
C10   H19   S    
C25   N2    A    
C12   C23   A    
C1    O3    A    
C30   C35   A    
C16   O6    A    
C26   N1    A    
C20   H22   S    
Cu2   O9    S    
C36   H14   S    
C5    C6    A    
C23   C40   A    
Cu1   O8    S    
Cu2   O3    S    
C18   C19   A    
C32   H8    S    
C21   C22   A    
C39   H11   S    
C3    C38   A    
Cu1   N2    S    
C1    C15   S    
C9    C10   A    
C42   H7    S    
Cu1   O6    S    
C6    C31   A    
Cu1   O1    S    
C13   C14   A    
C35   H10   S    
C34   C41   A    
C33   H9    S    
C40   H1    S    
C7    C31   A    
C13   C19   A    
C9    H18   S    
C24   C25   A    
C11   H20   S    
C39   C40   A    
C8    C9    A    
C25   C26   A    
C1    O1    A    
C7    H3    S    
Cu2   O7    S    
Cu1   Cu2   S    
C27   H21   S    
C29   N2    A    
C17   C18   A    
C6    H6    S    
C12   C35   A    
C28   O9    A    
C4    O5    A    
C37   H15   S    
C22   C24   A    
C2    C5    A    
C12   C34   A    
C28   O8    A    
C4    O4    A    
C21   H2    S    
C24   H5    S    
C15   C17   A    
C8    C14   A    
C30   C33   A    
C34   C38   A    
C28   C31   S    
C8    H17   S    
C3    C7    A    
C23   C32   A    
C2    C3    A    
C41   H13   S    
C36   O10   D    
C32   C33   A    
C11   C13   A    
C38   C39   A    
C20   C26   A    
C2    C42   A    
C16   C19   S    
Cu2   O5    S    
C27   N1    A    
C10   C11   A    
C17   H16   S    
C20   C21   A    
C29   C37   S    
C14   C15   A    
Cu2   N1    S    
C37   O2    D    
C18   C36   S    
C4    C30   S    
