data_mof_unit_21085.cif
_audit_creation_date              2012-12-10T18:31:13-0500
_audit_creation_method            fapswitch 2.2
_symmetry_space_group_name_H-M    P1
_symmetry_Int_Tables_number       1
_space_group_crystal_system       triclinic
_cell_length_a                    13.646783
_cell_length_b                    15.181625
_cell_length_c                    15.280409
_cell_angle_alpha                 98.707906
_cell_angle_beta                  89.40435
_cell_angle_gamma                 96.698145
_cell_volume                      3107.86382245

loop_
_atom_site_label
_atom_site_type_symbol
_atom_type_description
_atom_site_fract_x
_atom_site_fract_y
_atom_site_fract_z
_atom_type_partial_charge
C1    C     C_R   0.519337 0.556642 0.662750 0.849040
C2    C     C_R   0.502297 0.376300 0.911923 -0.252110
C3    C     C_R   0.684577 0.611609 0.009847 -0.225907
C4    C     C_R   0.458878 0.319709 0.967876 -0.228132
C5    C     C_R   0.395570 0.184559 0.665110 -0.342008
C6    C     C_R   0.607382 0.817181 0.337031 -0.322360
C7    C     C_R   0.383647 0.257066 0.621353 0.237230
C8    C     C_R   0.612824 0.740720 0.375960 0.301787
C9    C     C_R   0.494332 0.204922 0.508280 0.134625
C10   C     C_R   0.512496 0.797350 0.496041 0.118286
C11   C     C_R   0.477684 0.119404 0.534975 -0.015549
C12   C     C_R   0.483128 0.443289 0.337675 0.853716
C13   C     C_R   0.532781 0.883809 0.471129 -0.018581
C14   C     C_R   0.446573 0.116467 0.622617 0.121037
C15   C     C_R   0.562521 0.887197 0.382991 0.111272
C16   C     C_R   0.319205 0.514811 0.498395 0.886608
C17   C     C_R   0.680917 0.485725 0.503169 0.880784
C18   C     C_R   0.498957 0.039164 0.482501 0.080844
C19   C     C_R   0.513318 0.964653 0.524355 0.080356
C20   C     C_R   0.510845 0.975001 0.617504 -0.234664
C21   C     C_R   0.500061 0.029012 0.389491 -0.243976
C22   C     C_R   0.467590 0.045778 0.665147 -0.200973
C23   C     C_R   0.577589 0.528570 0.893179 0.049399
C24   C     C_R   0.542267 0.958470 0.341276 -0.195111
C25   C     C_1   0.781748 0.476867 0.508067 -0.227236
C26   C     C_1   0.219145 0.527379 0.505511 -0.222758
C27   C     C_2   0.969975 0.464831 0.518612 0.208388
C28   C     C_2   0.031368 0.541622 0.521953 0.207282
C29   C     C_1   0.134203 0.536819 0.513329 0.004566
C30   C     C_1   0.866994 0.469134 0.513148 0.007772
C31   C     C_R   0.554004 0.586931 0.755826 -0.147297
C32   C     C_R   0.472019 0.406545 0.243107 -0.134231
C33   C     C_R   0.669059 0.672378 0.869872 0.186226
C34   C     C_R   0.528917 0.422750 0.094670 0.051632
C35   C     C_R   0.401318 0.298889 0.117450 0.189435
C36   C     C_R   0.620862 0.665300 0.785838 0.090048
C37   C     C_R   0.401791 0.332553 0.209699 0.079360
C38   C     C_R   0.530204 0.524409 0.812492 -0.291650
C39   C     C_R   0.534505 0.448695 0.186048 -0.304528
C40   C     C_3   0.994983 0.632126 0.523842 -0.952154
C41   C     C_3   0.003373 0.372893 0.516332 -0.955983
C42   C     C_3   0.321642 0.296900 0.269951 -0.370596
C43   C     C_3   0.347001 0.212076 0.304126 -0.322210
C44   C     C_3   0.270454 0.181796 0.370165 -0.884499
C45   C     C_R   0.644837 0.604603 0.924105 0.120677
C46   C     C_3   0.637658 0.742810 0.732698 -0.385932
C47   C     C_3   0.728777 0.735518 0.673250 -0.319458
C48   C     C_3   0.754341 0.819835 0.630632 -0.906375
C49   C     C_3   0.747130 0.750135 0.902859 -0.973456
C50   C     C_3   0.331436 0.217401 0.077774 -0.973280
C51   C     C_3   0.429761 0.779032 0.561084 -0.379797
C52   C     C_3   0.329689 0.798262 0.527751 -0.329868
C53   C     C_3   0.250048 0.788943 0.597625 -0.894679
C54   C     C_3   0.581554 0.225454 0.448310 -0.391370
C55   C     C_3   0.680020 0.220759 0.494283 -0.313227
C56   C     C_R   0.463572 0.345711 0.060112 0.122118
C57   C     C_3   0.766653 0.232292 0.431516 -0.888750
C58   C     C_3   0.684797 0.677150 0.337147 -0.388051
C59   C     C_3   0.785153 0.697561 0.384836 -0.350417
C60   C     C_3   0.840771 0.787435 0.370252 -0.868500
C61   C     C_3   0.288414 0.298824 0.637684 -0.390576
C62   C     C_3   0.291823 0.372475 0.718318 -0.340159
C63   C     C_3   0.188457 0.395144 0.744702 -0.897654
C64   C     C_R   0.553519 0.460256 0.946143 0.099707
C65   C     C_R   0.579700 0.476996 0.036496 0.101818
C66   C     C_R   0.651311 0.550222 0.065498 -0.240565
H1    H     H_    0.357145 0.176784 0.726454 0.149518
H2    H     H_    0.494442 0.353193 0.841625 0.152335
H3    H     H_    0.454904 0.047372 0.735458 0.142141
H4    H     H_    0.553485 0.956984 0.270769 0.142315
H5    H     H_    0.056513 0.686932 0.536655 0.249833
H6    H     H_    0.961315 0.635570 0.458967 0.242205
H7    H     H_    0.939704 0.643393 0.577039 0.242043
H8    H     H_    0.962221 0.337894 0.566628 0.246175
H9    H     H_    0.987749 0.333116 0.449812 0.245418
H10   H     H_    0.083031 0.374758 0.530980 0.243169
H11   H     H_    0.266543 0.235667 0.427510 0.265822
H12   H     H_    0.641287 0.823584 0.273432 0.150274
H13   H     H_    0.196694 0.164945 0.337923 0.258374
H14   H     H_    0.291438 0.121359 0.394762 0.245854
H15   H     H_    0.351502 0.156245 0.248895 0.211345
H16   H     H_    0.420134 0.225473 0.336901 0.232710
H17   H     H_    0.308848 0.349035 0.326761 0.204400
H18   H     H_    0.249140 0.283942 0.235291 0.191189
H19   H     H_    0.692709 0.829811 0.587855 0.267611
H20   H     H_    0.769569 0.879607 0.682355 0.259938
H21   H     H_    0.821266 0.813046 0.589370 0.255195
H22   H     H_    0.793614 0.725181 0.712191 0.219774
H23   H     H_    0.542151 0.929222 0.653800 0.141131
H24   H     H_    0.714965 0.676770 0.620562 0.249878
H25   H     H_    0.571803 0.748556 0.693681 0.203431
H26   H     H_    0.644474 0.807806 0.777758 0.191555
H27   H     H_    0.770293 0.795718 0.854805 0.252454
H28   H     H_    0.719757 0.791147 0.962489 0.240241
H29   H     H_    0.815710 0.723441 0.919856 0.241031
H30   H     H_    0.285034 0.184369 0.125582 0.248512
H31   H     H_    0.280246 0.237350 0.030264 0.243512
H32   H     H_    0.374795 0.165430 0.042806 0.237383
H33   H     H_    0.237983 0.718771 0.611467 0.267404
H34   H     H_    0.469423 0.075590 0.353690 0.139201
H35   H     H_    0.271703 0.834749 0.659910 0.263365
H36   H     H_    0.180119 0.807556 0.573325 0.247977
H37   H     H_    0.334360 0.867445 0.511535 0.230450
H38   H     H_    0.307569 0.750716 0.466610 0.236487
H39   H     H_    0.421905 0.710254 0.573174 0.263475
H40   H     H_    0.444604 0.814847 0.628337 0.162230
H41   H     H_    0.759036 0.177757 0.373831 0.259786
H42   H     H_    0.770185 0.298005 0.407495 0.267993
H43   H     H_    0.836341 0.228771 0.466829 0.254530
H44   H     H_    0.690657 0.273577 0.553299 0.242951
H45   H     H_    0.738173 0.666786 0.037144 0.159941
H46   H     H_    0.679965 0.154626 0.517065 0.222147
H47   H     H_    0.579300 0.181648 0.384249 0.167651
H48   H     H_    0.581295 0.289961 0.426056 0.256354
H49   H     H_    0.847881 0.791139 0.298390 0.257677
H50   H     H_    0.802053 0.843839 0.402931 0.269345
H51   H     H_    0.915825 0.794511 0.399750 0.245952
H52   H     H_    0.775582 0.696970 0.456953 0.249813
H53   H     H_    0.830851 0.643529 0.358926 0.205608
H54   H     H_    0.657250 0.607127 0.339922 0.218740
H55   H     H_    0.695857 0.680915 0.265532 0.158878
H56   H     H_    0.416911 0.258187 0.937180 0.159428
H57   H     H_    0.152196 0.418491 0.689069 0.270458
H58   H     H_    0.142752 0.335477 0.763382 0.262809
H59   H     H_    0.193550 0.449559 0.802449 0.254346
H60   H     H_    0.326857 0.350625 0.775452 0.210973
H61   H     H_    0.334193 0.434320 0.702208 0.248671
H62   H     H_    0.263584 0.322556 0.577952 0.217225
H63   H     H_    0.229281 0.244461 0.648169 0.182982
H64   H     H_    0.583972 0.505790 0.214890 0.153487
H65   H     H_    0.471896 0.471428 0.792628 0.162511
H66   H     H_    0.684177 0.561367 0.130644 0.135891
N1    N     N_R   0.445040 0.272490 0.551770 -0.123028
N2    N     N_R   0.554960 0.727510 0.448230 -0.132563
O1    O     O_R   0.527700 0.614770 0.606110 -0.639555
O2    O     O_R   0.472300 0.385230 0.393890 -0.632821
O3    O     O_R   0.492440 0.468680 0.639380 -0.605787
O4    O     O_R   0.507560 0.531320 0.360620 -0.618216
O5    O     O_R   0.379820 0.583550 0.480950 -0.614760
O6    O     O_R   0.620180 0.416450 0.519050 -0.610447
O7    O     O_R   0.344560 0.437460 0.514220 -0.623576
O8    O     O_R   0.655440 0.562540 0.485780 -0.636109
Zn1   Zn    Zn3+2 0.523550 0.597550 0.477790 0.902759
Zn2   Zn    Zn3+2 0.476450 0.402450 0.522210 0.911218

loop_
_geom_bond_atom_site_label_1
_geom_bond_atom_site_label_2
_ccdc_geom_bond_type
C11   C18   A    
C34   C56   A    
C23   C45   A    
C40   H5    S    
C55   H46   S    
C18   C21   A    
C33   C45   A    
C19   C20   A    
C5    H1    S    
C63   H58   S    
C24   H4    S    
C52   H37   S    
C53   H33   S    
C28   C29   S    
C44   H11   S    
C35   C37   A    
C7    N1    A    
C2    H2    S    
O4    Zn1   S    
C62   H61   S    
C11   C14   A    
C6    H12   S    
C46   H26   S    
C28   C40   S    
C33   C49   S    
C54   H47   S    
C1    C31   S    
C33   C36   A    
C40   H7    S    
C18   C19   A    
C32   C39   A    
C37   C42   S    
C7    C61   S    
C8    C58   S    
C6    C15   A    
C46   C47   S    
O5    Zn1   S    
C57   H43   S    
C53   H35   S    
C58   H55   S    
C36   C46   S    
C49   H28   S    
C17   O6    A    
C40   H6    S    
C22   H3    S    
C61   H63   S    
O1    Zn1   S    
N2    Zn1   S    
C59   C60   S    
C12   C32   S    
C27   C30   S    
C10   C51   S    
C34   C65   A    
C2    C64   A    
C66   H66   S    
C16   C26   S    
C50   H32   S    
C13   C19   A    
C8    N2    A    
C34   C39   A    
O6    Zn2   S    
C44   H14   S    
C42   H18   S    
O7    Zn2   S    
C3    H45   S    
C62   H60   S    
C21   H34   S    
C6    C8    A    
C46   H25   S    
C58   C59   S    
C3    C45   A    
C51   C52   S    
C17   O8    A    
C2    C4    A    
C43   C44   S    
C62   C63   S    
C38   H65   S    
C41   H9    S    
C27   C41   S    
C47   C48   S    
C53   H36   S    
C51   H39   S    
C35   C50   S    
C58   H54   S    
C48   H21   S    
C4    H56   S    
C60   H51   S    
C32   C37   A    
C49   H29   S    
C9    C11   A    
C5    C14   A    
C63   H59   S    
C15   C24   A    
C57   H41   S    
O3    Zn2   S    
C20   C22   A    
C59   H52   S    
C55   C57   S    
C55   H44   S    
C43   H15   S    
C47   H24   S    
C48   H20   S    
C60   H50   S    
C16   O5    A    
C42   C43   S    
C1    O3    A    
C52   C53   S    
C5    C7    A    
C25   C30   T    
C54   C55   S    
C23   C64   A    
N1    Zn2   S    
C59   H53   S    
C50   H31   S    
C35   C56   A    
O8    Zn1   S    
C48   H19   S    
C44   H13   S    
C42   H17   S    
C10   N2    A    
C10   C13   A    
C63   H57   S    
C39   H64   S    
C23   C38   A    
C20   H23   S    
C31   C38   A    
C17   C25   S    
C47   H22   S    
C14   C22   A    
C13   C15   A    
C16   O7    A    
O2    Zn2   S    
C64   C65   A    
C41   H8    S    
C50   H30   S    
C51   H40   S    
C54   H48   S    
C52   H38   S    
C61   H62   S    
C12   O4    A    
C61   C62   S    
C3    C66   A    
C57   H42   S    
C26   C29   T    
C65   C66   A    
C12   O2    A    
C21   C24   A    
C27   C28   D    
C43   H16   S    
C31   C36   A    
C60   H49   S    
C9    C54   S    
C49   H27   S    
C1    O1    A    
C4    C56   A    
C41   H10   S    
C9    N1    A    
