data_mof_unit_22824.cif
_audit_creation_date              2012-10-26T18:47:34-0400
_audit_creation_method            fapswitch 2.2
_symmetry_space_group_name_H-M    P1
_symmetry_Int_Tables_number       1
_space_group_crystal_system       triclinic
_cell_length_a                    10.914618
_cell_length_b                    12.985444
_cell_length_c                    11.698612
_cell_angle_alpha                 99.928762
_cell_angle_beta                  94.274303
_cell_angle_gamma                 90.992931
_cell_volume                      1627.91349093

loop_
_atom_site_label
_atom_site_type_symbol
_atom_type_description
_atom_site_fract_x
_atom_site_fract_y
_atom_site_fract_z
_atom_type_partial_charge
C1    C     C_R   0.497829 0.299106 0.478565 0.543641
C2    C     C_R   0.558838 0.984621 0.649154 -0.128108
C3    C     C_R   0.449817 0.123473 0.360409 -0.117184
C4    C     C_R   0.550187 0.876527 0.639591 -0.117179
C5    C     C_R   0.530592 0.139272 0.562190 -0.122827
C6    C     C_R   0.469410 0.860728 0.437809 -0.122826
C7    C     C_R   0.522637 0.031215 0.553246 0.046838
C8    C     C_R   0.477366 0.968785 0.446754 0.046842
C9    C     C_R   0.435789 0.370816 0.021002 0.018869
C10   C     C_R   0.564216 0.629183 0.978998 0.018797
C11   C     C_R   0.431554 0.389758 0.143102 0.033113
C12   C     C_R   0.502171 0.700894 0.521435 0.543637
C13   C     C_R   0.568449 0.610241 0.856899 0.033121
C14   C     C_R   0.523740 0.557856 0.158276 0.095318
C15   C     C_R   0.476262 0.442144 0.841725 0.095387
C16   C     C_R   0.262167 0.501700 0.499715 0.575434
C17   C     C_R   0.737833 0.498306 0.500286 0.575441
C18   C     C_R   0.521575 0.547913 0.034913 -0.040611
C19   C     C_R   0.478431 0.452086 0.965088 -0.040534
C20   C     C_R   0.210023 0.642535 0.176237 -0.114164
C21   C     C_R   0.790033 0.357573 0.823859 -0.114160
C22   C     C_R   0.163525 0.628447 0.280737 -0.047452
C23   C     C_R   0.871797 0.496888 0.501317 -0.060401
C24   C     C_R   0.836502 0.371625 0.719335 -0.047495
C25   C     C_R   0.103034 0.533930 0.288339 0.098603
C26   C     C_R   0.896973 0.466136 0.711681 0.098562
C27   C     C_R   0.087389 0.454756 0.189966 -0.035405
C28   C     C_R   0.912623 0.545341 0.810021 -0.035469
C29   C     C_R   0.132955 0.468603 0.084435 0.038047
C30   C     C_R   0.867093 0.531527 0.915578 0.038060
C31   C     C_R   0.194917 0.563235 0.078475 -0.093506
C32   C     C_R   0.805155 0.436899 0.921593 -0.093417
C33   C     C_R   0.926585 0.513214 0.400889 0.342448
C34   C     C_R   0.128204 0.503128 0.498685 -0.060411
C35   C     C_R   0.073416 0.486806 0.599113 0.342427
C36   C     C_2   0.401311 0.263740 0.957462 0.573213
C37   C     C_2   0.598678 0.736263 0.042536 0.573173
C38   C     C_2   0.115147 0.384241 0.981359 0.585852
C39   C     C_2   0.884916 0.615919 0.018622 0.585792
C40   C     C_R   0.946475 0.482909 0.601489 -0.074656
C41   C     C_R   0.053526 0.517117 0.398515 -0.074655
C42   C     C_R   0.506357 0.814331 0.533714 0.006290
C43   C     C_R   0.493644 0.185669 0.466286 0.006290
C44   C     C_R   0.441167 0.015379 0.350845 -0.128110
Cu1   Cu    Cu3+1 0.509250 0.507730 0.615930 0.994598
Cu2   Cu    Cu3+1 0.490750 0.492270 0.384070 0.994576
F1    F     F_    0.856737 0.528128 0.304423 -0.580299
F2    F     F_    0.143263 0.471899 0.695582 -0.580300
H1    H     H_    0.231194 0.576103 0.998248 0.174337
H2    H     H_    0.824362 0.309641 0.644191 0.105970
H3    H     H_    0.039955 0.382253 0.196502 0.167358
H4    H     H_    0.960044 0.617838 0.803444 0.167366
H5    H     H_    0.434366 0.812840 0.356236 0.143756
H6    H     H_    0.565636 0.187160 0.643764 0.143769
H7    H     H_    0.579714 0.841575 0.714282 0.146183
H8    H     H_    0.420289 0.158425 0.285717 0.146172
H9    H     H_    0.405640 0.968458 0.268977 0.132993
H10   H     H_    0.594365 0.031542 0.731023 0.133008
H11   H     H_    0.433853 0.144985 0.828959 0.343569
H12   H     H_    0.768904 0.424057 0.001839 0.174383
H13   H     H_    0.566124 0.855016 0.171021 0.343574
H14   H     H_    0.039371 0.242631 0.910420 0.359304
H15   H     H_    0.960491 0.757627 0.089422 0.359329
H16   H     H_    0.433716 0.374318 0.785846 0.205639
H17   H     H_    0.566281 0.625682 0.214155 0.205623
H18   H     H_    0.602940 0.671179 0.814449 0.154200
H19   H     H_    0.397061 0.328820 0.185550 0.154180
H20   H     H_    0.257769 0.715104 0.170894 0.142401
H21   H     H_    0.742304 0.285008 0.829244 0.142420
H22   H     H_    0.175663 0.690408 0.355906 0.105958
N1    N     N_R   0.523180 0.519350 0.790130 -0.262260
N2    N     N_R   0.476820 0.480650 0.209870 -0.262253
O1    O     O_R   0.506570 0.354460 0.582000 -0.516745
O2    O     O_R   0.466279 0.218081 0.864121 -0.743887
O3    O     O_2   0.680358 0.786889 0.009388 -0.499119
O4    O     O_R   0.533707 0.781916 0.135870 -0.743888
O5    O     O_2   0.161702 0.392859 0.891585 -0.446144
O6    O     O_R   0.045246 0.294091 0.986517 -0.685846
O7    O     O_2   0.838569 0.607257 0.108478 -0.446107
O8    O     O_R   0.954592 0.706153 0.013336 -0.685777
O9    O     O_R   0.493430 0.645540 0.418000 -0.516741
O10   O     O_R   0.490940 0.341410 0.386200 -0.522783
O11   O     O_R   0.509060 0.658590 0.613800 -0.522783
O12   O     O_R   0.327460 0.506540 0.597900 -0.410576
O13   O     O_R   0.672540 0.493460 0.402100 -0.410598
O14   O     O_R   0.311830 0.493480 0.402100 -0.526024
O15   O     O_R   0.688170 0.506520 0.597900 -0.526018
O16   O     O_2   0.319618 0.213124 0.990614 -0.499139

loop_
_geom_bond_atom_site_label_1
_geom_bond_atom_site_label_2
_ccdc_geom_bond_type
C27   C29   A    
C14   C18   A    
C2    C7    A    
C7    C8    A    
Cu1   Cu2   S    
C36   O16   D    
C15   C19   A    
C3    C43   A    
C17   C23   S    
C10   C37   S    
C17   O13   A    
Cu1   O15   S    
C24   C26   A    
C18   C19   A    
C20   H20   S    
Cu1   N1    S    
C23   C40   A    
C16   O12   A    
Cu1   O1    S    
C34   C35   A    
C12   C42   S    
C16   C34   S    
Cu2   O10   S    
C1    C43   S    
C9    C19   A    
C11   H19   S    
C23   C33   A    
C22   C25   A    
C29   C38   S    
C12   O9    A    
C9    C36   S    
C15   H16   S    
Cu2   N2    S    
C13   H18   S    
Cu2   O13   S    
C5    C43   A    
C16   O14   A    
Cu1   O11   S    
C34   C41   A    
C13   N1    A    
C31   H1    S    
C35   F2    S    
C27   H3    S    
H15   O8    S    
H13   O4    S    
C24   H2    S    
C21   C32   A    
C3    C44   A    
C5    H6    S    
C25   C41   S    
C5    C7    A    
C11   N2    A    
C6    C8    A    
C38   O6    S    
C1    O10   A    
C12   O11   A    
C21   H21   S    
C39   O7    D    
C2    C4    A    
Cu2   O9    S    
C3    H8    S    
C44   H9    S    
C9    C11   A    
H11   O2    S    
C36   O2    S    
C37   O4    S    
C20   C22   A    
C4    H7    S    
C33   F1    S    
Cu1   O12   S    
C32   H12   S    
C6    H5    S    
C17   O15   A    
C14   N2    A    
H14   O6    S    
C8    C44   A    
C10   C13   A    
C2    H10   S    
C38   O5    D    
C25   C27   A    
C15   N1    A    
C26   C28   A    
C33   C41   A    
C39   O8    S    
C28   C30   A    
C35   C40   A    
C1    O1    A    
C29   C31   A    
C30   C32   A    
C28   H4    S    
C26   C40   S    
C4    C42   A    
C10   C18   A    
C14   H17   S    
C30   C39   S    
C37   O3    D    
C6    C42   A    
C21   C24   A    
C22   H22   S    
Cu2   O14   S    
C20   C31   A    
