data_mof_unit_18397.cif
_audit_creation_date              2012-12-10T19:01:50-0500
_audit_creation_method            fapswitch 2.2
_symmetry_space_group_name_H-M    P1
_symmetry_Int_Tables_number       1
_space_group_crystal_system       triclinic
_cell_length_a                    24.32555
_cell_length_b                    24.340474
_cell_length_c                    26.062977
_cell_angle_alpha                 90.004848
_cell_angle_beta                  89.977904
_cell_angle_gamma                 90.119874
_cell_volume                      15431.7342668

loop_
_atom_site_label
_atom_site_type_symbol
_atom_type_description
_atom_site_fract_x
_atom_site_fract_y
_atom_site_fract_z
_atom_type_partial_charge
C1    C     C_R   0.228765 0.271385 0.250874 -0.099212
C2    C     C_R   0.225218 0.732504 0.258509 -0.042890
C3    C     C_R   0.394983 0.105145 0.750067 0.852477
C4    C     C_R   0.894811 0.394844 0.250028 0.835136
C5    C     C_R   0.104933 0.605101 0.749891 0.845499
C6    C     C_R   0.394845 0.105026 0.250112 0.861281
C7    C     C_R   0.605024 0.894877 0.750037 0.852841
C8    C     C_R   0.895097 0.605317 0.749667 0.857644
C9    C     C_R   0.105033 0.394830 0.250093 0.844149
C10   C     C_R   0.394744 0.894856 0.749971 0.793278
C11   C     C_R   0.605111 0.105046 0.250086 0.844188
C12   C     C_R   0.104970 0.394748 0.749743 0.857758
C13   C     C_R   0.728192 0.771028 0.749065 -0.099846
C14   C     C_R   0.894701 0.605221 0.249969 0.851046
C15   C     C_R   0.605197 0.105210 0.750034 0.793193
C16   C     C_R   0.394944 0.894938 0.250037 0.844660
C17   C     C_R   0.201152 0.284575 0.204705 0.484250
C18   C     C_R   0.824716 0.741406 0.766614 0.472864
C19   C     C_R   0.287625 0.793491 0.208849 0.474060
C20   C     C_R   0.740508 0.176669 0.771160 0.483465
C21   C     C_R   0.814669 0.732668 0.215297 0.476284
C22   C     C_R   0.176839 0.259871 0.769139 0.469403
C23   C     C_R   0.717530 0.201208 0.209481 0.468743
C24   C     C_R   0.271111 0.228338 0.251386 -0.107554
C25   C     C_R   0.258655 0.824495 0.769878 0.483835
C26   C     C_R   0.792398 0.292008 0.798187 0.477327
C27   C     C_R   0.173531 0.743048 0.236127 0.464491
C28   C     C_R   0.714098 0.797525 0.795510 0.476533
C29   C     C_R   0.258426 0.174769 0.234076 0.466542
C30   C     C_R   0.206376 0.709639 0.797664 0.476648
C31   C     C_R   0.828636 0.255838 0.237773 0.479366
C32   C     C_R   0.287936 0.204108 0.796796 0.478567
C33   C     C_R   0.741319 0.825607 0.266547 0.481598
C34   C     C_R   0.701032 0.785482 0.703132 0.476730
C35   C     C_R   0.226993 0.729555 0.750650 -0.033194
C36   C     C_R   0.324827 0.240912 0.268188 0.474813
C37   C     C_R   0.791798 0.291511 0.704130 0.470877
C38   C     C_R   0.237539 0.680158 0.278163 0.483549
C39   C     C_R   0.299240 0.215165 0.703980 0.474355
C40   C     C_R   0.674488 0.758868 0.234517 0.478473
C41   C     C_R   0.207718 0.708673 0.703588 0.469815
C42   C     C_R   0.763570 0.318818 0.278161 0.471102
C43   C     C_R   0.290608 0.796070 0.302630 0.482683
C44   C     C_R   0.676394 0.241169 0.731804 0.485013
C45   C     C_R   0.215108 0.299241 0.296780 0.479470
C46   C     C_R   0.776312 0.266113 0.258976 -0.063132
C47   C     C_R   0.759612 0.675590 0.730032 0.480155
C48   C     C_R   0.708020 0.205294 0.302854 0.483126
C49   C     C_R   0.322826 0.759383 0.731409 0.485575
C50   C     C_R   0.767338 0.685143 0.284801 0.467526
C51   C     C_R   0.240961 0.325364 0.730507 0.479201
C52   C     C_R   0.158888 0.323071 0.205582 -0.301983
C53   C     C_R   0.864493 0.700325 0.768211 -0.314563
C54   C     C_R   0.327875 0.834180 0.206778 -0.342068
C55   C     C_R   0.699295 0.136777 0.771849 -0.334059
C56   C     C_R   0.855581 0.692359 0.215919 -0.322614
C57   C     C_R   0.273138 0.230293 0.750356 -0.105006
C58   C     C_R   0.136677 0.300572 0.770116 -0.316904
C59   C     C_R   0.676183 0.161681 0.207597 -0.334994
C60   C     C_R   0.300150 0.864087 0.770850 -0.334391
C61   C     C_R   0.835235 0.330750 0.796916 -0.354822
C62   C     C_R   0.135216 0.700736 0.231826 -0.309271
C63   C     C_R   0.675030 0.839322 0.795131 -0.302868
C64   C     C_R   0.299606 0.135140 0.232430 -0.305958
C65   C     C_R   0.164098 0.670227 0.796622 -0.355169
C66   C     C_R   0.866465 0.298620 0.233340 -0.326927
C67   C     C_R   0.326421 0.161793 0.795975 -0.300084
C68   C     C_R   0.728191 0.772011 0.250383 -0.028689
C69   C     C_R   0.700855 0.866515 0.264182 -0.343393
C70   C     C_R   0.659591 0.824856 0.704270 -0.303910
C71   C     C_R   0.364503 0.199701 0.269261 -0.325886
C72   C     C_R   0.830111 0.334480 0.704149 -0.357109
C73   C     C_R   0.197060 0.639101 0.276512 -0.360691
C74   C     C_R   0.340185 0.175283 0.704694 -0.300356
C75   C     C_R   0.633635 0.799164 0.236235 -0.341321
C76   C     C_R   0.169856 0.665349 0.703916 -0.358069
C77   C     C_R   0.803035 0.360301 0.275939 -0.325165
C78   C     C_R   0.333950 0.833849 0.299549 -0.342316
C79   C     C_R   0.147148 0.352251 0.250460 -0.142926
C80   C     C_R   0.636814 0.199776 0.729523 -0.309634
C81   C     C_R   0.175877 0.340824 0.295668 -0.304207
C82   C     C_R   0.801064 0.636298 0.728576 -0.313377
C83   C     C_R   0.663876 0.168551 0.299467 -0.342392
C84   C     C_R   0.362725 0.800475 0.729402 -0.309459
C85   C     C_R   0.807446 0.644225 0.283994 -0.320720
C86   C     C_R   0.199146 0.364218 0.728631 -0.312486
C87   C     C_3   0.261852 0.278343 0.137899 0.065952
C88   C     C_3   0.265708 0.260825 0.081743 -0.289507
C89   C     C_3   0.319658 0.279889 0.057651 -0.988408
C90   C     C_R   0.853024 0.647954 0.748827 -0.134964
C91   C     C_3   0.855664 0.826827 0.745854 0.066513
C92   C     C_3   0.879490 0.879595 0.768603 -0.281214
C93   C     C_3   0.899120 0.918803 0.726691 -0.999096
C94   C     C_3   0.296538 0.724931 0.150013 0.064393
C95   C     C_3   0.260477 0.688381 0.116182 -0.296635
C96   C     C_3   0.289575 0.634839 0.102514 -1.012759
C97   C     C_3   0.823736 0.139636 0.752716 0.054052
C98   C     C_3   0.883222 0.136032 0.771129 -0.288581
C99   C     C_3   0.919948 0.108911 0.730993 -0.991748
C100  C     C_3   0.807536 0.758902 0.131537 0.046071
C101  C     C_R   0.351507 0.853847 0.252009 -0.105972
C102  C     C_3   0.789716 0.808165 0.099358 -0.292157
C103  C     C_3   0.775892 0.791136 0.044531 -0.987329
C104  C     C_3   0.146444 0.173505 0.750827 0.066595
C105  C     C_3   0.121136 0.122298 0.775247 -0.280159
C106  C     C_3   0.101567 0.081552 0.734610 -0.999297
C107  C     C_3   0.716831 0.261412 0.142768 0.089365
C108  C     C_3   0.744625 0.277143 0.092258 -0.355971
C109  C     C_3   0.804152 0.295367 0.100225 -0.745528
C110  C     C_3   0.175895 0.862451 0.751209 0.053255
C111  C     C_3   0.116331 0.866551 0.769356 -0.287909
C112  C     C_R   0.771427 0.728864 0.748422 -0.100865
C113  C     C_R   0.647687 0.147811 0.750341 -0.135725
C114  C     C_3   0.080188 0.894514 0.729293 -0.992003
C115  C     C_3   0.764041 0.313206 0.881134 0.063302
C116  C     C_3   0.720032 0.295298 0.919449 -0.308751
C117  C     C_3   0.711736 0.338488 0.961150 -1.013713
C118  C     C_3   0.145116 0.830413 0.253433 0.058925
C119  C     C_3   0.157903 0.888999 0.236021 -0.295913
C120  C     C_3   0.140514 0.931166 0.276157 -0.996279
C121  C     C_3   0.715322 0.739836 0.864201 0.070736
C122  C     C_3   0.742589 0.729270 0.916024 -0.286370
C123  C     C_3   0.718203 0.678894 0.942527 -1.002181
C124  C     C_R   0.852033 0.647827 0.249972 -0.134945
C125  C     C_3   0.173412 0.142937 0.255710 0.062484
C126  C     C_3   0.122581 0.114901 0.233249 -0.283918
C127  C     C_3   0.083678 0.095145 0.275379 -0.995770
C128  C     C_3   0.231963 0.691878 0.882303 0.063498
C129  C     C_3   0.274088 0.711814 0.921573 -0.312417
C130  C     C_3   0.279046 0.671822 0.966393 -0.994691
C131  C     C_3   0.865693 0.173061 0.257580 0.057921
C132  C     C_3   0.873007 0.114238 0.238405 -0.288820
C133  C     C_3   0.899018 0.077887 0.279418 -0.987248
C134  C     C_3   0.286521 0.264024 0.863999 0.074607
C135  C     C_R   0.147430 0.352507 0.749423 -0.133363
C136  C     C_3   0.253238 0.281825 0.910848 -0.282355
C137  C     C_3   0.274203 0.336262 0.932482 -1.009240
C138  C     C_3   0.794039 0.860413 0.332383 0.055863
C139  C     C_3   0.848384 0.847014 0.358892 -0.311627
C140  C     C_3   0.849862 0.869717 0.413464 -0.981961
C141  C     C_3   0.755794 0.786916 0.632340 0.067471
C142  C     C_3   0.760887 0.764827 0.577714 -0.288917
C143  C     C_3   0.807950 0.792512 0.548782 -0.992584
C144  C     C_3   0.365207 0.322193 0.246934 0.065351
C145  C     C_3   0.385690 0.376799 0.268695 -0.287278
C146  C     C_R   0.648810 0.145910 0.252264 -0.108068
C147  C     C_3   0.415169 0.410783 0.227838 -0.998888
C148  C     C_3   0.811331 0.252186 0.625085 0.051706
C149  C     C_3   0.806049 0.281336 0.573391 -0.309699
C150  C     C_3   0.850360 0.262528 0.535903 -0.985510
C151  C     C_3   0.313771 0.623430 0.280577 0.056923
C152  C     C_3   0.376018 0.629006 0.286399 -0.303816
C153  C     C_3   0.405685 0.578166 0.266332 -0.981079
C154  C     C_3   0.241414 0.217593 0.635283 0.070117
C155  C     C_3   0.228628 0.247979 0.585432 -0.279141
C156  C     C_3   0.175212 0.227354 0.561461 -0.994294
C157  C     C_R   0.351964 0.852570 0.749962 -0.136345
C158  C     C_3   0.650905 0.705797 0.165647 0.061820
C159  C     C_3   0.662375 0.648450 0.144460 -0.311747
C160  C     C_3   0.655244 0.646465 0.086319 -0.991332
C161  C     C_3   0.188544 0.747724 0.624444 0.051876
C162  C     C_3   0.195639 0.720885 0.571847 -0.307034
C163  C     C_3   0.151453 0.739822 0.534313 -0.987884
C164  C     C_3   0.675164 0.346167 0.264738 0.061716
C165  C     C_3   0.624727 0.369381 0.292052 -0.283127
C166  C     C_3   0.579137 0.383689 0.254149 -0.993709
C167  C     C_3   0.252551 0.816255 0.381775 0.044228
C168  C     C_R   0.852765 0.352795 0.750248 -0.100755
C169  C     C_3   0.264292 0.801072 0.437619 -0.290736
C170  C     C_3   0.244083 0.845353 0.474510 -0.995945
C171  C     C_3   0.652320 0.329424 0.752141 0.057023
C172  C     C_3   0.671594 0.386910 0.736600 -0.301804
C173  C     C_3   0.660578 0.429027 0.778703 -0.994528
C174  C     C_3   0.218837 0.242976 0.366520 0.070372
C175  C     C_3   0.249204 0.232034 0.416771 -0.281231
C176  C     C_3   0.229678 0.178683 0.441632 -0.992316
C177  C     C_3   0.676442 0.639361 0.751974 0.053961
C178  C     C_3   0.630446 0.604241 0.729159 -0.289614
C179  C     C_R   0.146560 0.648833 0.252331 -0.133963
C180  C     C_3   0.593732 0.580148 0.771033 -0.989148
C181  C     C_3   0.744308 0.187135 0.382658 0.051161
C182  C     C_3   0.735842 0.205089 0.438312 -0.289857
C183  C     C_3   0.755465 0.161206 0.475886 -0.999120
C184  C     C_3   0.346168 0.671175 0.752646 0.057131
C185  C     C_3   0.326590 0.613703 0.737406 -0.302221
C186  C     C_3   0.335937 0.572108 0.780280 -0.995054
C187  C     C_3   0.738583 0.703769 0.365867 0.057348
C188  C     C_3   0.686554 0.716744 0.396321 -0.294836
C189  C     C_3   0.700307 0.741970 0.448335 -0.987895
C190  C     C_R   0.647229 0.852492 0.749846 -0.141175
C191  C     C_3   0.324404 0.362687 0.750457 0.056008
C192  C     C_3   0.365714 0.402458 0.726481 -0.294097
C193  C     C_3   0.403776 0.427093 0.766989 -0.988251
C194  C     C_3   0.075009 0.641474 0.379831 0.124410
C195  C     C_3   0.069365 0.700043 0.400980 -0.376375
C196  C     C_3   0.110521 0.738877 0.375639 -0.985025
C197  C     C_3   0.837994 0.481972 0.612255 0.158083
C198  C     C_3   0.779043 0.498978 0.599379 -0.395051
C199  C     C_3   0.738360 0.474902 0.637977 -0.961295
C200  C     C_3   0.476522 0.837572 0.389371 0.164078
C201  C     C_R   0.352371 0.147197 0.250568 -0.130724
C202  C     C_3   0.489384 0.778520 0.405660 -0.403728
C203  C     C_3   0.461049 0.737175 0.370355 -0.942271
C204  C     C_3   0.640778 0.071877 0.621212 0.122979
C205  C     C_3   0.700722 0.066227 0.603749 -0.370478
C206  C     C_3   0.738275 0.103703 0.634943 -0.994691
C207  C     C_3   0.924458 0.358597 0.380244 0.125631
C208  C     C_3   0.929775 0.300400 0.402366 -0.381202
C209  C     C_3   0.886207 0.262172 0.379983 -0.983600
C210  C     C_3   0.161931 0.518552 0.612016 0.157573
C211  C     C_3   0.220923 0.501813 0.598961 -0.393109
C212  C     C_R   0.147122 0.647365 0.750106 -0.100774
C213  C     C_3   0.261566 0.525819 0.637609 -0.964814
C214  C     C_3   0.519087 0.162810 0.389838 0.160183
C215  C     C_3   0.503797 0.221224 0.406162 -0.394256
C216  C     C_3   0.529620 0.263606 0.370338 -0.956153
C217  C     C_3   0.358206 0.929547 0.621732 0.122950
C218  C     C_3   0.298521 0.936599 0.603956 -0.369956
C219  C     C_3   0.260319 0.897841 0.633027 -0.997705
C220  C     C_3   0.562222 0.141254 0.875603 0.118255
C221  C     C_3   0.553048 0.202308 0.887240 -0.361758
C222  C     C_3   0.581922 0.238655 0.847848 -1.001603
C223  C     C_R   0.268254 0.774916 0.256862 -0.047112
C224  C     C_R   0.853962 0.350831 0.252538 -0.146336
C225  C     C_3   0.338651 0.968880 0.109855 0.158421
C226  C     C_3   0.279268 0.978737 0.092735 -0.393733
C227  C     C_3   0.238631 0.952283 0.129970 -0.945411
C228  C     C_3   0.143709 0.499481 0.886320 0.007193
C229  C     C_3   0.166487 0.506435 0.832121 -0.274492
C230  C     C_3   0.214648 0.467791 0.822219 -1.009093
C231  C     C_3   0.851344 0.499629 0.116878 0.038167
C232  C     C_3   0.861375 0.560166 0.102969 -0.367187
C233  C     C_3   0.811328 0.595255 0.115632 -0.977036
C234  C     C_3   0.436794 0.858507 0.875690 0.118331
C235  C     C_R   0.353069 0.147839 0.750251 -0.142662
C236  C     C_3   0.445820 0.797480 0.887567 -0.363124
C237  C     C_3   0.416236 0.761015 0.848734 -1.000415
C238  C     C_3   0.661442 0.030982 0.109235 0.162548
C239  C     C_3   0.720796 0.021626 0.091694 -0.409639
C240  C     C_3   0.761357 0.051172 0.126937 -0.922205
C241  C     C_3   0.856596 0.501526 0.885182 0.006636
C242  C     C_3   0.833816 0.492760 0.831237 -0.275434
C243  C     C_3   0.785387 0.530739 0.820359 -1.008895
C244  C     C_3   0.149490 0.508272 0.115792 0.048649
C245  C     C_3   0.143007 0.447635 0.100455 -0.375582
C246  C     C_R   0.647133 0.852946 0.250058 -0.090207
C247  C     C_3   0.196401 0.416218 0.108619 -0.984280
C248  C     C_R   0.065411 0.578952 0.449595 0.528557
C249  C     C_R   0.900245 0.467214 0.544389 0.525610
C250  C     C_R   0.462555 0.902061 0.455562 0.523216
C251  C     C_R   0.580557 0.063049 0.549930 0.526242
C252  C     C_R   0.934214 0.421543 0.449624 0.528405
C253  C     C_R   0.099545 0.533358 0.544308 0.525591
C254  C     C_R   0.535049 0.098397 0.455683 0.525806
C255  C     C_R   0.728896 0.229236 0.751691 -0.043804
C256  C     C_R   0.418485 0.937742 0.550373 0.526278
C257  C     C_R   0.556890 0.084662 0.949537 0.521833
C258  C     C_R   0.404575 0.956998 0.044427 0.519207
C259  C     C_R   0.093117 0.545150 0.946504 0.487994
C260  C     C_R   0.905274 0.459094 0.054106 0.516456
C261  C     C_R   0.442583 0.915166 0.949577 0.520221
C262  C     C_R   0.595355 0.042614 0.044076 0.520718
C263  C     C_R   0.905786 0.456931 0.947095 0.488517
C264  C     C_R   0.093148 0.545763 0.053410 0.514742
C265  C     C_R   0.113091 0.598569 0.474538 -0.329150
C266  C     C_R   0.770833 0.729333 0.250244 -0.024490
C267  C     C_R   0.867665 0.427776 0.518763 -0.333746
C268  C     C_R   0.420699 0.871840 0.480505 -0.339233
C269  C     C_R   0.601806 0.109781 0.524566 -0.329724
C270  C     C_R   0.886338 0.402260 0.474499 -0.328795
C271  C     C_R   0.131910 0.573054 0.518754 -0.333373
C272  C     C_R   0.576338 0.129457 0.480569 -0.340224
C273  C     C_R   0.396093 0.891651 0.524855 -0.329106
C274  C     C_R   0.601344 0.110005 0.975036 -0.318350
C275  C     C_R   0.376867 0.913306 0.019637 -0.341054
C276  C     C_R   0.131737 0.576296 0.973367 -0.309383
C277  C     C_R   0.229824 0.272423 0.750095 -0.101092
C278  C     C_R   0.865462 0.429246 0.027317 -0.313466
C279  C     C_R   0.398164 0.889867 0.975225 -0.317512
C280  C     C_R   0.622919 0.086424 0.019248 -0.344186
C281  C     C_R   0.865829 0.428104 0.974581 -0.309607
C282  C     C_R   0.131582 0.576928 0.026107 -0.304304
C283  C     C_R   0.543444 0.025957 0.024275 -0.054985
C284  C     C_R   0.466711 0.962186 0.972527 -0.066431
C285  C     C_R   0.045929 0.523417 0.027299 -0.102231
C286  C     C_R   0.953460 0.478342 0.972954 -0.093290
C287  C     C_R   0.456423 0.973693 0.024405 -0.054305
C288  C     C_R   0.733854 0.223103 0.257351 -0.078098
C289  C     C_R   0.532986 0.037534 0.972483 -0.066514
C290  C     C_R   0.953382 0.478895 0.027607 -0.097106
C291  C     C_R   0.045879 0.523125 0.972663 -0.093748
C292  C     C_R   0.046046 0.521777 0.524442 -0.060032
C293  C     C_R   0.963105 0.465909 0.472652 -0.069896
C294  C     C_R   0.464202 0.964489 0.527448 -0.066837
C295  C     C_R   0.522531 0.045287 0.475521 -0.058112
C296  C     C_R   0.953808 0.478598 0.524490 -0.060434
C297  C     C_R   0.036716 0.534436 0.472614 -0.069212
C298  C     C_R   0.535126 0.035662 0.527243 -0.067432
C299  C     C_R   0.270153 0.771760 0.750726 -0.043696
C300  C     C_R   0.476334 0.954821 0.475575 -0.057137
C301  C     C_R   0.000348 0.500077 0.110039 1.003699
C302  C     C_R   0.999894 0.500018 0.890016 0.987785
C303  C     C_R   0.500002 0.999954 0.109468 0.836602
C304  C     C_R   0.499973 0.999879 0.889769 0.980158
C305  C     C_R   0.500042 0.999993 0.610198 0.982896
C306  C     C_R   0.499827 0.999993 0.390498 0.840514
C307  C     C_R   0.000001 0.500033 0.609495 0.844999
C308  C     C_R   0.999990 0.500057 0.389812 0.984836
C309  C     C_R   0.499976 0.999838 0.052658 -0.118955
C310  C     C_R   0.771996 0.271493 0.751346 -0.034127
C311  C     C_R   0.499887 0.999844 0.945412 -0.100221
C312  C     C_R   0.000019 0.500534 0.054057 -0.133529
C313  C     C_R   0.999862 0.500190 0.946096 -0.130941
C314  C     C_R   0.999966 0.500124 0.552746 -0.121049
C315  C     C_R   0.999953 0.500120 0.445524 -0.107400
C316  C     C_R   0.499871 0.999971 0.554491 -0.105387
C317  C     C_R   0.499553 0.999998 0.447261 -0.121676
C318  C     C_R   0.105226 0.605161 0.250038 0.834014
C319  C     C_R   0.895121 0.394864 0.749837 0.844047
C320  C     C_R   0.604970 0.895013 0.249975 0.853276
H1    H     H_    0.860985 0.369841 0.459020 0.167339
H2    H     H_    0.661692 0.102282 0.033049 0.165651
H3    H     H_    0.100067 0.824607 0.776963 0.228900
H4    H     H_    0.114680 0.890478 0.805655 0.232792
H5    H     H_    0.095260 0.936837 0.721604 0.270486
H6    H     H_    0.037294 0.896946 0.743706 0.272789
H7    H     H_    0.080331 0.870619 0.692972 0.261459
H8    H     H_    0.750623 0.352807 0.863545 0.121104
H9    H     H_    0.803291 0.319451 0.902233 0.159334
H10   H     H_    0.680567 0.289006 0.898901 0.221262
H11   H     H_    0.732221 0.255806 0.937554 0.234375
H12   H     H_    0.750237 0.344261 0.983431 0.266461
H13   H     H_    0.832487 0.407825 0.954523 0.167096
H14   H     H_    0.678679 0.324808 0.987632 0.262765
H15   H     H_    0.699463 0.378332 0.943854 0.267491
H16   H     H_    0.166461 0.823460 0.290754 0.116855
H17   H     H_    0.100084 0.825885 0.259615 0.152126
H18   H     H_    0.202860 0.892987 0.229250 0.227514
H19   H     H_    0.136140 0.897605 0.199406 0.238202
H20   H     H_    0.095527 0.928574 0.283096 0.272919
H21   H     H_    0.150571 0.973115 0.262213 0.270603
H22   H     H_    0.162749 0.923982 0.312770 0.258911
H23   H     H_    0.720636 0.702551 0.840073 0.117896
H24   H     H_    0.163751 0.599142 0.045996 0.166598
H25   H     H_    0.670640 0.747552 0.870509 0.127008
H26   H     H_    0.787408 0.722779 0.910312 0.237158
H27   H     H_    0.736864 0.765798 0.940986 0.232086
H28   H     H_    0.673674 0.685070 0.949965 0.270645
H29   H     H_    0.739359 0.672191 0.979744 0.269520
H30   H     H_    0.723863 0.641768 0.918299 0.266326
H31   H     H_    0.159790 0.178527 0.279220 0.127010
H32   H     H_    0.195239 0.112700 0.280632 0.120490
H33   H     H_    0.100407 0.144288 0.208042 0.238050
H34   H     H_    0.135538 0.079122 0.209672 0.222011
H35   H     H_    0.621771 0.145961 0.959981 0.158529
H36   H     H_    0.104777 0.065210 0.300765 0.268300
H37   H     H_    0.047467 0.074682 0.257767 0.273123
H38   H     H_    0.069134 0.130472 0.298675 0.264010
H39   H     H_    0.246201 0.651521 0.866931 0.119711
H40   H     H_    0.191733 0.686707 0.902027 0.160505
H41   H     H_    0.314817 0.715926 0.902715 0.219611
H42   H     H_    0.261694 0.752774 0.936434 0.239953
H43   H     H_    0.239136 0.668201 0.986852 0.268465
H44   H     H_    0.310499 0.687212 0.993721 0.273452
H45   H     H_    0.291789 0.630621 0.952500 0.265121
H46   H     H_    0.338135 0.897491 0.033595 0.167827
H47   H     H_    0.838994 0.172017 0.292366 0.124897
H48   H     H_    0.906739 0.190185 0.267896 0.140041
H49   H     H_    0.832242 0.096970 0.227678 0.230178
H50   H     H_    0.899655 0.114323 0.203744 0.231219
H51   H     H_    0.940214 0.093962 0.290164 0.268828
H52   H     H_    0.903825 0.035517 0.264302 0.272941
H53   H     H_    0.872463 0.076368 0.314084 0.260962
H54   H     H_    0.286631 0.298686 0.836264 0.112850
H55   H     H_    0.329532 0.255109 0.876021 0.129062
H56   H     H_    0.209379 0.286707 0.899763 0.240648
H57   H     H_    0.164464 0.597163 0.952937 0.167570
H58   H     H_    0.255841 0.249598 0.940954 0.223384
H59   H     H_    0.318320 0.332941 0.942968 0.269488
H60   H     H_    0.250340 0.347116 0.967363 0.275394
H61   H     H_    0.269106 0.369570 0.903728 0.265916
H62   H     H_    0.759909 0.843954 0.356685 0.124988
H63   H     H_    0.789857 0.905794 0.329416 0.151238
H64   H     H_    0.853807 0.801692 0.360291 0.215723
H65   H     H_    0.882964 0.864929 0.336523 0.234261
H66   H     H_    0.845571 0.915140 0.412963 0.266460
H67   H     H_    0.889684 0.859089 0.431710 0.269999
H68   H     H_    0.832096 0.409254 0.047544 0.164342
H69   H     H_    0.816085 0.851623 0.436701 0.265364
H70   H     H_    0.795122 0.779038 0.652760 0.123110
H71   H     H_    0.748225 0.832090 0.630335 0.124116
H72   H     H_    0.768284 0.719785 0.578976 0.236096
H73   H     H_    0.721774 0.772313 0.556876 0.231914
H74   H     H_    0.800500 0.837392 0.545589 0.267453
H75   H     H_    0.810946 0.774983 0.509551 0.270338
H76   H     H_    0.847541 0.785451 0.568934 0.268089
H77   H     H_    0.336178 0.330851 0.214965 0.118370
H78   H     H_    0.401302 0.299010 0.231908 0.126084
H79   H     H_    0.136472 0.331485 0.170563 0.194458
H80   H     H_    0.350238 0.400629 0.283765 0.231310
H81   H     H_    0.414539 0.368720 0.300891 0.226393
H82   H     H_    0.451033 0.387879 0.212466 0.270340
H83   H     H_    0.430115 0.449789 0.245007 0.273298
H84   H     H_    0.386616 0.420678 0.195908 0.266551
H85   H     H_    0.804658 0.207524 0.619122 0.152062
H86   H     H_    0.854221 0.256594 0.639818 0.123400
H87   H     H_    0.764902 0.272441 0.556771 0.232773
H88   H     H_    0.809650 0.326442 0.579047 0.212628
H89   H     H_    0.891492 0.276403 0.549185 0.266257
H90   H     H_    0.904722 0.709905 0.783686 0.190048
H91   H     H_    0.842218 0.280438 0.497545 0.268428
H92   H     H_    0.850252 0.217078 0.532350 0.271427
H93   H     H_    0.304323 0.617121 0.239068 0.119516
H94   H     H_    0.299754 0.586974 0.302764 0.153655
H95   H     H_    0.390417 0.665678 0.264745 0.218373
H96   H     H_    0.386426 0.634918 0.327566 0.238152
H97   H     H_    0.392546 0.541163 0.288106 0.267789
H98   H     H_    0.450735 0.583515 0.271104 0.272297
H99   H     H_    0.396648 0.572015 0.224944 0.264782
H100  H     H_    0.204923 0.221133 0.660725 0.116749
H101  H     H_    0.342250 0.848515 0.169860 0.158335
H102  H     H_    0.249153 0.173468 0.626444 0.125439
H103  H     H_    0.224649 0.292667 0.593462 0.241770
H104  H     H_    0.262952 0.242043 0.557827 0.221475
H105  H     H_    0.178070 0.182720 0.553033 0.267300
H106  H     H_    0.167408 0.249786 0.525104 0.275724
H107  H     H_    0.140134 0.234667 0.587885 0.265842
H108  H     H_    0.676911 0.735838 0.144083 0.128120
H109  H     H_    0.606884 0.715992 0.159235 0.145574
H110  H     H_    0.705188 0.636585 0.154198 0.228066
H111  H     H_    0.633921 0.618390 0.162594 0.230417
H112  H     H_    0.172561 0.583939 0.531993 0.161389
H113  H     H_    0.708308 0.096766 0.787944 0.189887
H114  H     H_    0.612626 0.658060 0.075613 0.269131
H115  H     H_    0.663391 0.604169 0.072331 0.266753
H116  H     H_    0.684689 0.674952 0.067455 0.265277
H117  H     H_    0.194054 0.792780 0.620284 0.150538
H118  H     H_    0.145496 0.741347 0.638131 0.123660
H119  H     H_    0.236790 0.731666 0.556191 0.232096
H120  H     H_    0.193267 0.675501 0.575943 0.214178
H121  H     H_    0.110387 0.725049 0.546945 0.266293
H122  H     H_    0.160231 0.722832 0.495682 0.267564
H123  H     H_    0.150952 0.785341 0.531661 0.271891
H124  H     H_    0.889859 0.695919 0.189593 0.188001
H125  H     H_    0.662020 0.310110 0.241561 0.125780
H126  H     H_    0.692157 0.378592 0.238886 0.118818
H127  H     H_    0.608888 0.338583 0.319801 0.238792
H128  H     H_    0.636652 0.406911 0.313690 0.222698
H129  H     H_    0.593795 0.414961 0.226254 0.266781
H130  H     H_    0.543341 0.400645 0.275292 0.275338
H131  H     H_    0.565610 0.346355 0.233082 0.261251
H132  H     H_    0.207374 0.818299 0.375987 0.143480
H133  H     H_    0.269566 0.858071 0.374465 0.125515
H134  H     H_    0.243691 0.761496 0.446872 0.229749
H135  H     H_    0.096694 0.290999 0.786167 0.190983
H136  H     H_    0.309311 0.795720 0.442874 0.220110
H137  H     H_    0.266029 0.884671 0.467284 0.265689
H138  H     H_    0.252263 0.832454 0.514657 0.272783
H139  H     H_    0.199184 0.851782 0.469761 0.267337
H140  H     H_    0.672373 0.318680 0.789366 0.133617
H141  H     H_    0.607098 0.329860 0.758351 0.156706
H142  H     H_    0.716467 0.386028 0.728638 0.231382
H143  H     H_    0.649992 0.399710 0.700993 0.236418
H144  H     H_    0.615859 0.431354 0.787031 0.271140
H145  H     H_    0.675021 0.470087 0.765846 0.272655
H146  H     H_    0.664284 0.144885 0.170917 0.158540
H147  H     H_    0.683054 0.417823 0.814278 0.262719
H148  H     H_    0.222882 0.205823 0.342054 0.119137
H149  H     H_    0.174560 0.250400 0.375087 0.123839
H150  H     H_    0.294060 0.228959 0.409076 0.242488
H151  H     H_    0.242220 0.266761 0.443686 0.220527
H152  H     H_    0.184860 0.180552 0.449568 0.267092
H153  H     H_    0.251897 0.172266 0.478338 0.275896
H154  H     H_    0.238199 0.143245 0.415988 0.265861
H155  H     H_    0.657842 0.673368 0.774534 0.134342
H156  H     H_    0.701119 0.612760 0.778192 0.127239
H157  H     H_    0.291249 0.904214 0.786762 0.189794
H158  H     H_    0.605020 0.629786 0.703003 0.238103
H159  H     H_    0.648759 0.570128 0.706539 0.221538
H160  H     H_    0.618270 0.554268 0.797584 0.268142
H161  H     H_    0.561300 0.554217 0.753282 0.270282
H162  H     H_    0.573697 0.613592 0.793158 0.265849
H163  H     H_    0.789041 0.182847 0.375022 0.140371
H164  H     H_    0.724860 0.145958 0.377783 0.125274
H165  H     H_    0.758723 0.243913 0.445420 0.227881
H166  H     H_    0.691398 0.212836 0.445088 0.222289
H167  H     H_    0.731778 0.122580 0.470404 0.264489
H168  H     H_    0.853958 0.345069 0.832152 0.176530
H169  H     H_    0.749063 0.175624 0.515861 0.274165
H170  H     H_    0.799896 0.152831 0.470060 0.267303
H171  H     H_    0.325840 0.682448 0.789624 0.134139
H172  H     H_    0.391315 0.670411 0.759242 0.156358
H173  H     H_    0.281960 0.614985 0.728445 0.232903
H174  H     H_    0.348946 0.600106 0.702452 0.235632
H175  H     H_    0.380395 0.569279 0.789589 0.271242
H176  H     H_    0.321202 0.531083 0.767645 0.273755
H177  H     H_    0.312717 0.584172 0.815209 0.263088
H178  H     H_    0.762463 0.742679 0.361402 0.128300
H179  H     H_    0.096191 0.708963 0.213385 0.193879
H180  H     H_    0.763855 0.673623 0.387591 0.150497
H181  H     H_    0.660832 0.746086 0.374174 0.227518
H182  H     H_    0.662508 0.678386 0.402284 0.233598
H183  H     H_    0.725378 0.712959 0.471394 0.270682
H184  H     H_    0.661711 0.750848 0.469499 0.273749
H185  H     H_    0.723416 0.781015 0.443238 0.265331
H186  H     H_    0.347208 0.329408 0.770408 0.140603
H187  H     H_    0.299719 0.386011 0.779323 0.123758
H188  H     H_    0.390834 0.380425 0.697414 0.239843
H189  H     H_    0.343133 0.436165 0.706931 0.219487
H190  H     H_    0.665446 0.860468 0.830608 0.188295
H191  H     H_    0.379545 0.449038 0.796713 0.268051
H192  H     H_    0.432323 0.456799 0.748578 0.270973
H193  H     H_    0.428346 0.394241 0.785594 0.266191
H194  H     H_    0.059722 0.642401 0.339777 0.150095
H195  H     H_    0.118415 0.627391 0.377045 0.145252
H196  H     H_    0.027006 0.715119 0.393542 0.227376
H197  H     H_    0.075803 0.700744 0.443090 0.228054
H198  H     H_    0.153222 0.724521 0.382483 0.281271
H199  H     H_    0.106041 0.780720 0.392060 0.262804
H200  H     H_    0.102853 0.741015 0.333717 0.261780
H201  H     H_    0.289826 0.094576 0.217856 0.182302
H202  H     H_    0.847512 0.499187 0.650568 0.226806
H203  H     H_    0.841741 0.436566 0.616367 0.100669
H204  H     H_    0.776008 0.544540 0.600228 0.242802
H205  H     H_    0.767828 0.484897 0.560253 0.225913
H206  H     H_    0.739935 0.429292 0.637050 0.273985
H207  H     H_    0.696028 0.488208 0.628138 0.271707
H208  H     H_    0.748100 0.489404 0.677381 0.261918
H209  H     H_    0.495860 0.844113 0.351322 0.218397
H210  H     H_    0.431705 0.843843 0.383455 0.105666
H211  H     H_    0.534570 0.771918 0.404095 0.235248
H212  H     H_    0.145174 0.656166 0.831856 0.175482
H213  H     H_    0.475746 0.771174 0.445716 0.229629
H214  H     H_    0.415694 0.742216 0.372255 0.280969
H215  H     H_    0.471512 0.694766 0.382561 0.268767
H216  H     H_    0.474905 0.743029 0.330097 0.267165
H217  H     H_    0.638769 0.056637 0.661242 0.155584
H218  H     H_    0.626727 0.115361 0.622833 0.145055
H219  H     H_    0.714109 0.022939 0.608913 0.227963
H220  H     H_    0.705079 0.076442 0.562483 0.223175
H221  H     H_    0.724752 0.147105 0.631480 0.281838
H222  H     H_    0.781135 0.100286 0.620652 0.261516
H223  H     H_    0.588668 0.169573 0.467013 0.164107
H224  H     H_    0.906000 0.290511 0.215787 0.191901
H225  H     H_    0.737397 0.091417 0.675915 0.261655
H226  H     H_    0.939820 0.356866 0.340220 0.146997
H227  H     H_    0.881154 0.372905 0.377101 0.148281
H228  H     H_    0.971241 0.283998 0.393171 0.222415
H229  H     H_    0.925756 0.300846 0.444749 0.231008
H230  H     H_    0.844389 0.277388 0.389430 0.280105
H231  H     H_    0.891089 0.220329 0.396293 0.263237
H232  H     H_    0.890742 0.259809 0.337716 0.259432
H233  H     H_    0.152517 0.501143 0.650284 0.226242
H234  H     H_    0.158033 0.563921 0.616281 0.100971
H235  H     H_    0.336504 0.140841 0.831420 0.188430
H236  H     H_    0.224114 0.456257 0.599584 0.242020
H237  H     H_    0.232042 0.516151 0.559886 0.226478
H238  H     H_    0.259844 0.571427 0.636899 0.275156
H239  H     H_    0.303932 0.512702 0.627640 0.271557
H240  H     H_    0.251913 0.511080 0.676962 0.261399
H241  H     H_    0.500327 0.155515 0.351670 0.216211
H242  H     H_    0.564155 0.158317 0.384116 0.104299
H243  H     H_    0.458340 0.225776 0.405255 0.240468
H244  H     H_    0.517848 0.229257 0.445979 0.229514
H245  H     H_    0.575146 0.260178 0.371407 0.274848
H246  H     H_    0.710866 0.908481 0.274464 0.148995
H247  H     H_    0.517819 0.305585 0.382786 0.271359
H248  H     H_    0.515093 0.257219 0.330359 0.265311
H249  H     H_    0.360212 0.944394 0.661894 0.153558
H250  H     H_    0.371400 0.885785 0.623154 0.145450
H251  H     H_    0.285422 0.979685 0.610936 0.226260
H252  H     H_    0.294564 0.928598 0.562227 0.225349
H253  H     H_    0.273301 0.854547 0.627308 0.279753
H254  H     H_    0.217576 0.902656 0.618819 0.262915
H255  H     H_    0.261204 0.907629 0.674571 0.261781
H256  H     H_    0.547577 0.133780 0.835934 0.159878
H257  H     H_    0.638144 0.834865 0.669059 0.188067
H258  H     H_    0.606582 0.129981 0.875753 0.139187
H259  H     H_    0.508266 0.211292 0.886369 0.234099
H260  H     H_    0.568498 0.212720 0.926074 0.213355
H261  H     H_    0.626240 0.228087 0.845416 0.272711
H262  H     H_    0.577991 0.282452 0.859153 0.261600
H263  H     H_    0.562717 0.233177 0.809547 0.268873
H264  H     H_    0.343814 0.989417 0.147537 0.216900
H265  H     H_    0.346946 0.924552 0.116604 0.104262
H266  H     H_    0.271402 0.023682 0.091179 0.241698
H267  H     H_    0.272381 0.961732 0.053758 0.229702
H268  H     H_    0.405230 0.209360 0.283559 0.179105
H269  H     H_    0.245152 0.907145 0.131595 0.286475
H270  H     H_    0.195946 0.960245 0.116911 0.272506
H271  H     H_    0.243795 0.969873 0.169018 0.259709
H272  H     H_    0.126185 0.457436 0.890475 0.151103
H273  H     H_    0.178697 0.504057 0.913695 0.143817
H274  H     H_    0.133318 0.498043 0.803949 0.220701
H275  H     H_    0.180788 0.549464 0.826846 0.210775
H276  H     H_    0.249275 0.477472 0.848502 0.263836
H277  H     H_    0.229138 0.472983 0.782116 0.263595
H278  H     H_    0.201867 0.424416 0.828071 0.266997
H279  H     H_    0.843604 0.352164 0.668161 0.158675
H280  H     H_    0.843275 0.497151 0.158784 0.159146
H281  H     H_    0.813488 0.484070 0.097820 0.136344
H282  H     H_    0.897258 0.575986 0.124709 0.247767
H283  H     H_    0.870247 0.564126 0.061311 0.211675
H284  H     H_    0.775012 0.580937 0.093495 0.270419
H285  H     H_    0.819838 0.638622 0.105217 0.257729
H286  H     H_    0.802004 0.593100 0.157298 0.265508
H287  H     H_    0.451353 0.865679 0.835941 0.159970
H288  H     H_    0.392476 0.869943 0.875915 0.139670
H289  H     H_    0.490542 0.788273 0.886204 0.233553
H290  H     H_    0.205309 0.599360 0.293424 0.174859
H291  H     H_    0.430858 0.787377 0.926643 0.214063
H292  H     H_    0.371979 0.771906 0.846621 0.272619
H293  H     H_    0.419915 0.717288 0.860343 0.261912
H294  H     H_    0.435097 0.765993 0.810216 0.268451
H295  H     H_    0.656702 0.010560 0.147025 0.216387
H296  H     H_    0.652767 0.075192 0.115884 0.102014
H297  H     H_    0.729740 0.976854 0.092163 0.236477
H298  H     H_    0.726659 0.036556 0.051833 0.231275
H299  H     H_    0.754336 0.096242 0.125707 0.289909
H300  H     H_    0.804048 0.042770 0.114109 0.270137
H301  H     H_    0.360950 0.164821 0.669227 0.188138
H302  H     H_    0.756631 0.036489 0.167064 0.261836
H303  H     H_    0.874850 0.543396 0.887853 0.149921
H304  H     H_    0.821460 0.498810 0.912621 0.144103
H305  H     H_    0.866928 0.500525 0.802840 0.221139
H306  H     H_    0.819757 0.449517 0.827134 0.210993
H307  H     H_    0.750669 0.521294 0.846637 0.263522
H308  H     H_    0.771217 0.524552 0.780286 0.263679
H309  H     H_    0.797731 0.574334 0.825507 0.265527
H310  H     H_    0.157167 0.510060 0.157786 0.157084
H311  H     H_    0.186492 0.526596 0.097397 0.141196
H312  H     H_    0.591825 0.788851 0.225540 0.154090
H313  H     H_    0.109905 0.428470 0.123768 0.236406
H314  H     H_    0.131590 0.444180 0.059318 0.215366
H315  H     H_    0.229920 0.434343 0.085081 0.266454
H316  H     H_    0.190454 0.372887 0.096582 0.272460
H317  H     H_    0.208423 0.417255 0.149720 0.262869
H318  H     H_    0.156794 0.647132 0.668023 0.159428
H319  H     H_    0.361779 0.868496 0.539874 0.170652
H320  H     H_    0.793211 0.400298 0.291676 0.189567
H321  H     H_    0.353245 0.848389 0.334370 0.153457
H322  H     H_    0.597038 0.208917 0.712953 0.189860
H323  H     H_    0.166842 0.363141 0.330639 0.188734
H324  H     H_    0.791769 0.595988 0.713158 0.187010
H325  H     H_    0.642304 0.156619 0.333996 0.156791
H326  H     H_    0.402664 0.790982 0.713322 0.189346
H327  H     H_    0.803754 0.610007 0.310347 0.191713
H328  H     H_    0.207942 0.404234 0.712315 0.186482
H329  H     H_    0.297592 0.260651 0.158523 0.134119
H330  H     H_    0.138194 0.631243 0.459143 0.166495
H331  H     H_    0.264218 0.324042 0.139915 0.123446
H332  H     H_    0.263142 0.215292 0.079254 0.241631
H333  H     H_    0.230759 0.278571 0.059886 0.219065
H334  H     H_    0.321756 0.325485 0.057160 0.267245
H335  H     H_    0.322310 0.264538 0.017642 0.275641
H336  H     H_    0.355210 0.263470 0.079515 0.265751
H337  H     H_    0.820410 0.837928 0.720787 0.122267
H338  H     H_    0.888246 0.806447 0.722487 0.124013
H339  H     H_    0.847540 0.900405 0.792080 0.236645
H340  H     H_    0.914723 0.869252 0.793957 0.224100
H341  H     H_    0.826942 0.417097 0.531982 0.162040
H342  H     H_    0.931672 0.899122 0.703148 0.267357
H343  H     H_    0.916363 0.956519 0.744519 0.270387
H344  H     H_    0.864267 0.930656 0.701509 0.265558
H345  H     H_    0.309645 0.700222 0.183955 0.126738
H346  H     H_    0.333863 0.737393 0.128207 0.140999
H347  H     H_    0.221700 0.678513 0.136861 0.235916
H348  H     H_    0.249888 0.710785 0.080385 0.232398
H349  H     H_    0.328898 0.643512 0.082391 0.271441
H350  H     H_    0.262970 0.609931 0.076860 0.264637
H351  H     H_    0.298093 0.610657 0.137760 0.261612
H352  H     H_    0.407258 0.832189 0.466722 0.163011
H353  H     H_    0.823038 0.163797 0.716303 0.130922
H354  H     H_    0.808157 0.097335 0.745222 0.143749
H355  H     H_    0.898950 0.178080 0.779195 0.229454
H356  H     H_    0.884910 0.111755 0.807217 0.232492
H357  H     H_    0.905392 0.066517 0.722808 0.269620
H358  H     H_    0.962766 0.106787 0.745615 0.272618
H359  H     H_    0.919795 0.133205 0.694907 0.261298
H360  H     H_    0.774045 0.727501 0.130060 0.128513
H361  H     H_    0.845607 0.741151 0.114718 0.150225
H362  H     H_    0.752843 0.827295 0.117113 0.224035
H363  H     H_    0.635772 0.133484 0.539508 0.170135
H364  H     H_    0.823328 0.839164 0.098589 0.235076
H365  H     H_    0.812127 0.771860 0.025902 0.271650
H366  H     H_    0.763859 0.827927 0.022032 0.273900
H367  H     H_    0.741047 0.761578 0.044410 0.263600
H368  H     H_    0.181931 0.160555 0.726829 0.125126
H369  H     H_    0.114704 0.193374 0.726112 0.122439
H370  H     H_    0.152194 0.101992 0.800087 0.237798
H371  H     H_    0.085622 0.134479 0.799548 0.223556
H372  H     H_    0.069891 0.100734 0.709731 0.266954
H373  H     H_    0.083228 0.045029 0.753626 0.271384
H374  H     H_    0.377515 0.854054 0.960152 0.160116
H375  H     H_    0.136671 0.067870 0.710543 0.265377
H376  H     H_    0.718517 0.297549 0.168837 0.103883
H377  H     H_    0.673010 0.251338 0.134446 0.087671
H378  H     H_    0.743494 0.241610 0.065473 0.225631
H379  H     H_    0.721398 0.311505 0.074588 0.167649
H380  H     H_    0.805956 0.331504 0.126230 0.237636
H381  H     H_    0.822434 0.306925 0.062705 0.224299
H382  H     H_    0.828851 0.261430 0.116833 0.305614
H383  H     H_    0.176590 0.838521 0.714659 0.130180
H384  H     H_    0.191942 0.904650 0.744090 0.143533
O1    O     O_3   1.000000 0.500000 0.250000 -0.491006
O2    O     O_R   1.000000 0.454520 0.865790 -0.611922
O3    O     O_3   0.101124 0.538934 0.105774 -0.650278
O4    O     O_R   0.545480 0.000000 0.134210 -0.620908
O5    O     O_R   0.454520 1.000000 0.865790 -0.639241
O6    O     O_R   0.500000 0.954520 0.634210 -0.636831
O7    O     O_R   0.500000 0.045480 0.365790 -0.623034
O8    O     O_R   0.954520 0.500000 0.634210 -0.626102
O9    O     O_R   0.045480 0.500000 0.365790 -0.636572
O10   O     O_R   0.500000 0.045480 0.634210 -0.636761
O11   O     O_R   0.500000 0.954520 0.365790 -0.622642
O12   O     O_R   0.045480 0.500000 0.634210 -0.626142
O13   O     O_3   1.000000 0.500000 0.750000 -0.490000
O14   O     O_R   0.954520 0.500000 0.365790 -0.635352
O15   O     O_R   0.063990 0.609460 0.219650 -0.623572
O16   O     O_R   0.936010 0.390540 0.780350 -0.618201
O17   O     O_R   0.609460 0.936010 0.219650 -0.651070
O18   O     O_R   0.390540 0.063990 0.780350 -0.641876
O19   O     O_R   0.936010 0.390540 0.219650 -0.623373
O20   O     O_R   0.063990 0.609460 0.780350 -0.617872
O21   O     O_R   0.390540 0.063990 0.219650 -0.656633
O22   O     O_R   0.609460 0.936010 0.780350 -0.642216
O23   O     O_R   0.936010 0.609460 0.780350 -0.650454
O24   O     O_3   0.500000 0.000000 0.250000 -0.476973
O25   O     O_R   0.063990 0.390540 0.219650 -0.656056
O26   O     O_R   0.390540 0.936010 0.780350 -0.654461
O27   O     O_R   0.609460 0.063990 0.219650 -0.677751
O28   O     O_R   0.063990 0.390540 0.780350 -0.650107
O29   O     O_R   0.936010 0.609460 0.219650 -0.659376
O30   O     O_R   0.609460 0.063990 0.780350 -0.654580
O31   O     O_R   0.390540 0.936010 0.219650 -0.678818
O32   O     O_R   0.563990 0.109460 0.719650 -0.654640
O33   O     O_R   0.436010 0.890540 0.280350 -0.676917
O34   O     O_R   0.109460 0.436010 0.719650 -0.668383
O35   O     O_3   0.500000 0.000000 0.750000 -0.492281
O36   O     O_R   0.890540 0.563990 0.280350 -0.648989
O37   O     O_R   0.436010 0.890540 0.719650 -0.653346
O38   O     O_R   0.563990 0.109460 0.280350 -0.676603
O39   O     O_R   0.890540 0.563990 0.719650 -0.667855
O40   O     O_R   0.109460 0.436010 0.280350 -0.645196
O41   O     O_R   0.436010 0.109460 0.280350 -0.661866
O42   O     O_R   0.563990 0.890540 0.719650 -0.643487
O43   O     O_R   0.890540 0.436010 0.280350 -0.660993
O44   O     O_R   0.109460 0.563990 0.719650 -0.692378
O45   O     O_R   0.563990 0.890540 0.280350 -0.655582
O46   O     O_R   1.000000 0.454520 0.134210 -0.620885
O47   O     O_R   0.436010 0.109460 0.719650 -0.642676
O48   O     O_R   0.109460 0.563990 0.280350 -0.661173
O49   O     O_R   0.890540 0.436010 0.719650 -0.692539
O50   O     O_3   0.212258 0.257958 0.158895 -0.593163
O51   O     O_3   0.837503 0.792657 0.786219 -0.592257
O52   O     O_3   0.266494 0.772402 0.163710 -0.609129
O53   O     O_3   0.791742 0.164934 0.791228 -0.605022
O54   O     O_3   0.818193 0.776877 0.182102 -0.609015
O55   O     O_3   0.164679 0.209073 0.790101 -0.592433
O56   O     O_3   0.743961 0.215819 0.164513 -0.579002
O57   O     O_R   0.000000 0.545480 0.865790 -0.612635
O58   O     O_3   0.207364 0.836544 0.789706 -0.603490
O59   O     O_3   0.770990 0.271432 0.843925 -0.615549
O60   O     O_3   0.161911 0.793584 0.214553 -0.602853
O61   O     O_3   0.740829 0.785650 0.840983 -0.592057
O62   O     O_3   0.206983 0.161599 0.215081 -0.592608
O63   O     O_3   0.226899 0.731779 0.843138 -0.614633
O64   O     O_3   0.841736 0.204739 0.218207 -0.602572
O65   O     O_3   0.262123 0.216567 0.842660 -0.591218
O66   O     O_3   0.794461 0.837277 0.282573 -0.613527
O67   O     O_3   0.712331 0.759215 0.657293 -0.591450
O68   O     O_R   0.454520 0.000000 0.134210 -0.619903
O69   O     O_3   0.338022 0.292765 0.286147 -0.592540
O70   O     O_3   0.769786 0.271529 0.658661 -0.616242
O71   O     O_3   0.288619 0.671223 0.300474 -0.607670
O72   O     O_3   0.288065 0.241783 0.658265 -0.590054
O73   O     O_3   0.662202 0.705937 0.218859 -0.611556
O74   O     O_3   0.229934 0.727984 0.657960 -0.615501
O75   O     O_3   0.713908 0.329621 0.301942 -0.596297
O76   O     O_3   0.274301 0.774730 0.349594 -0.608852
O77   O     O_3   0.664481 0.292409 0.711800 -0.608263
O78   O     O_3   0.242563 0.289146 0.342296 -0.591264
O79   O     O_R   0.545480 1.000000 0.865790 -0.640669
O80   O     O_3   0.708114 0.661802 0.711604 -0.591760
O81   O     O_3   0.722497 0.227928 0.349766 -0.602756
O82   O     O_3   0.334730 0.707910 0.711907 -0.608289
O83   O     O_3   0.723341 0.680977 0.318113 -0.609352
O84   O     O_3   0.292053 0.339168 0.711091 -0.592649
O85   O     O_3   0.041050 0.604400 0.407113 -0.674581
O86   O     O_3   0.875586 0.505546 0.576817 -0.622308
O87   O     O_3   0.500547 0.875639 0.423953 -0.622177
O88   O     O_3   0.605910 0.037676 0.591835 -0.677239
O89   O     O_3   0.958407 0.396053 0.407044 -0.674736
O90   O     O_R   1.000000 0.545480 0.134210 -0.621250
O91   O     O_3   0.124380 0.494997 0.576563 -0.621983
O92   O     O_3   0.496269 0.123938 0.424324 -0.621313
O93   O     O_3   0.394034 0.963169 0.592759 -0.676338
O94   O     O_3   0.529348 0.108192 0.907995 -0.677556
O95   O     O_3   0.375977 0.994023 0.075317 -0.619406
O96   O     O_3   0.101749 0.538770 0.894394 -0.649961
O97   O     O_3   0.898027 0.466567 0.106501 -0.653155
O98   O     O_3   0.469836 0.891703 0.907802 -0.678042
O99   O     O_3   0.624010 0.005641 0.074970 -0.620667
O100  O     O_3   0.897858 0.461856 0.894749 -0.650431
Zn1   Zn    Zn3+2 0.064970 0.500000 0.293390 0.979129
Zn2   Zn    Zn3+2 0.435030 0.000000 0.206610 0.941450
Zn3   Zn    Zn3+2 1.000000 0.435030 0.793390 0.992973
Zn4   Zn    Zn3+2 0.000000 0.564970 0.206610 0.995663
Zn5   Zn    Zn3+2 0.435030 0.000000 0.793390 0.977092
Zn6   Zn    Zn3+2 0.564970 0.000000 0.206610 0.942354
Zn7   Zn    Zn3+2 1.000000 0.564970 0.793390 0.992493
Zn8   Zn    Zn3+2 1.000000 0.435030 0.206610 0.996946
Zn9   Zn    Zn3+2 0.935030 0.500000 0.706610 0.928975
Zn10  Zn    Zn3+2 0.500000 0.935030 0.293390 0.939929
Zn11  Zn    Zn3+2 0.500000 0.064970 0.706610 0.978190
Zn12  Zn    Zn3+2 0.935030 0.500000 0.293390 0.979975
Zn13  Zn    Zn3+2 0.064970 0.500000 0.706610 0.929274
Zn14  Zn    Zn3+2 0.500000 0.064970 0.293390 0.938207
Zn15  Zn    Zn3+2 0.500000 0.935030 0.706610 0.978315
Zn16  Zn    Zn3+2 0.564970 0.000000 0.793390 0.975738

loop_
_geom_bond_atom_site_label_1
_geom_bond_atom_site_label_2
_ccdc_geom_bond_type
C102  H362  S    
C138  O66   S    
O35   Zn15  S    
C126  C127  S    
C263  O100  S    
C191  O84   S    
C108  H379  S    
C91   H337  S    
C155  H104  S    
C64   C201  A    
C8    O23   A    
O19   Zn8   S    
C251  C269  A    
C74   H301  S    
C181  O81   S    
C209  H231  S    
C22   C277  A    
O30   Zn16  S    
C290  C312  A    
C70   C190  A    
C51   O84   S    
C308  O9    A    
C183  H169  S    
O7    Zn14  S    
C130  H44   S    
C162  C163  S    
C13   C112  S    
C150  H91   S    
O1    Zn12  S    
C22   O55   S    
O38   Zn14  S    
C178  H159  S    
C208  H229  S    
C103  H365  S    
C244  C245  S    
C245  C247  S    
C220  O94   S    
C237  H294  S    
C39   C74   A    
C180  H162  S    
C249  C296  A    
C94   O52   S    
C37   O70   S    
C158  H109  S    
C3    C235  S    
C134  H54   S    
C147  H83   S    
C185  H174  S    
C12   C135  S    
C33   O66   S    
C145  H81   S    
C306  O7    A    
C130  H45   S    
C25   C60   A    
O13   Zn3   S    
C303  O68   A    
C36   C71   A    
C33   C69   A    
C304  O5    A    
C99   H358  S    
C172  H142  S    
C96   H349  S    
C29   C64   A    
O10   Zn11  S    
C78   C101  A    
C204  C205  S    
C292  C297  A    
C234  C236  S    
C32   C57   A    
C105  H371  S    
C118  H17   S    
C121  H23   S    
C17   C52   A    
C104  C105  S    
C165  H127  S    
C167  H132  S    
C140  H69   S    
C161  H117  S    
C45   O78   S    
C260  C290  A    
C202  C203  S    
C191  C192  S    
C202  H211  S    
C269  H363  S    
C116  H11   S    
C14   C124  S    
C297  C315  A    
C192  H189  S    
C111  H3    S    
C255  C310  S    
C159  H110  S    
C10   O37   A    
C220  H256  S    
C227  H271  S    
C258  O95   S    
C215  C216  S    
C14   O36   A    
C229  C230  S    
C261  C284  A    
C191  H187  S    
C175  C176  S    
C109  H382  S    
C94   H346  S    
C232  H282  S    
C283  C309  A    
C259  C276  A    
C307  C314  S    
O8    Zn9   S    
C287  C309  A    
C154  C155  S    
C248  O85   S    
O2    Zn3   S    
C85   H327  S    
C174  H148  S    
C151  H93   S    
C195  H197  S    
C6    O41   A    
C143  H76   S    
C64   H201  S    
C125  H31   S    
C302  C313  S    
C158  C159  S    
C4    O43   A    
C169  H136  S    
C216  H248  S    
C63   H190  S    
C122  H27   S    
C210  O91   S    
C200  H209  S    
C11   O27   A    
C156  H105  S    
C62   C179  A    
C10   O26   A    
C20   C255  A    
C163  H123  S    
C100  C102  S    
C9    O25   A    
C5    C212  S    
C184  H172  S    
C278  H68   S    
C214  C215  S    
C246  C320  S    
C267  H341  S    
C284  C287  A    
C45   C81   A    
C75   H312  S    
C203  H215  S    
C144  C145  S    
C119  H18   S    
C150  H89   S    
C22   C58   A    
C139  C140  S    
C188  H182  S    
C21   O54   S    
C171  H141  S    
C262  O99   S    
C107  H376  S    
C291  C313  A    
C61   C168  A    
C250  O87   S    
O18   Zn5   S    
C53   H90   S    
C176  H154  S    
C241  O100  S    
C55   H113  S    
C230  H276  S    
C276  C282  A    
C110  H384  S    
C239  H297  S    
C181  H164  S    
C125  O62   S    
C83   H325  S    
C7    O22   A    
C100  O54   S    
C26   O59   S    
C195  C196  S    
C28   C63   A    
C303  O4    A    
C127  H37   S    
C96   H351  S    
C148  H85   S    
C194  O85   S    
O9    Zn1   S    
C97   H354  S    
C236  H289  S    
C149  H88   S    
C155  C156  S    
C273  H319  S    
C43   O76   S    
C177  H156  S    
C115  C116  S    
C149  C150  S    
C121  H25   S    
C231  H280  S    
C117  H15   S    
C175  H151  S    
C210  H234  S    
C232  H283  S    
C162  H120  S    
C48   C288  A    
C182  H165  S    
C43   C223  A    
C234  H287  S    
O41   Zn14  S    
O20   Zn7   S    
C128  C129  S    
C97   C98   S    
C167  H133  S    
C257  C289  A    
C174  O78   S    
C108  C109  S    
C23   C59   A    
O31   Zn2   S    
C84   H326  S    
C170  H139  S    
C24   C36   A    
C305  C316  S    
C238  H296  S    
C31   O64   S    
C227  H269  S    
C199  H206  S    
C281  H13   S    
C225  O95   S    
C49   C84   A    
C108  H378  S    
C308  C315  S    
C78   H321  S    
C292  C314  A    
C39   O72   S    
C145  H80   S    
C159  C160  S    
C97   O53   S    
C71   H268  S    
C123  H30   S    
C221  H260  S    
C89   H334  S    
C128  O63   S    
O24   Zn10  S    
C184  C185  S    
C51   C277  A    
C222  H263  S    
C114  H6    S    
C49   C299  A    
C2    C38   A    
C167  O76   S    
C92   C93   S    
O13   Zn9   S    
C301  O90   A    
C67   H235  S    
O40   Zn1   S    
C110  C111  S    
C47   O80   S    
C206  H222  S    
C196  H199  S    
C88   H332  S    
C195  H196  S    
C225  H265  S    
C5    O44   A    
C50   O83   S    
C34   O67   S    
C186  H177  S    
C144  H78   S    
C107  C108  S    
C15   C113  S    
C7    C190  S    
O35   Zn5   S    
C229  H274  S    
C52   C79   A    
C129  H42   S    
C156  H107  S    
C50   C85   A    
C153  H98   S    
C303  C309  S    
C40   O73   S    
C76   C212  A    
C3    O18   A    
C66   H224  S    
C158  O73   S    
C92   H339  S    
C72   C168  A    
C164  C165  S    
C41   O74   S    
C144  O69   S    
C132  H50   S    
C220  C221  S    
C284  C311  A    
C230  H278  S    
C225  C226  S    
C99   H359  S    
C184  O82   S    
C127  H36   S    
C295  C317  A    
C219  H254  S    
C16   O33   A    
C251  C298  A    
C296  C314  A    
C215  H243  S    
C252  C293  A    
C126  H33   S    
C242  H305  S    
C154  O72   S    
C60   C157  A    
C164  H125  S    
C6    C201  S    
C254  C295  A    
C298  C316  A    
C91   C92   S    
C131  O64   S    
C154  H102  S    
C87   O50   S    
C248  C265  A    
C217  C218  S    
C244  O3    S    
C131  H47   S    
C258  C287  A    
C116  H10   S    
C27   O60   S    
C152  H96   S    
C221  C222  S    
C27   C62   A    
C247  H315  S    
C189  H183  S    
C115  H8    S    
C228  O96   S    
C166  H129  S    
C151  C152  S    
C200  O87   S    
C261  O98   S    
C213  H238  S    
C202  H213  S    
O79   Zn16  S    
C217  H250  S    
C179  C318  S    
C75   C246  A    
C142  H72   S    
C21   C266  A    
C279  H374  S    
C32   C67   A    
O47   Zn11  S    
C19   C54   A    
C200  C202  S    
O57   Zn7   S    
C153  H99   S    
C98   C99   S    
C220  H258  S    
C308  O14   A    
C37   C72   A    
C82   H324  S    
C233  H286  S    
C180  H161  S    
C191  H186  S    
C264  O3    S    
C129  C130  S    
C275  H46   S    
C197  H202  S    
C301  O46   A    
C170  H137  S    
C100  H361  S    
C269  C272  A    
C237  H293  S    
C226  H266  S    
C241  H304  S    
C137  H61   S    
C173  H144  S    
C56   H124  S    
O25   Zn8   S    
C155  H103  S    
C136  C137  S    
C120  H20   S    
C118  H16   S    
C123  H28   S    
C176  H152  S    
C11   C146  S    
O24   Zn14  S    
C280  H2    S    
C58   C135  A    
C63   C190  A    
C285  C291  A    
C1    C17   A    
C59   H146  S    
C57   C277  S    
C265  H330  S    
C222  H261  S    
C249  C267  A    
C250  C268  A    
C98   H355  S    
C150  H92   S    
C256  C294  A    
O28   Zn3   S    
O90   Zn4   S    
C176  H153  S    
C6    O21   A    
C134  O65   S    
C89   H335  S    
C257  O94   S    
C237  H292  S    
C302  O2    A    
C305  O6    A    
C259  O96   S    
C35   C41   A    
C106  H375  S    
C7    O42   A    
C30   C65   A    
C93   H343  S    
C243  H308  S    
C193  H192  S    
C16   C101  S    
C80   C113  A    
C141  O67   S    
C206  H225  S    
C226  C227  S    
C142  C143  S    
C16   O31   A    
C152  C153  S    
C148  O70   S    
C74   C235  A    
C86   C135  A    
C253  O91   S    
C33   C68   A    
O46   Zn8   S    
C194  H194  S    
C289  C311  A    
C96   H350  S    
C87   C88   S    
C160  H115  S    
C198  H204  S    
C193  H193  S    
C31   C66   A    
C264  C282  A    
O42   Zn15  S    
C204  H217  S    
C239  C240  S    
O39   Zn9   S    
C105  H370  S    
C143  H74   S    
O22   Zn16  S    
C161  C162  S    
O68   Zn2   S    
C104  H368  S    
O5    Zn5   S    
C181  C182  S    
C43   C78   A    
C141  H71   S    
C136  H58   S    
C257  C274  A    
C37   C310  A    
C139  H65   S    
C189  H185  S    
C32   O65   S    
C26   C61   A    
C18   C112  A    
C293  C296  A    
C240  H302  S    
C205  H220  S    
C104  O55   S    
C81   H323  S    
C115  O59   S    
C218  H251  S    
C204  O88   S    
C207  H226  S    
C214  H242  S    
C213  H240  S    
C249  O86   S    
C199  H207  S    
C42   C46   A    
C156  H106  S    
C15   O32   A    
C24   C29   A    
C228  C229  S    
C65   C212  A    
C54   C101  A    
C18   C53   A    
C120  H21   S    
C260  O97   S    
C252  O89   S    
C208  H228  S    
C301  C312  S    
C109  H381  S    
C208  C209  S    
C278  C281  A    
C245  H314  S    
C13   C28   A    
C2    C27   A    
C240  H299  S    
C34   C70   A    
C99   H357  S    
C68   C266  S    
C1    C24   S    
O13   Zn7   S    
C271  H112  S    
C174  H149  S    
C48   O81   S    
C233  H284  S    
C196  H198  S    
C194  C195  S    
O35   Zn16  S    
O11   Zn10  S    
C158  H108  S    
C216  H245  S    
C73   H290  S    
C168  C319  S    
C87   H329  S    
C200  H210  S    
C51   C86   A    
C106  H372  S    
C145  C147  S    
C209  H232  S    
O44   Zn13  S    
C180  H160  S    
C109  H380  S    
O24   Zn6   S    
C307  O8    A    
C286  C290  A    
C183  H170  S    
C207  C208  S    
C130  H43   S    
C44   C80   A    
C80   H322  S    
C28   O61   S    
C128  H40   S    
C236  C237  S    
C87   H331  S    
C178  H158  S    
C14   O29   A    
C219  H255  S    
C103  H366  S    
C283  C289  A    
C128  H39   S    
C169  H134  S    
C275  C279  A    
C106  H373  S    
O37   Zn15  S    
C207  O89   S    
C83   C146  A    
C260  C278  A    
C107  O56   S    
C77   C224  A    
C119  H19   S    
C147  H84   S    
C261  C279  A    
C244  H311  S    
C161  O74   S    
C209  H230  S    
O23   Zn7   S    
C60   H157  S    
C25   C299  A    
C242  C243  S    
C19   C223  A    
C254  O92   S    
O17   Zn6   S    
C181  H163  S    
C272  H223  S    
C121  O61   S    
O1    Zn4   S    
C121  C122  S    
C126  H34   S    
C77   H320  S    
C294  C316  A    
C197  O86   S    
C115  H9    S    
C86   H328  S    
C20   O53   S    
C140  H67   S    
C91   O51   S    
C11   O38   A    
C97   H353  S    
C9    O40   A    
C125  C126  S    
C300  C317  A    
C186  H176  S    
C256  C273  A    
C253  C292  A    
C131  C132  S    
C89   H336  S    
C88   H333  S    
C72   H279  S    
C318  O48   A    
C117  H14   S    
C161  H118  S    
C238  C239  S    
O33   Zn10  S    
C137  H59   S    
C258  C275  A    
C182  H166  S    
C234  H288  S    
C133  H53   S    
C21   C56   A    
C178  C180  S    
C238  O99   S    
C48   C83   A    
C44   C255  A    
C12   O34   A    
C251  O88   S    
C236  H291  S    
C35   C299  S    
C105  C106  S    
C107  H377  S    
C82   C90   A    
C40   C75   A    
C100  H360  S    
C15   O30   A    
C265  C271  A    
C187  C188  S    
C118  O60   S    
C38   O71   S    
C192  C193  S    
C65   H212  S    
C123  H29   S    
C252  C270  A    
C185  C186  S    
C221  H259  S    
C253  C271  A    
C94   H345  S    
C164  H126  S    
O48   Zn1   S    
C26   C310  A    
C254  C272  A    
C232  C233  S    
C267  C270  A    
C270  H1    S    
C41   C76   A    
C256  O93   S    
C111  C114  S    
C95   H347  S    
C114  H7    S    
C214  H241  S    
C133  H52   S    
C94   C95   S    
C58   H135  S    
C138  C139  S    
O1    Zn8   S    
C138  H63   S    
C151  H94   S    
C69   C246  A    
C196  H200  S    
C250  C300  A    
C166  H131  S    
C177  C178  S    
C40   C68   A    
C125  H32   S    
C53   C90   A    
C30   O63   S    
C199  H208  S    
C216  H247  S    
C159  H111  S    
C122  H26   S    
C42   O75   S    
C141  C142  S    
C282  H24   S    
C91   H338  S    
C205  H219  S    
C182  C183  S    
C153  H97   S    
C44   O77   S    
C243  H309  S    
C187  O83   S    
C18   O51   S    
C304  C311  S    
C171  C172  S    
C50   C266  A    
C184  H171  S    
C165  C166  S    
O32   Zn11  S    
C92   H340  S    
C76   H318  S    
C169  C170  S    
C110  H383  S    
C95   C96   S    
C203  H216  S    
C305  O10   A    
C1    C45   A    
C139  H64   S    
C197  H203  S    
C205  C206  S    
C110  O58   S    
O34   Zn13  S    
C219  H253  S    
C160  H114  S    
C320  O45   A    
C4    O19   A    
C30   C35   A    
C70   H257  S    
C274  C280  A    
C264  C285  A    
C67   C235  A    
C4    C224  S    
C61   H168  S    
C242  H306  S    
C241  C242  S    
C143  H75   S    
C319  O16   A    
C104  H369  S    
C9    C79   S    
C8    O39   A    
C320  O17   A    
C147  H82   S    
C54   H101  S    
C47   C112  A    
C39   C57   A    
C286  C313  A    
C183  H167  S    
C318  O15   A    
C239  H298  S    
C116  C117  S    
C85   C124  A    
C47   C82   A    
C23   O56   S    
C118  C119  S    
C13   C34   A    
C230  H277  S    
O27   Zn6   S    
C174  C175  S    
C217  H249  S    
C127  H38   S    
C173  H145  S    
C262  C283  A    
O29   Zn4   S    
C207  H227  S    
C187  H180  S    
C268  C273  A    
O36   Zn12  S    
C198  C199  S    
O15   Zn4   S    
C56   C124  A    
C142  H73   S    
C151  O71   S    
C88   C89   S    
C210  H233  S    
C262  C280  A    
C162  H119  S    
C111  H4    S    
C138  H62   S    
C211  H236  S    
C167  C169  S    
C93   H342  S    
C102  C103  S    
O4    Zn6   S    
C20   C55   A    
C233  H285  S    
C247  H317  S    
O26   Zn5   S    
C204  H218  S    
C295  C298  A    
C172  H143  S    
C102  H364  S    
C307  O12   A    
C170  H138  S    
C231  O97   S    
C238  H295  S    
C227  H270  S    
C186  H175  S    
C166  H130  S    
C226  H267  S    
C241  H303  S    
C137  H60   S    
O35   Zn11  S    
C148  C149  S    
C66   C224  A    
O12   Zn13  S    
C129  H41   S    
C79   C81   A    
O45   Zn10  S    
C132  C133  S    
C134  C136  S    
C55   C113  A    
C306  O11   A    
C31   C46   A    
C133  H51   S    
C164  O75   S    
C188  C189  S    
C222  H262  S    
C114  H5    S    
C17   O50   S    
C165  H128  S    
C175  H150  S    
C294  C300  A    
C134  H55   S    
C206  H221  S    
C197  C198  S    
C259  C291  A    
C69   H246  S    
C103  H367  S    
C144  H77   S    
C228  H272  S    
C62   H179  S    
C293  C315  A    
C29   O62   S    
C229  H275  S    
C119  C120  S    
C10   C157  S    
C188  H181  S    
C19   O52   S    
C231  H281  S    
C163  H122  S    
C243  H307  S    
O21   Zn2   S    
C193  H191  S    
C302  O57   A    
C154  H100  S    
C211  C213  S    
C244  H310  S    
C49   O82   S    
O24   Zn2   S    
C211  H237  S    
C248  C297  A    
C8    C90   S    
C274  H35   S    
C203  H214  S    
C177  O80   S    
O1    Zn1   S    
C132  H49   S    
C95   H348  S    
C172  C173  S    
O49   Zn9   S    
C194  H195  S    
C171  H140  S    
C71   C201  A    
C5    O20   A    
C214  O92   S    
C160  H116  S    
C198  H205  S    
O16   Zn3   S    
C215  H244  S    
C185  H173  S    
C304  O79   A    
C148  H86   S    
C84   C157  A    
C217  O93   S    
C228  H273  S    
C285  C312  A    
O6    Zn15  S    
C141  H70   S    
C263  C281  A    
C163  H121  S    
C131  H48   S    
C46   C288  S    
C36   O69   S    
C149  H87   S    
C140  H66   S    
C152  H95   S    
C117  H12   S    
C192  H188  S    
C247  H316  S    
C23   C288  A    
C189  H184  S    
O14   Zn12  S    
C225  H264  S    
C218  C219  S    
C173  H147  S    
C218  H252  S    
C177  H155  S    
C187  H178  S    
C2    C223  S    
C213  H239  S    
C25   O58   S    
C234  O98   S    
C98   H356  S    
C52   H79   S    
C171  O77   S    
C120  H22   S    
C73   C179  A    
C59   C146  A    
C136  H56   S    
C210  C211  S    
O43   Zn12  S    
C268  H352  S    
C231  C232  S    
C263  C286  A    
C306  C317  S    
C245  H313  S    
C42   C77   A    
C93   H344  S    
C276  H57   S    
C122  C123  S    
C240  H300  S    
C12   O28   A    
O13   Zn13  S    
C3    O47   A    
C38   C73   A    
C319  O49   A    
