data_mof_unit_28592.cif
_audit_creation_date              2012-12-10T17:03:37-0500
_audit_creation_method            fapswitch 2.2
_symmetry_space_group_name_H-M    P1
_symmetry_Int_Tables_number       1
_space_group_crystal_system       triclinic
_cell_length_a                    10.054124
_cell_length_b                    10.713214
_cell_length_c                    13.027181
_cell_angle_alpha                 89.902554
_cell_angle_beta                  70.067758
_cell_angle_gamma                 89.29225
_cell_volume                      1319.02245265

loop_
_atom_site_label
_atom_site_type_symbol
_atom_type_description
_atom_site_fract_x
_atom_site_fract_y
_atom_site_fract_z
_atom_type_partial_charge
C1    C     C_R   0.501963 0.736896 0.493273 0.922509
C2    C     C_R   0.367986 0.526816 0.823911 -0.184081
C3    C     C_2   0.616301 0.064857 0.448038 0.281334
C4    C     C_R   0.420794 0.506647 0.704855 0.913358
C5    C     C_2   0.502817 0.131127 0.510996 0.125065
C6    C     C_2   0.622340 0.931865 0.461122 -0.113814
C7    C     C_2   0.508103 0.866495 0.469109 -0.286054
C8    C     C_2   0.096165 0.415913 0.451279 0.489663
C9    C     C_2   0.940284 0.405168 0.473317 -0.021938
C10   C     C_R   0.501246 0.262705 0.500061 0.948478
C11   C     C_R   0.578686 0.501692 0.295256 0.880859
C12   C     C_R   0.425385 0.560892 0.988153 -0.008249
C13   C     C_R   0.773308 0.633819 0.017891 -0.072837
C14   C     C_R   0.625045 0.525278 0.178255 -0.072697
C15   C     C_R   0.230274 0.489152 0.889366 0.357860
C16   C     C_R   0.186967 0.502364 0.002200 -0.195794
C17   C     C_R   0.282307 0.537987 0.052528 0.350738
C18   C     C_R   0.459274 0.577295 0.875233 -0.078365
C19   C     C_R   0.536733 0.567067 0.030758 0.056482
C20   C     C_R   0.666592 0.624247 0.970694 0.053471
C21   C     C_R   0.685597 0.668526 0.865205 0.371115
C22   C     C_R   0.583517 0.643427 0.817799 -0.152926
C23   C     C_R   0.525809 0.506818 0.127605 -0.115862
C24   C     C_R   0.750691 0.587610 0.122850 -0.180196
Cl1   Cl    Cl    0.366736 0.071119 0.625955 -0.519037
Cl2   Cl    Cl    0.207800 0.306163 0.361674 -0.495873
Cl3   Cl    Cl    0.919345 0.648268 0.466855 -0.436340
Cl4   Cl    Cl    0.839417 0.747380 0.786177 -0.515837
Cl5   Cl    Cl    0.105360 0.426544 0.836420 -0.514026
Cl6   Cl    Cl    0.209640 0.576093 0.192661 -0.535075
Cl7   Cl    Cl    0.758954 0.130917 0.342168 -0.533628
H1    H     H_    0.719751 0.888744 0.463215 0.237253
H2    H     H_    0.416016 0.910053 0.457322 0.214605
H3    H     H_    0.437397 0.446547 0.166323 0.219988
H4    H     H_    0.828842 0.603558 0.161487 0.194232
H5    H     H_    0.076971 0.546537 0.563022 0.215055
H6    H     H_    0.899920 0.314007 0.464234 0.181770
H7    H     H_    0.872578 0.679073 0.975635 0.210423
H8    H     H_    0.078410 0.483025 0.051533 0.206824
H9    H     H_    0.601628 0.678465 0.736341 0.206279
N1    N     N_2   0.148270 0.498670 0.498870 -0.172069
N2    N     N_2   0.852610 0.498640 0.498840 0.030323
O1    O     O_R   0.386950 0.680940 0.500020 -0.587250
O2    O     O_R   0.613110 0.680900 0.499980 -0.580726
O3    O     O_R   0.330780 0.500000 0.653640 -0.555201
O4    O     O_R   0.556930 0.499960 0.653610 -0.617294
O5    O     O_R   0.386890 0.319100 0.500020 -0.547406
O6    O     O_R   0.613050 0.319060 0.499980 -0.614552
O7    O     O_R   0.443070 0.500040 0.346390 -0.568048
O8    O     O_R   0.669220 0.500000 0.346360 -0.586098
Zn1   Zn    Zn3+2 0.349000 0.500030 0.500020 1.115307
Zn2   Zn    Zn3+2 0.651000 0.499970 0.499980 1.078283

loop_
_geom_bond_atom_site_label_1
_geom_bond_atom_site_label_2
_ccdc_geom_bond_type
C12   C17   A    
C14   C23   A    
O8    Zn2   S    
C6    C7    D    
C11   O7    A    
C2    C18   A    
C18   C22   A    
C8    Cl2   S    
C1    O2    A    
C2    C4    S    
C19   C20   A    
C9    N2    D    
C23   H3    S    
C22   H9    S    
O2    Zn2   S    
C9    H6    S    
C13   H7    S    
C5    C10   S    
C11   O8    A    
C4    O4    A    
C21   C22   A    
C20   C21   A    
C3    Cl7   S    
C2    C15   A    
C7    H2    S    
Cl3   N2    S    
O1    Zn1   S    
H5    N1    S    
C17   Cl6   S    
C5    Cl1   S    
C12   C19   A    
C21   Cl4   S    
N1    Zn1   S    
C15   Cl5   S    
C4    O3    A    
C10   O6    A    
C11   C14   S    
C24   H4    S    
O3    Zn1   S    
C16   H8    S    
C12   C18   A    
C15   C16   A    
O4    Zn2   S    
O6    Zn2   S    
C8    N1    D    
C6    H1    S    
C3    C6    S    
C14   C24   A    
C10   O5    A    
C19   C23   A    
C16   C17   A    
O5    Zn1   S    
C13   C20   A    
O7    Zn1   S    
C1    C7    S    
C1    O1    A    
C13   C24   A    
N2    Zn2   S    
C8    C9    S    
C3    C5    D    
