data_mof_unit_9505.cif
_audit_creation_date              2012-12-11T15:52:37-0500
_audit_creation_method            fapswitch 2.2
_symmetry_space_group_name_H-M    P1
_symmetry_Int_Tables_number       1
_space_group_crystal_system       triclinic
_cell_length_a                    6.92399
_cell_length_b                    14.547641
_cell_length_c                    16.032918
_cell_angle_alpha                 90.217109
_cell_angle_beta                  89.970966
_cell_angle_gamma                 89.96993
_cell_volume                      1614.94726243

loop_
_atom_site_label
_atom_site_type_symbol
_atom_type_description
_atom_site_fract_x
_atom_site_fract_y
_atom_site_fract_z
_atom_type_partial_charge
O1    O     O_R   0.494400 0.415640 0.412830 -0.547720
O2    O     O_R   0.823920 0.405510 0.586560 -0.546728
O3    O     O_R   0.994250 0.584360 0.587170 -0.542516
C1    C     C_R   0.654851 0.383099 0.615323 0.678558
O4    O     O_R   0.824110 0.404610 0.413450 -0.527696
O5    O     O_R   0.994440 0.583460 0.412820 -0.537790
C2    C     C_R   0.655380 0.385164 0.382166 0.684370
O6    O     O_R   0.494210 0.416540 0.587180 -0.542985
O7    O     O_3   0.660810 0.558680 0.500000 -0.363236
V1    V     V_3+5 0.935650 0.489110 0.500000 1.433482
O8    O     O_R   0.324150 0.594490 0.413440 -0.549243
C3    C     C_R   0.155108 0.616606 0.384314 0.691122
O9    O     O_R   0.323970 0.595390 0.586550 -0.530470
C4    C     C_R   0.154974 0.617261 0.615823 0.650859
V2    V     V_3+5 0.435660 0.510890 0.500000 1.430789
O10   O     O_3   0.160630 0.441320 0.500000 -0.368958
C5    C     C_3   0.944784 0.683845 0.730505 -0.353771
H1    H     H_    0.826035 0.697339 0.685454 0.198871
H2    H     H_    0.921051 0.613627 0.755885 0.139110
C6    C     C_3   0.932130 0.754917 0.802375 -0.356513
H3    H     H_    0.901580 0.718629 0.861937 0.142332
H4    H     H_    0.808290 0.801870 0.790550 0.202773
H5    H     H_    0.039791 0.801374 0.610770 0.067611
H6    H     H_    0.023580 0.902586 0.713341 0.069616
C7    C     C_3   0.168013 0.788733 0.651174 -0.135226
C8    C     C_3   0.300298 0.669175 0.753160 -0.294807
C9    C     C_3   0.144515 0.688501 0.685532 0.066834
H7    H     H_    0.447896 0.670358 0.726199 0.188429
H8    H     H_    0.279351 0.598752 0.778510 0.112502
C10   C     C_3   0.123103 0.810882 0.810146 0.062137
C11   C     C_3   0.156100 0.860898 0.724663 -0.134569
C12   C     C_3   0.287433 0.739783 0.825465 -0.287210
H9    H     H_    0.259478 0.702724 0.884867 0.114594
H10   H     H_    0.429332 0.774182 0.833197 0.190956
C13   C     C_R   0.953169 0.773825 0.216010 -0.157366
H11   H     H_    0.812239 0.792318 0.192113 0.115300
C14   C     C_R   0.964220 0.710648 0.281576 -0.135585
H12   H     H_    0.831254 0.682270 0.305977 0.116763
C15   C     C_R   0.144014 0.684454 0.315036 -0.044052
C16   C     C_R   0.312462 0.723116 0.280926 -0.160229
H13   H     H_    0.453381 0.704580 0.304811 0.115479
C17   C     C_R   0.301412 0.786301 0.215362 -0.149069
H14   H     H_    0.434381 0.814656 0.190947 0.117796
C18   C     C_R   0.121597 0.812592 0.181963 -0.047615
C19   C     C_R   0.812362 0.274443 0.716417 -0.159157
H15   H     H_    0.953271 0.293453 0.692815 0.114632
C20   C     C_R   0.801412 0.209701 0.780578 -0.146378
H16   H     H_    0.934408 0.180730 0.804384 0.114575
C21   C     C_R   0.621591 0.182841 0.813477 -0.041520
C22   C     C_R   0.452978 0.222211 0.780248 -0.159472
H17   H     H_    0.312069 0.203112 0.803796 0.113387
C23   C     C_R   0.463931 0.286973 0.716100 -0.153558
H18   H     H_    0.330933 0.315896 0.692258 0.116534
C24   C     C_R   0.643783 0.314013 0.683336 -0.045453
C25   C     C_R   0.782185 0.250978 0.300922 -0.097485
H19   H     H_    0.898767 0.245052 0.345618 0.132021
C26   C     C_R   0.770198 0.186264 0.236494 -0.170066
H20   H     H_    0.878610 0.132650 0.233131 0.123559
C27   C     C_R   0.618712 0.188719 0.178343 -0.125455
C28   C     C_R   0.480755 0.260959 0.184043 0.194190
C29   C     C_R   0.494164 0.327532 0.248781 -0.011704
C30   C     C_R   0.643804 0.320953 0.309322 -0.169456
O11   O     O_R   0.771300 0.080930 0.910090 -0.539943
O12   O     O_R   0.441270 0.092800 0.083770 -0.549305
O13   O     O_R   0.271080 0.913920 0.084380 -0.541849
C31   C     C_R   0.609894 0.116885 0.111558 0.687827
O14   O     O_R   0.441580 0.091910 0.910670 -0.545285
O15   O     O_R   0.271390 0.913020 0.910040 -0.526509
C32   C     C_R   0.610608 0.114125 0.881763 0.715872
O16   O     O_R   0.770990 0.081830 0.084440 -0.537608
O17   O     O_3   0.604750 0.938760 0.997250 -0.364827
V3    V     V_3+5 0.329850 0.008280 0.997210 1.413175
O18   O     O_R   0.941680 0.901940 0.910610 -0.539830
C33   C     C_R   0.110833 0.879483 0.881895 0.659798
O19   O     O_R   0.941370 0.902830 0.083720 -0.545485
C34   C     C_R   0.110437 0.880653 0.112815 0.677972
V4    V     V_3+5 0.829860 0.986420 0.997150 1.421325
O20   O     O_3   0.104830 0.056030 0.997180 -0.373199
C35   C     C_2   0.339035 0.800852 0.592871 0.401150
H21   H     H_    0.314843 0.826434 0.530227 0.009733
O21   O     O_2   0.503699 0.783383 0.614833 -0.520393
C36   C     C_2   0.318085 0.931355 0.726164 0.399451
H22   H     H_    0.287405 0.001945 0.708878 0.010516
O22   O     O_2   0.482777 0.910542 0.745564 -0.521917
N1    N     N_3   0.333429 0.271560 0.121750 -0.609916
H23   H     H_    0.233757 0.218037 0.127284 0.252634
H24   H     H_    0.396702 0.270338 0.062521 0.214876
C37   C     C_2   0.358504 0.407063 0.249885 0.448305
H25   H     H_    0.407314 0.473836 0.271598 0.013540
O23   O     O_2   0.190758 0.398826 0.227604 -0.516232

loop_
_geom_bond_atom_site_label_1
_geom_bond_atom_site_label_2
_ccdc_geom_bond_type
C7    C11   S    
C25   H19   S    
C8    C12   S    
O18   C33   A    
C13   H11   S    
C1    O6    A    
C20   C21   A    
C6    C10   S    
V4    O20   S    
C8    C9    S    
C11   C36   S    
C13   C14   A    
C27   C31   S    
O5    C3    A    
C10   C11   S    
C10   C33   S    
C26   C27   A    
O15   C33   A    
V2    O10   S    
C25   C30   A    
C5    C6    S    
O14   V3    S    
C19   C20   A    
C18   C34   S    
V3    O20   S    
O1    C2    A    
O8    V2    S    
O11   C32   A    
C22   C23   A    
O1    V2    S    
C4    C9    S    
O7    V1    S    
O13   C34   A    
C16   C17   A    
C27   C28   A    
C21   C32   S    
O9    C4    A    
O16   V4    S    
C17   C18   A    
C23   C24   A    
C5    H1    S    
N1    H24   S    
C5    C9    S    
C15   C16   A    
O4    C2    A    
N1    H23   S    
C28   C29   A    
O14   C32   A    
O12   C31   A    
O2    C1    A    
O19   C34   A    
C2    C30   S    
C14   H12   S    
C29   C37   S    
C20   H16   S    
O15   V3    S    
C22   H17   S    
C6    H3    S    
C13   C18   A    
O19   V4    S    
O3    C4    A    
C16   H13   S    
C6    H4    S    
C19   C24   A    
C36   H22   S    
O6    V2    S    
C36   O22   D    
O9    V2    S    
C17   H14   S    
O2    V1    S    
O17   V4    S    
C23   H18   S    
C35   O21   D    
O11   V4    S    
C1    C24   S    
C7    C35   S    
C37   O23   D    
O5    V1    S    
C28   N1    S    
C7    C9    S    
O13   V3    S    
C8    H7    S    
C12   H9    S    
C3    C15   S    
C25   C26   A    
O7    V2    S    
H6    C11   S    
O4    V1    S    
C14   C15   A    
O3    V1    S    
V1    O10   S    
C10   C12   S    
C26   H20   S    
C31   O16   A    
C5    H2    S    
O12   V3    S    
C29   C30   A    
C35   H21   S    
C19   H15   S    
O17   V3    S    
H5    C7    S    
C37   H25   S    
C8    H8    S    
C21   C22   A    
O18   V4    S    
O8    C3    A    
C12   H10   S    
