data_mof_unit_44018.cif
_audit_creation_date              2012-12-10T16:43:23-0500
_audit_creation_method            fapswitch 2.2
_symmetry_space_group_name_H-M    P1
_symmetry_Int_Tables_number       1
_space_group_crystal_system       triclinic
_cell_length_a                    10.754041
_cell_length_b                    8.722551
_cell_length_c                    7.557451
_cell_angle_alpha                 103.429346
_cell_angle_beta                  95.279929
_cell_angle_gamma                 94.635457
_cell_volume                      682.76749477

loop_
_atom_site_label
_atom_site_type_symbol
_atom_type_description
_atom_site_fract_x
_atom_site_fract_y
_atom_site_fract_z
_atom_type_partial_charge
C1    C     C_R   0.496500 0.199888 0.453255 0.908437
C2    C     C_R   0.083686 0.645517 0.621805 0.021215
C3    C     C_R   0.130328 0.517034 0.504347 -0.050122
C4    C     C_R   0.049178 0.398197 0.383093 -0.172551
C5    C     C_R   0.921210 0.400007 0.382287 -0.192057
C6    C     C_R   0.872193 0.521745 0.501135 -0.072335
C7    C     C_2   0.494101 0.031517 0.429437 -0.468878
C8    C     C_2   0.508021 0.968022 0.574511 0.461208
C9    C     C_R   0.263285 0.504897 0.501384 0.767927
C10   C     C_R   0.504252 0.799895 0.547169 0.790847
C11   C     C_R   0.737487 0.508037 0.500679 0.854574
C12   C     C_R   0.164823 0.772080 0.737684 -0.187335
C13   C     C_R   0.117072 0.898580 0.849504 -0.251738
C14   C     C_R   0.988388 0.905673 0.842968 -0.169300
C15   C     C_R   0.905919 0.784820 0.726865 0.621075
C16   C     C_R   0.952045 0.649990 0.618229 -0.030769
Cu1   Cu    Cu3+1 0.513920 0.517380 0.684380 1.142430
Cu2   Cu    Cu3+1 0.486080 0.482620 0.315620 1.088663
H1    H     H_    0.085266 0.301082 0.291756 0.168055
H2    H     H_    0.265640 0.776767 0.741933 0.170610
H3    H     H_    0.180377 0.993172 0.939000 0.212722
H4    H     H_    0.952222 0.007230 0.926107 0.176419
H5    H     H_    0.859833 0.303470 0.291220 0.165841
H6    H     H_    0.480062 0.958469 0.290026 0.182178
N1    N     N_2   0.465100 0.456430 0.038520 -0.143396
N2    N     N_2   0.534900 0.543570 0.961480 0.173723
O1    O     O_R   0.509050 0.286130 0.619770 -0.501960
O2    O     O_R   0.485540 0.256780 0.308360 -0.565524
O3    O     O_R   0.331410 0.514680 0.655740 -0.588786
O4    O     O_R   0.307900 0.485330 0.344330 -0.577716
O5    O     O_R   0.514460 0.743220 0.691640 -0.501770
O6    O     O_R   0.490950 0.713870 0.380230 -0.588400
O7    O     O_R   0.692100 0.514670 0.655670 -0.527040
O8    O     O_R   0.668590 0.485320 0.344260 -0.540771
F1    F     F_    0.620697 0.648907 0.075047 -0.499349
F2    F     F_    0.782455 0.806553 0.716295 -0.651735
F3    F     F_    0.527008 0.056947 0.750520 -0.621526
C17   C     C_2   0.364863 0.333355 0.953760 1.058287
O9    O     O_2   0.310283 0.265836 0.053111 -0.622121
O10   O     O_R   0.324854 0.284084 0.768371 -0.741781
H7    H     H_    0.253186 0.195709 0.736352 0.302750

loop_
_geom_bond_atom_site_label_1
_geom_bond_atom_site_label_2
_ccdc_geom_bond_type
C1    O2    A    
Cu2   O4    S    
N1    C17   S    
C2    C16   A    
N2    F1    S    
C5    H5    S    
C9    O3    A    
C2    C12   A    
C12   H2    S    
C2    C3    A    
C13   H3    S    
C7    C8    D    
C13   C14   A    
C17   O10   S    
Cu2   O8    S    
C14   H4    S    
C17   O9    D    
Cu2   N1    S    
Cu1   O7    S    
C9    O4    A    
C3    C9    S    
Cu1   N2    S    
O10   H7    S    
Cu1   Cu2   S    
C5    C6    A    
Cu1   O5    S    
Cu2   O6    S    
C8    F3    S    
C6    C16   A    
C15   C16   A    
Cu1   O1    S    
C10   O6    A    
C15   F2    S    
C11   O7    A    
Cu2   O2    S    
C12   C13   A    
C8    C10   S    
C6    C11   S    
C1    O1    A    
C14   C15   A    
N1    N2    D    
C1    C7    S    
C4    H1    S    
C10   O5    A    
C11   O8    A    
C3    C4    A    
C7    H6    S    
C4    C5    A    
Cu1   O3    S    
