data_mof_unit_45594.cif
_audit_creation_date              2012-12-10T17:23:13-0500
_audit_creation_method            fapswitch 2.2
_symmetry_space_group_name_H-M    P1
_symmetry_Int_Tables_number       1
_space_group_crystal_system       triclinic
_cell_length_a                    15.855568
_cell_length_b                    10.865692
_cell_length_c                    9.608119
_cell_angle_alpha                 89.819527
_cell_angle_beta                  89.518819
_cell_angle_gamma                 93.139478
_cell_volume                      1652.74983858

loop_
_atom_site_label
_atom_site_type_symbol
_atom_type_description
_atom_site_fract_x
_atom_site_fract_y
_atom_site_fract_z
_atom_type_partial_charge
C1    C     C_R   0.506043 0.263021 0.500883 0.796952
C2    C     C_3   0.082632 0.500354 0.501067 0.189074
C3    C     C_3   0.975084 0.598125 0.572311 -0.160554
C4    C     C_3   0.917353 0.500851 0.499342 0.188616
C5    C     C_3   0.032631 0.605053 0.441160 -0.157496
C6    C     C_3   0.973365 0.507783 0.368194 -0.156993
C7    C     C_1   0.174417 0.500003 0.501636 -0.066073
C8    C     C_1   0.825573 0.500940 0.498646 -0.075613
C9    C     C_R   0.544322 0.118374 0.758887 -0.165535
C10   C     C_R   0.529781 0.058157 0.885752 -0.112104
C11   C     C_R   0.487415 0.943001 0.888791 -0.107793
C12   C     C_R   0.339905 0.499537 0.500477 0.826587
C13   C     C_R   0.467569 0.882886 0.764433 -0.155794
C14   C     C_R   0.490834 0.937252 0.634112 0.090944
C15   C     C_R   0.516539 0.063369 0.632384 0.094563
C16   C     C_R   0.512533 0.128993 0.504559 -0.117628
C17   C     C_R   0.503482 0.064085 0.379389 -0.202977
C18   C     C_R   0.496286 0.936771 0.379800 -0.213341
C19   C     C_R   0.490152 0.871634 0.505734 -0.113026
C20   C     C_R   0.610869 0.666941 0.141891 -0.141159
C21   C     C_R   0.664229 0.750074 0.068885 -0.223558
C22   C     C_R   0.664345 0.750188 0.925429 -0.200873
C23   C     C_R   0.494773 0.737248 0.501020 0.779962
C24   C     C_R   0.611055 0.667246 0.854081 -0.121409
C25   C     C_R   0.554253 0.582563 0.924144 0.178567
C26   C     C_R   0.554223 0.582408 0.073605 0.196666
C27   C     C_R   0.449315 0.420745 0.076874 -0.035164
C28   C     C_R   0.448697 0.419061 0.928986 0.051106
C29   C     C_R   0.660088 0.500527 0.499540 0.805628
C30   C     C_3   0.967352 0.396160 0.559251 -0.157313
C31   C     C_3   0.024887 0.403088 0.428106 -0.155193
C32   C     C_1   0.250061 0.499737 0.501493 -0.172565
C33   C     C_1   0.749926 0.500820 0.498633 -0.180119
C34   C     C_3   0.026616 0.493427 0.632221 -0.153276
Cu1   Cu    Cu3+1 0.499990 0.499990 0.640660 0.907360
Cu2   Cu    Cu3+1 0.500010 0.500010 0.359340 0.932918
H1    H     H_    0.046658 0.322991 0.368947 0.135374
H2    H     H_    0.471661 0.898796 0.987495 0.135307
H3    H     H_    0.431756 0.795813 0.772998 0.168736
H4    H     H_    0.494504 0.889416 0.280703 0.166209
H5    H     H_    0.408167 0.357165 0.136351 0.185216
H6    H     H_    0.617289 0.672380 0.251578 0.199124
H7    H     H_    0.706428 0.814104 0.124327 0.149824
H8    H     H_    0.706530 0.814458 0.868658 0.148395
H9    H     H_    0.617509 0.673551 0.744246 0.198755
H10   H     H_    0.939213 0.310393 0.607693 0.131017
H11   H     H_    0.950176 0.513689 0.259804 0.133117
H12   H     H_    0.060763 0.690825 0.392720 0.133814
H13   H     H_    0.953284 0.678205 0.631470 0.130126
H14   H     H_    0.049795 0.487528 0.740617 0.134936
H15   H     H_    0.502369 0.111634 0.280186 0.168972
H16   H     H_    0.579346 0.206386 0.761730 0.161367
H17   H     H_    0.549280 0.102457 0.981918 0.131790
N1    N     N_R   0.500800 0.501210 0.147910 -0.223736
N2    N     N_R   0.500830 0.501290 0.852040 -0.248736
O1    O     O_R   0.499990 0.319640 0.618810 -0.616244
O2    O     O_R   0.500000 0.319660 0.381240 -0.578744
O3    O     O_R   0.379070 0.499980 0.618770 -0.606392
O4    O     O_R   0.379080 0.500000 0.381190 -0.565516
O5    O     O_R   0.500000 0.680340 0.618760 -0.612196
O6    O     O_R   0.500010 0.680360 0.381190 -0.598473
O7    O     O_R   0.620920 0.500000 0.618810 -0.593967
O8    O     O_R   0.620930 0.500020 0.381230 -0.588723
C35   C     C_2   0.390393 0.325255 0.862627 0.360875
H18   H     H_    0.377408 0.325455 0.753478 0.150075
O9    O     O_2   0.354543 0.243263 0.931790 -0.583689

loop_
_geom_bond_atom_site_label_1
_geom_bond_atom_site_label_2
_ccdc_geom_bond_type
Cu1   O1    S    
C11   H2    S    
C19   C23   S    
C24   C25   A    
C29   O8    A    
Cu2   O6    S    
C1    O2    A    
Cu2   O8    S    
C9    C10   A    
C27   H5    S    
C20   H6    S    
C2    C7    S    
C14   C15   A    
C30   C31   S    
C4    C8    S    
Cu2   O4    S    
C12   O3    A    
C35   H18   S    
C17   H15   S    
C17   C18   A    
C3    H13   S    
C27   N1    A    
C4    C30   S    
C1    C16   S    
C21   H7    S    
C13   C14   A    
C12   C32   S    
C11   C13   A    
C2    C34   S    
C5    C6    S    
C9    H16   S    
C20   C26   A    
Cu1   O3    S    
C24   H9    S    
C28   C35   S    
C1    O1    A    
C28   N2    A    
C6    C31   S    
Cu1   O7    S    
C8    C33   T    
C9    C15   A    
C23   O5    A    
C5    H12   S    
C22   C24   A    
C34   H14   S    
C2    C5    S    
C13   H3    S    
C10   C11   A    
C30   C34   S    
Cu1   N2    S    
C15   C16   A    
Cu1   O5    S    
C26   N1    A    
C23   O6    A    
Cu2   N1    S    
C20   C21   A    
Cu2   O2    S    
C4    C6    S    
C18   C19   A    
C6    H11   S    
C27   C28   A    
C10   H17   S    
C18   H4    S    
C29   O7    A    
C16   C17   A    
C7    C32   T    
C3    C34   S    
C25   C26   A    
C21   C22   A    
C12   O4    A    
C14   C19   A    
C30   H10   S    
C22   H8    S    
C3    C4    S    
C25   N2    A    
C29   C33   S    
C31   H1    S    
C2    C31   S    
C3    C5    S    
Cu1   Cu2   S    
C35   O9    D    
