data_mof_unit_13759.cif
_audit_creation_date              2013-03-05T15:47:08-0500
_audit_creation_method            fapswitch 2.2
_symmetry_space_group_name_H-M    P1
_symmetry_Int_Tables_number       1
_space_group_crystal_system       triclinic
_cell_length_a                    19.633261
_cell_length_b                    11.25338
_cell_length_c                    18.700301
_cell_angle_alpha                 90.000088
_cell_angle_beta                  89.170227
_cell_angle_gamma                 90.000049
_cell_volume                      4131.22145472

loop_
_atom_site_label
_atom_site_type_symbol
_atom_site_description
_atom_site_fract_x
_atom_site_fract_y
_atom_site_fract_z
_atom_type_partial_charge
O1    O     O_R   0.957210 0.449410 0.665480 -0.524243
O2    O     O_R   0.042790 0.449410 0.334520 -0.524244
O3    O     O_R   0.457210 0.949410 0.665480 -0.524241
O4    O     O_R   0.542790 0.949410 0.334520 -0.524244
O5    O     O_R   0.820730 0.541240 0.668250 -0.516687
O6    O     O_R   0.179270 0.541240 0.331750 -0.516690
O7    O     O_R   0.320730 0.041240 0.668250 -0.516689
O8    O     O_R   0.679270 0.041240 0.331750 -0.516687
C1    C     C_R   0.761625 0.523699 0.639053 0.546841
C2    C     C_R   0.238375 0.523699 0.360947 0.546839
C3    C     C_R   0.261624 0.023700 0.639053 0.546838
C4    C     C_R   0.738375 0.023699 0.360947 0.546841
O9    O     O_R   0.714240 0.455060 0.663710 -0.522993
O10   O     O_R   0.285760 0.455060 0.336290 -0.522994
O11   O     O_R   0.214240 0.955060 0.663710 -0.522994
O12   O     O_R   0.785760 0.955060 0.336290 -0.522994
O13   O     O_R   0.736780 0.204870 0.675910 -0.511948
O14   O     O_R   0.263220 0.204870 0.324090 -0.511949
O15   O     O_R   0.236780 0.704870 0.675910 -0.511949
O16   O     O_R   0.763220 0.704870 0.324090 -0.511949
C5    C     C_R   0.774482 0.121060 0.649389 0.546165
C6    C     C_R   0.225518 0.121060 0.350610 0.546163
C7    C     C_R   0.274481 0.621059 0.649390 0.546163
C8    C     C_R   0.725518 0.621059 0.350610 0.546164
O17   O     O_R   0.833070 0.087590 0.673490 -0.529162
O18   O     O_R   0.166930 0.087590 0.326510 -0.529163
O19   O     O_R   0.333070 0.587590 0.673490 -0.529162
O20   O     O_R   0.666930 0.587590 0.326510 -0.529163
O21   O     O_R   0.946890 0.246800 0.676300 -0.496404
O22   O     O_R   0.053110 0.246800 0.323700 -0.496404
O23   O     O_R   0.446890 0.746800 0.676300 -0.496403
O24   O     O_R   0.553110 0.746800 0.323700 -0.496403
C9    C     C_R   0.969789 0.342004 0.645182 0.570246
C10   C     C_R   0.030216 0.342004 0.354820 0.570248
C11   C     C_R   0.469786 0.842004 0.645180 0.570248
C12   C     C_R   0.530211 0.842004 0.354818 0.570245
O25   O     O_R   0.956650 0.457120 0.827980 -0.487007
O26   O     O_R   0.043350 0.457120 0.172020 -0.487019
O27   O     O_R   0.456650 0.957120 0.827980 -0.487000
O28   O     O_R   0.543350 0.957120 0.172020 -0.487016
O29   O     O_R   0.820220 0.548390 0.818890 -0.527731
O30   O     O_R   0.179780 0.548390 0.181110 -0.527732
O31   O     O_R   0.320220 0.048390 0.818890 -0.527734
O32   O     O_R   0.679780 0.048390 0.181110 -0.527731
C13   C     C_R   0.758818 0.538289 0.847058 0.564159
C14   C     C_R   0.241182 0.538291 0.152943 0.564154
C15   C     C_R   0.258817 0.038291 0.847057 0.564157
C16   C     C_R   0.741182 0.038289 0.152943 0.564157
O33   O     O_R   0.713680 0.462770 0.826210 -0.506581
O34   O     O_R   0.286320 0.462770 0.173790 -0.506582
O35   O     O_R   0.213680 0.962770 0.826210 -0.506583
O36   O     O_R   0.786320 0.962770 0.173790 -0.506583
O37   O     O_R   0.736260 0.212010 0.826560 -0.503715
O38   O     O_R   0.263740 0.212010 0.173440 -0.503715
O39   O     O_R   0.236260 0.712010 0.826560 -0.503714
O40   O     O_R   0.763740 0.712010 0.173440 -0.503716
C17   C     C_R   0.774196 0.132901 0.859180 0.547717
C18   C     C_R   0.225804 0.132901 0.140820 0.547715
C19   C     C_R   0.274194 0.632899 0.859179 0.547713
C20   C     C_R   0.725805 0.632899 0.140821 0.547720
O41   O     O_R   0.832520 0.095300 0.836000 -0.536641
O42   O     O_R   0.167480 0.095300 0.164000 -0.536639
O43   O     O_R   0.332520 0.595300 0.836000 -0.536640
O44   O     O_R   0.667480 0.595300 0.164000 -0.536640
O45   O     O_R   0.946380 0.253940 0.826940 -0.462636
O46   O     O_R   0.053620 0.253940 0.173060 -0.462638
O47   O     O_R   0.446380 0.753940 0.826940 -0.462634
O48   O     O_R   0.553620 0.753940 0.173060 -0.462624
C21   C     C_R   0.945099 0.356333 0.861702 0.573712
C22   C     C_R   0.054897 0.356333 0.138298 0.573710
C23   C     C_R   0.445098 0.856334 0.861702 0.573707
C24   C     C_R   0.554902 0.856333 0.138298 0.573710
Cr1   Cr    Cr6+3 0.885690 0.492860 0.745310 1.012082
Cr2   Cr    Cr6+3 0.114310 0.492860 0.254690 1.012079
Cr3   Cr    Cr6+3 0.385690 0.992860 0.745310 1.012083
Cr4   Cr    Cr6+3 0.614310 0.992860 0.254690 1.012080
Cr5   Cr    Cr6+3 0.729880 0.332270 0.748190 1.019438
Cr6   Cr    Cr6+3 0.270120 0.332270 0.251810 1.019437
Cr7   Cr    Cr6+3 0.229880 0.832270 0.748190 1.019436
Cr8   Cr    Cr6+3 0.770120 0.832270 0.251810 1.019436
Cr9   Cr    Cr6+3 0.888120 0.178590 0.753010 1.033980
Cr10  Cr    Cr6+3 0.111880 0.178590 0.246990 1.033980
Cr11  Cr    Cr6+3 0.388120 0.678590 0.753010 1.033980
Cr12  Cr    Cr6+3 0.611880 0.678590 0.246990 1.033986
O49   O     O_3   0.834560 0.334570 0.748840 -0.305388
O50   O     O_3   0.165440 0.334570 0.251160 -0.305386
O51   O     O_3   0.334560 0.834570 0.748840 -0.305388
O52   O     O_3   0.665440 0.834570 0.251160 -0.305389
C25   C     C_3   0.687129 0.132744 0.466644 -0.237379
C26   C     C_3   0.312869 0.132747 0.533357 -0.237373
C27   C     C_3   0.187130 0.632746 0.466643 -0.237373
C28   C     C_3   0.812870 0.632746 0.533357 -0.237378
H1    H     H_    0.638042 0.096778 0.452385 0.128793
H2    H     H_    0.361959 0.096785 0.547617 0.128792
H3    H     H_    0.138041 0.596782 0.452383 0.128793
H4    H     H_    0.861958 0.596785 0.547616 0.128792
H5    H     H_    0.687673 0.221706 0.441608 0.109244
H6    H     H_    0.312323 0.221712 0.558393 0.109241
H7    H     H_    0.187675 0.721710 0.441607 0.109241
H8    H     H_    0.812324 0.721708 0.558393 0.109243
C29   C     C_3   0.692697 0.145035 0.547795 -0.229335
C30   C     C_3   0.307302 0.145036 0.452205 -0.229331
C31   C     C_3   0.192697 0.645035 0.547795 -0.229331
C32   C     C_3   0.807302 0.645036 0.452205 -0.229332
H9    H     H_    0.686882 0.237307 0.563909 0.138549
H10   H     H_    0.313117 0.237309 0.436090 0.138549
H11   H     H_    0.186884 0.737309 0.563909 0.138550
H12   H     H_    0.813117 0.737309 0.436090 0.138549
H13   H     H_    0.648926 0.100461 0.574318 0.112363
H14   H     H_    0.351074 0.100462 0.425682 0.112360
H15   H     H_    0.148925 0.600465 0.574319 0.112361
H16   H     H_    0.851074 0.600463 0.425682 0.112362
H17   H     H_    0.721673 0.868066 0.464660 0.108202
H18   H     H_    0.278326 0.868062 0.535340 0.108201
H19   H     H_    0.221673 0.368063 0.464659 0.108202
H20   H     H_    0.778327 0.368063 0.535339 0.108202
H21   H     H_    0.705713 0.923346 0.586031 0.114047
H22   H     H_    0.294289 0.923349 0.413968 0.114046
H23   H     H_    0.205710 0.423348 0.586030 0.114048
H24   H     H_    0.794288 0.423348 0.413968 0.114047
C33   C     C_3   0.756193 0.938619 0.480706 -0.222294
C34   C     C_3   0.243807 0.938617 0.519293 -0.222293
C35   C     C_3   0.256192 0.438617 0.480706 -0.222294
C36   C     C_3   0.743808 0.438617 0.519293 -0.222292
C37   C     C_3   0.810657 0.130964 0.448034 -0.255177
C38   C     C_3   0.189342 0.130959 0.551966 -0.255180
C39   C     C_3   0.310657 0.630961 0.448035 -0.255180
C40   C     C_3   0.689343 0.630960 0.551966 -0.255177
C41   C     C_3   0.746622 0.056837 0.436916 0.063204
C42   C     C_3   0.253378 0.056836 0.563084 0.063205
C43   C     C_3   0.246621 0.556835 0.436916 0.063206
C44   C     C_3   0.753379 0.556835 0.563084 0.063205
H25   H     H_    0.854813 0.090683 0.419288 0.132790
H26   H     H_    0.145187 0.090676 0.580711 0.132790
H27   H     H_    0.354813 0.590679 0.419289 0.132790
H28   H     H_    0.645187 0.590676 0.580711 0.132790
H29   H     H_    0.804026 0.221823 0.426731 0.111451
H30   H     H_    0.195971 0.221819 0.573269 0.111450
H31   H     H_    0.304027 0.721820 0.426732 0.111450
H32   H     H_    0.695971 0.721819 0.573270 0.111450
C45   C     C_3   0.760610 0.090325 0.574246 0.064618
C46   C     C_3   0.239390 0.090324 0.425753 0.064616
C47   C     C_3   0.260609 0.590323 0.574247 0.064616
C48   C     C_3   0.739390 0.590324 0.425753 0.064616
C49   C     C_3   0.753851 0.957404 0.562167 -0.259956
C50   C     C_3   0.246151 0.957403 0.437832 -0.259957
C51   C     C_3   0.253847 0.457402 0.562167 -0.259958
C52   C     C_3   0.746151 0.457403 0.437832 -0.259956
C53   C     C_3   0.823557 0.133195 0.528762 -0.223398
C54   C     C_3   0.176443 0.133192 0.471237 -0.223399
C55   C     C_3   0.323556 0.633192 0.528763 -0.223399
C56   C     C_3   0.676443 0.633194 0.471237 -0.223398
H33   H     H_    0.842796 0.219211 0.546277 0.109717
H34   H     H_    0.157205 0.219209 0.453723 0.109718
H35   H     H_    0.342794 0.719208 0.546278 0.109719
H36   H     H_    0.657206 0.719210 0.453723 0.109717
H37   H     H_    0.864202 0.066944 0.537911 0.124812
H38   H     H_    0.135798 0.066940 0.462089 0.124812
H39   H     H_    0.364200 0.566939 0.537911 0.124813
H40   H     H_    0.635798 0.566943 0.462088 0.124811
H41   H     H_    0.808711 0.908471 0.468673 0.127063
H42   H     H_    0.191289 0.908470 0.531324 0.127061
H43   H     H_    0.308710 0.408470 0.468675 0.127062
H44   H     H_    0.691290 0.408468 0.531325 0.127062
H45   H     H_    0.796345 0.909515 0.588108 0.123219
H46   H     H_    0.203659 0.909512 0.411890 0.123218
H47   H     H_    0.296339 0.409511 0.588110 0.123217
H48   H     H_    0.703657 0.409513 0.411890 0.123219
C57   C     C_3   0.003642 0.203455 0.458927 -0.235121
C58   C     C_3   0.996361 0.203454 0.541074 -0.235122
C59   C     C_3   0.503639 0.703454 0.458925 -0.235119
C60   C     C_3   0.496357 0.703454 0.541073 -0.235120
H49   H     H_    0.046119 0.148727 0.440973 0.130981
H50   H     H_    0.953884 0.148725 0.559027 0.130981
H51   H     H_    0.546118 0.648727 0.440973 0.130982
H52   H     H_    0.453879 0.648728 0.559026 0.130982
H53   H     H_    0.958851 0.159640 0.435324 0.114095
H54   H     H_    0.041152 0.159641 0.564677 0.114094
H55   H     H_    0.458849 0.659638 0.435320 0.114094
H56   H     H_    0.541148 0.659639 0.564677 0.114094
H57   H     H_    0.616312 0.891950 0.452905 0.110654
H58   H     H_    0.383685 0.891954 0.547094 0.110655
H59   H     H_    0.116314 0.391955 0.452907 0.110652
H60   H     H_    0.883687 0.391953 0.547095 0.110656
H61   H     H_    0.600754 0.834496 0.574379 0.115358
H62   H     H_    0.399242 0.834495 0.425620 0.115356
H63   H     H_    0.100757 0.334497 0.574380 0.115356
H64   H     H_    0.899245 0.334496 0.425621 0.115359
C61   C     C_3   0.064447 0.406042 0.473016 -0.221865
C62   C     C_3   0.935554 0.406041 0.526985 -0.221860
C63   C     C_3   0.564445 0.906040 0.473014 -0.221861
C64   C     C_3   0.435552 0.906041 0.526984 -0.221863
C65   C     C_3   0.941167 0.390185 0.445842 -0.258572
C66   C     C_3   0.058834 0.390186 0.554159 -0.258572
C67   C     C_3   0.441165 0.890185 0.445841 -0.258572
C68   C     C_3   0.558832 0.890185 0.554157 -0.258573
C69   C     C_3   0.010082 0.332672 0.430868 0.058504
C70   C     C_3   0.989920 0.332672 0.569133 0.058507
C71   C     C_3   0.510079 0.832672 0.430866 0.058506
C72   C     C_3   0.489917 0.832672 0.569132 0.058502
H65   H     H_    0.937936 0.477746 0.418824 0.127248
H66   H     H_    0.062065 0.477748 0.581178 0.127247
H67   H     H_    0.437933 0.977746 0.418822 0.127245
H68   H     H_    0.562062 0.977746 0.581176 0.127248
H69   H     H_    0.948254 0.500421 0.536936 0.130559
H70   H     H_    0.051745 0.500421 0.463065 0.130559
H71   H     H_    0.448253 0.000421 0.536935 0.130559
H72   H     H_    0.551745 0.000420 0.463063 0.130561
C73   C     C_3   0.818207 0.021178 0.045579 -0.226368
C74   C     C_3   0.181789 0.021190 0.954419 -0.226367
C75   C     C_3   0.318204 0.521179 0.045579 -0.226373
C76   C     C_3   0.681796 0.521172 0.954422 -0.226372
H73   H     H_    0.827965 0.929330 0.061972 0.136640
H74   H     H_    0.172024 0.929343 0.938025 0.136639
H75   H     H_    0.327962 0.429331 0.061972 0.136643
H76   H     H_    0.672044 0.429322 0.938030 0.136640
H77   H     H_    0.862733 0.070494 0.066213 0.161412
H78   H     H_    0.137266 0.070514 0.933785 0.161423
H79   H     H_    0.362730 0.570494 0.066214 0.161422
H80   H     H_    0.637269 0.570477 0.933786 0.161414
C77   C     C_3   0.819761 0.025720 0.965450 -0.238682
C78   C     C_3   0.180236 0.025728 0.034547 -0.238689
C79   C     C_3   0.319757 0.525721 0.965450 -0.238696
C80   C     C_3   0.680240 0.525719 0.034550 -0.238688
H81   H     H_    0.871937 0.048744 0.947551 0.136610
H82   H     H_    0.128062 0.048759 0.052447 0.136610
H83   H     H_    0.371932 0.548754 0.947553 0.136616
H84   H     H_    0.628066 0.548752 0.052446 0.136613
H85   H     H_    0.813610 0.934951 0.944047 0.116056
H86   H     H_    0.186383 0.934957 0.055949 0.116057
H87   H     H_    0.313608 0.434953 0.944046 0.116062
H88   H     H_    0.686387 0.434951 0.055957 0.116058
H89   H     H_    0.669165 0.953107 0.058709 0.094723
H90   H     H_    0.330827 0.953089 0.941287 0.094715
H91   H     H_    0.169155 0.453111 0.058720 0.094723
H92   H     H_    0.830848 0.453123 0.941285 0.094727
H93   H     H_    0.698967 0.948940 0.931319 0.157664
H94   H     H_    0.301025 0.948930 0.068679 0.157672
H95   H     H_    0.198963 0.448938 0.931323 0.157670
H96   H     H_    0.801031 0.448932 0.068674 0.157686
C81   C     C_3   0.686504 0.036627 0.036024 -0.231036
C82   C     C_3   0.313493 0.036616 0.963975 -0.231024
C83   C     C_3   0.186500 0.536633 0.036027 -0.231012
C84   C     C_3   0.813499 0.536632 0.963975 -0.231046
C85   C     C_3   0.756453 0.209096 0.062403 -0.262012
C86   C     C_3   0.243555 0.209098 0.937596 -0.262011
C87   C     C_3   0.256451 0.709097 0.062404 -0.262013
C88   C     C_3   0.743545 0.709094 0.937599 -0.262012
C89   C     C_3   0.750965 0.076234 0.076659 0.064353
C90   C     C_3   0.249034 0.076235 0.923340 0.064363
C91   C     C_3   0.250963 0.576235 0.076660 0.064353
C92   C     C_3   0.749036 0.576233 0.923342 0.064355
H97   H     H_    0.712964 0.255660 0.088501 0.110688
H98   H     H_    0.287048 0.255654 0.911501 0.110688
H99   H     H_    0.212962 0.755663 0.088500 0.110688
H100  H     H_    0.787030 0.755663 0.911499 0.110689
H101  H     H_    0.803025 0.245879 0.085479 0.185396
H102  H     H_    0.196984 0.245892 0.914519 0.185376
H103  H     H_    0.303024 0.745878 0.085480 0.185386
H104  H     H_    0.696970 0.745872 0.914528 0.185381
C93   C     C_3   0.761443 0.106806 0.937052 0.054710
C94   C     C_3   0.238557 0.106806 0.062947 0.054703
C95   C     C_3   0.261439 0.606805 0.937052 0.054699
C96   C     C_3   0.738559 0.606803 0.062949 0.054707
C97   C     C_3   0.695616 0.039682 0.953483 -0.247804
C98   C     C_3   0.304381 0.039673 0.046516 -0.247799
C99   C     C_3   0.195612 0.539683 0.953485 -0.247788
C100  C     C_3   0.804385 0.539678 0.046516 -0.247802
C101  C     C_3   0.756322 0.226068 0.979630 -0.233747
C102  C     C_3   0.243684 0.226067 0.020370 -0.233742
C103  C     C_3   0.256322 0.726066 0.979630 -0.233735
C104  C     C_3   0.743678 0.726064 0.020372 -0.233749
H105  H     H_    0.795797 0.285917 0.961402 0.101837
H106  H     H_    0.204206 0.285913 0.038594 0.101841
H107  H     H_    0.295811 0.785888 0.961407 0.101835
H108  H     H_    0.704200 0.785904 0.038599 0.101838
H109  H     H_    0.707120 0.265929 0.966288 0.124262
H110  H     H_    0.292885 0.265931 0.033718 0.124262
H111  H     H_    0.207128 0.765957 0.966278 0.124264
H112  H     H_    0.792878 0.765935 0.033715 0.124263
H113  H     H_    0.645837 0.101123 0.049689 0.124104
H114  H     H_    0.354165 0.101108 0.950311 0.124103
H115  H     H_    0.145834 0.601146 0.049690 0.124100
H116  H     H_    0.854160 0.601142 0.950318 0.124104
H117  H     H_    0.651629 0.085071 0.928582 0.141137
H118  H     H_    0.348370 0.085056 0.071418 0.141141
H119  H     H_    0.151625 0.585072 0.928581 0.141144
H120  H     H_    0.848372 0.585062 0.071421 0.141148
C105  C     C_3   0.006389 0.480072 0.039793 -0.251382
C106  C     C_3   0.993602 0.480073 0.960210 -0.251379
C107  C     C_3   0.506395 0.980072 0.039791 -0.251384
C108  C     C_3   0.493607 0.980074 0.960209 -0.251380
H121  H     H_    0.045630 0.546188 0.051471 0.112315
H122  H     H_    0.954360 0.546186 0.948533 0.112311
H123  H     H_    0.545635 0.046189 0.051470 0.112313
H124  H     H_    0.454368 0.046190 0.948532 0.112309
H125  H     H_    0.960220 0.512474 0.068247 0.188997
H126  H     H_    0.039771 0.512481 0.931757 0.188997
H127  H     H_    0.460226 0.012473 0.068246 0.188995
H128  H     H_    0.539776 0.012477 0.931755 0.188999
H129  H     H_    0.614068 0.860070 0.990676 0.139746
H130  H     H_    0.385941 0.860077 0.009324 0.139767
H131  H     H_    0.114061 0.360077 0.990678 0.139756
H132  H     H_    0.885931 0.360069 0.009321 0.139755
C109  C     C_3   0.075338 0.297599 0.006756 -0.321715
C110  C     C_3   0.924656 0.297595 0.993244 -0.321715
C111  C     C_3   0.575343 0.797598 0.006753 -0.321721
C112  C     C_3   0.424661 0.797598 0.993245 -0.321723
C113  C     C_3   0.961813 0.271006 0.063641 0.099735
C114  C     C_3   0.038183 0.271007 0.936361 0.099738
C115  C     C_3   0.461820 0.771002 0.063637 0.099739
C116  C     C_3   0.538185 0.771010 0.936358 0.099740
C117  C     C_3   0.025690 0.351901 0.064701 0.029096
C118  C     C_3   0.974304 0.351899 0.935300 0.029101
C119  C     C_3   0.525696 0.851900 0.064699 0.029098
C120  C     C_3   0.474307 0.851902 0.935299 0.029099
H133  H     H_    0.978600 0.176272 0.061716 0.109885
H134  H     H_    0.021397 0.176271 0.938287 0.109884
H135  H     H_    0.478607 0.676269 0.061707 0.109884
H136  H     H_    0.521400 0.676276 0.938284 0.109891
H137  H     H_    0.901421 0.217353 0.972643 0.091880
H138  H     H_    0.098574 0.217360 0.027357 0.091873
H139  H     H_    0.401428 0.717355 0.972645 0.091868
H140  H     H_    0.598576 0.717354 0.027352 0.091873
N1    N     N_R   0.581873 0.784635 0.872069 0.063267
O53   O     O_R   0.604142 0.888158 0.851572 -0.379110
O54   O     O_R   0.591930 0.693938 0.830035 -0.348222
N2    N     N_R   0.418131 0.784617 0.127926 0.063268
O55   O     O_R   0.395842 0.888135 0.148414 -0.379153
O56   O     O_R   0.408087 0.693920 0.169965 -0.348211
N3    N     N_R   0.081874 0.284632 0.872074 0.063261
O57   O     O_R   0.104151 0.388159 0.851584 -0.379143
O58   O     O_R   0.091925 0.193938 0.830033 -0.348219
N4    N     N_R   0.918123 0.284631 0.127929 0.063271
O59   O     O_R   0.895832 0.388147 0.148411 -0.379166
O60   O     O_R   0.908076 0.193942 0.169971 -0.348205

loop_
_geom_bond_atom_site_label_1
_geom_bond_atom_site_label_2
_geom_bond_distance
_ccdc_geom_bond_type
O4    C12   1.289680 A    
O39   C19   1.316249 A    
C102  H106  1.078333 S    
C107  C108  1.512831 S    
C36   H44   1.105513 S    
Cr7   O51   2.055587 S    
H131  C109  1.075213 S    
C95   C99   1.524397 S    
C58   H54   1.105662 S    
C83   C99   1.551702 S    
O25   C21   1.315810 A    
C46   C50   1.518867 S    
C13   C92   1.498754 S    
C58   H50   1.086003 S    
C27   C43   1.544090 S    
C109  C114  1.543520 S    
C77   H81   1.103903 S    
C65   H65   1.109583 S    
C107  C119  1.564005 S    
C1    O9    1.289306 A    
C2    C43   1.479916 S    
O44   Cr12  2.104656 S    
C15   C90   1.498749 S    
C3    O11   1.289307 A    
C61   C66   1.530239 S    
C56   H36   1.091093 S    
C55   H35   1.091097 S    
C68   H68   1.109585 S    
C54   H38   1.107186 S    
C115  N2    1.474679 S    
C112  C115  1.543507 S    
C45   C49   1.518870 S    
O2    C10   1.289667 A    
C103  H111  1.097124 S    
C100  H120  1.111400 S    
O17   Cr9   2.115349 S    
C7    C47   1.476306 S    
H58   C64   1.091982 S    
H59   C61   1.091981 S    
O31   Cr3   1.970988 S    
C84   H116  1.106177 S    
H19   C35   1.088862 S    
O16   Cr8   1.973695 S    
C110  C118  1.570717 S    
C64   C67   1.530243 S    
C81   C89   1.551009 S    
C113  C117  1.550038 S    
C34   C50   1.537977 S    
C76   H80   1.109421 S    
C85   H97   1.108916 S    
C105  H121  1.095293 S    
O28   Cr4   2.134257 S    
O12   Cr8   2.124494 S    
O22   Cr10  1.982527 S    
C107  H123  1.095293 S    
O46   Cr10  1.996125 S    
C35   H43   1.105514 S    
C86   C90   1.522276 S    
C108  H124  1.095277 S    
C61   H70   1.107333 S    
O14   Cr6   1.973695 S    
C75   C79   1.499160 S    
H91   C83   1.084108 S    
C51   H47   1.110639 S    
H24   C52   1.107707 S    
C81   C97   1.551681 S    
C114  C118  1.550049 S    
C61   C69   1.570526 S    
C25   C29   1.529330 S    
Cr12  O52   2.048246 S    
H130  C112  1.075206 S    
C27   C31   1.529335 S    
C86   C102  1.559670 S    
C31   C47   1.555838 S    
C24   C119  1.499461 S    
C17   O41   1.289889 A    
C19   O43   1.289904 A    
C20   O44   1.289893 A    
C73   H77   1.109432 S    
C105  H125  1.106242 S    
Cr8   O52   2.055583 S    
C46   C54   1.566234 S    
O46   C22   1.323046 A    
C64   C72   1.570532 S    
C39   C43   1.525524 S    
C28   C32   1.529332 S    
C37   C41   1.525527 S    
C16   O36   1.292121 A    
C67   H67   1.109586 S    
C38   H26   1.110179 S    
C115  C119  1.550050 S    
O27   C23   1.315811 A    
C31   H11   1.086780 S    
C22   C117  1.499443 S    
H23   C51   1.107698 S    
C82   H114  1.106223 S    
C88   C92   1.522268 S    
O47   Cr11  1.996122 S    
C74   C78   1.499164 S    
O21   C9    1.296534 A    
H96   C100  1.103661 S    
C12   C71   1.474247 S    
C25   C41   1.544085 S    
O24   C12   1.296532 A    
H93   C97   1.103672 S    
C28   C44   1.544087 S    
C79   H83   1.103894 S    
H129  C111  1.075188 S    
C28   H4    1.082210 S    
C36   C44   1.574862 S    
C111  C116  1.543528 S    
O32   Cr4   1.970987 S    
C26   C30   1.529336 S    
C53   H33   1.091100 S    
C39   C55   1.534560 S    
C63   C68   1.530240 S    
C40   C56   1.534567 S    
O11   Cr7   2.124498 S    
O27   Cr3   2.134258 S    
O3    Cr3   2.092522 S    
C93   C101  1.563000 S    
C97   H117  1.111404 S    
C95   C103  1.562991 S    
Cr5   O49   2.055587 S    
C104  H112  1.097098 S    
C59   H55   1.105670 S    
C57   H53   1.105670 S    
O7    C3    1.304623 A    
C67   C71   1.522165 S    
C83   C91   1.551014 S    
O22   C10   1.296525 A    
C4    O12   1.289307 A    
H94   C98   1.103672 S    
C2    O10   1.289305 A    
C32   H16   1.106262 S    
N4    O59   1.300152 A    
C55   H39   1.107184 S    
O5    C1    1.304621 A    
O3    C11   1.289673 A    
O8    C4    1.304619 A    
C6    C46   1.476306 S    
C105  C106  1.512826 S    
C101  H109  1.097086 S    
Cr1   O49   2.045279 S    
H90   C82   1.084051 S    
Cr3   O51   2.045279 S    
H64   C65   1.105526 S    
C64   H71   1.107331 S    
H60   C62   1.091980 S    
C111  C119  1.570715 S    
C57   C69   1.550454 S    
O26   Cr2   2.134257 S    
C5    O17   1.297359 A    
C105  C117  1.563998 S    
O28   C24   1.315814 A    
O14   C6    1.293352 A    
C8    O20   1.297357 A    
N2    O55   1.300198 A    
C108  C120  1.564003 S    
C31   H15   1.106258 S    
C87   C91   1.522266 S    
C75   H79   1.109439 S    
C34   H42   1.105514 S    
C40   H32   1.105718 S    
C48   C56   1.566230 S    
O41   Cr9   2.104659 S    
C38   C54   1.534566 S    
C66   C70   1.522164 S    
O31   C15   1.313504 A    
C9    C70   1.474247 S    
C47   C55   1.566230 S    
O33   Cr5   2.091190 S    
C60   C72   1.550454 S    
C111  H140  1.084890 S    
C82   C98   1.551686 S    
O5    Cr1   2.013167 S    
O35   Cr7   2.091190 S    
C14   C91   1.498752 S    
O29   Cr1   1.970988 S    
O32   C16   1.313501 A    
H17   C33   1.088867 S    
C78   H86   1.104338 S    
C96   C104  1.562994 S    
C57   H49   1.086004 S    
C30   C46   1.555836 S    
C27   H7    1.105203 S    
C74   C90   1.562791 S    
Cr9   O49   2.048248 S    
C60   H52   1.086008 S    
C18   O42   1.289893 A    
Cr11  O51   2.048248 S    
O26   C22   1.315800 A    
O20   Cr12  2.115352 S    
C73   C77   1.499165 S    
C20   C96   1.502989 S    
C106  H126  1.106248 S    
C79   C95   1.563068 S    
C80   C96   1.563079 S    
C49   H45   1.110645 S    
C36   C52   1.537979 S    
C17   C93   1.502983 S    
C39   H27   1.110182 S    
C77   C93   1.563088 S    
C40   H28   1.110185 S    
C76   C80   1.499156 S    
C38   C42   1.525526 S    
C29   H13   1.106250 S    
C66   H66   1.109588 S    
C80   H84   1.103887 S    
C109  C117  1.570708 S    
H21   C49   1.107713 S    
O30   C14   1.313494 A    
C16   C89   1.498754 S    
C85   C89   1.522272 S    
C62   C65   1.530243 S    
C88   H104  1.097731 S    
C115  H135  1.116287 S    
C116  H136  1.116281 S    
O6    Cr2   2.013166 S    
C76   C92   1.562783 S    
C85   H101  1.097749 S    
C48   C52   1.518868 S    
C23   C120  1.499456 S    
C60   H56   1.105677 S    
O42   Cr10  2.104656 S    
O18   Cr10  2.115352 S    
C106  H122  1.095294 S    
C18   C94   1.502993 S    
O34   Cr6   2.091193 S    
C78   C94   1.563084 S    
C79   H87   1.104329 S    
C26   H2    1.082233 S    
C47   C51   1.518866 S    
O24   Cr12  1.982527 S    
O30   Cr2   1.970987 S    
C110  C113  1.543538 S    
C109  H138  1.084883 S    
O1    C9    1.289678 A    
O48   Cr12  1.996125 S    
C4    C41   1.479916 S    
O37   C17   1.316253 A    
C15   O35   1.292120 A    
C86   H98   1.108934 S    
C37   H29   1.105716 S    
Cr10  O50   2.048246 S    
O40   C20   1.316251 A    
O43   Cr11  2.104659 S    
C82   C90   1.551016 S    
O37   Cr5   2.000085 S    
N3    O57   1.300213 A    
C93   C97   1.524403 S    
C94   C102  1.563001 S    
O39   Cr7   2.000085 S    
C98   H118  1.111406 S    
C62   H69   1.107334 S    
O45   Cr9   1.996122 S    
C88   C104  1.559658 S    
C13   O33   1.292125 A    
C104  H108  1.078312 S    
O13   Cr5   1.973693 S    
O23   Cr11  1.982526 S    
H95   C99   1.103683 S    
O15   Cr7   1.973693 S    
H63   C66   1.105534 S    
C52   H48   1.110642 S    
O23   C11   1.296532 A    
C30   H14   1.106265 S    
H61   C68   1.105529 S    
C3    C42   1.479914 S    
C32   H12   1.086783 S    
C62   C70   1.570537 S    
C1    C44   1.479913 S    
C19   C95   1.503003 S    
H20   C36   1.088873 S    
C35   C43   1.574859 S    
C33   C41   1.574858 S    
O40   Cr8   2.000082 S    
O6    C2    1.304621 A    
C101  H105  1.078332 S    
O1    Cr1   2.092522 S    
C102  H110  1.097106 S    
O19   Cr11  2.115349 S    
C113  N4    1.474696 S    
C5    C45   1.476301 S    
O29   C13   1.313499 A    
H57   C63   1.091980 S    
C8    C48   1.476307 S    
O45   C21   1.323043 A    
O47   C23   1.323055 A    
N1    O53   1.300159 A    
C73   H73   1.095775 S    
C114  N3    1.474696 S    
C26   C42   1.544087 S    
C116  N1    1.474678 S    
C6    O18   1.297354 A    
C77   H85   1.104343 S    
C106  C118  1.564011 S    
O36   Cr8   2.091193 S    
C53   H37   1.107181 S    
C73   C89   1.562786 S    
O38   Cr6   2.000082 S    
C87   H99   1.108920 S    
C75   H75   1.095777 S    
C59   C60   1.540759 S    
C56   H40   1.107191 S    
C57   C58   1.540750 S    
O15   C7    1.293350 A    
O8    Cr4   2.013166 S    
C68   C72   1.522162 S    
C45   C53   1.566234 S    
C103  H107  1.078314 S    
C63   C71   1.570534 S    
C80   H88   1.104335 S    
N4    O60   1.301569 A    
C78   H82   1.103887 S    
C87   C103  1.559674 S    
N1    O54   1.301574 A    
C59   C71   1.550452 S    
C112  C120  1.570703 S    
C83   H115  1.106286 S    
C113  H133  1.116293 S    
C76   H76   1.095760 S    
C32   C48   1.555839 S    
C7    O19   1.297360 A    
C107  H127  1.106242 S    
Cr4   O52   2.045280 S    
O2    Cr2   2.092524 S    
O48   C24   1.323048 A    
Cr6   O50   2.055583 S    
C50   H46   1.110642 S    
C33   H41   1.105515 S    
C25   H1    1.082205 S    
C39   H31   1.105714 S    
C40   C44   1.525527 S    
C11   C72   1.474245 S    
C29   H9    1.086774 S    
O9    Cr5   2.124498 S    
O16   C8    1.293351 A    
H62   C67   1.105531 S    
H22   C50   1.107703 S    
N2    O56   1.301586 A    
O7    Cr3   2.013167 S    
C114  H134  1.116295 S    
C74   H74   1.095790 S    
C59   H51   1.086009 S    
C116  C120  1.550048 S    
C25   H5    1.105178 S    
C84   C100  1.551672 S    
C85   C101  1.559667 S    
C86   H102  1.097772 S    
C96   C100  1.524405 S    
O13   C5    1.293349 A    
Cr2   O50   2.045280 S    
N3    O58   1.301599 A    
C112  H139  1.084879 S    
C37   C53   1.534567 S    
H89   C81   1.083994 S    
C35   C51   1.537977 S    
O21   Cr9   1.982526 S    
C33   C49   1.537976 S    
C58   C70   1.550456 S    
C28   H8    1.105181 S    
O38   C18   1.316252 A    
C37   H25   1.110184 S    
O25   Cr1   2.134258 S    
C38   H30   1.105710 S    
C84   C92   1.551012 S    
C29   C45   1.555837 S    
C21   C118  1.499450 S    
C81   H113  1.106188 S    
C94   C98   1.524397 S    
C87   H103  1.097759 S    
C88   H100  1.108903 S    
C14   O34   1.292127 A    
C74   H78   1.109430 S    
H92   C84   1.083989 S    
C10   C69   1.474243 S    
C65   C69   1.522170 S    
H132  C110  1.075217 S    
C26   H6    1.105201 S    
C30   H10   1.086781 S    
C63   H72   1.107334 S    
O10   Cr6   2.124494 S    
C110  H137  1.084904 S    
O4    Cr4   2.092524 S    
C108  H128  1.106228 S    
C99   H119  1.111418 S    
H18   C34   1.088869 S    
C27   H3    1.082231 S    
C54   H34   1.091101 S    
C75   C91   1.562781 S    
C34   C42   1.574863 S    
