data_mof_unit_26823.cif
_audit_creation_date              2012-12-11T14:13:31-0500
_audit_creation_method            fapswitch 2.2
_symmetry_space_group_name_H-M    P1
_symmetry_Int_Tables_number       1
_space_group_crystal_system       triclinic
_cell_length_a                    11.617948
_cell_length_b                    18.44894
_cell_length_c                    9.931887
_cell_angle_alpha                 89.998646
_cell_angle_beta                  111.237096
_cell_angle_gamma                 90.003706
_cell_volume                      1984.22180854

loop_
_atom_site_label
_atom_site_type_symbol
_atom_type_description
_atom_site_fract_x
_atom_site_fract_y
_atom_site_fract_z
_atom_type_partial_charge
C1    C     C_R   0.073843 0.645808 0.140358 0.556630
C2    C     C_2   0.589276 0.080407 0.098306 -0.131215
C3    C     C_2   0.632278 0.439194 0.016231 -0.122086
C4    C     C_2   0.410752 0.580438 0.901626 -0.131194
C5    C     C_2   0.456063 0.978267 0.078967 -0.170203
C6    C     C_2   0.476836 0.052147 0.041095 -0.173429
C7    C     C_2   0.543946 0.478274 0.921084 -0.170253
C8    C     C_2   0.523154 0.552142 0.958994 -0.173518
C9    C     C_2   0.003803 0.920654 0.110356 -0.122798
C10   C     C_2   0.981489 0.074940 0.883435 -0.120302
C11   C     C_2   0.996216 0.420652 0.889652 -0.122724
C12   C     C_R   0.928087 0.353445 0.860439 0.548925
C13   C     C_2   0.018516 0.574934 0.116567 -0.120342
C14   C     C_2   0.000461 0.958467 0.994967 -0.169622
C15   C     C_2   0.958415 0.032168 0.978524 -0.166220
C16   C     C_2   0.999520 0.458471 0.005003 -0.169403
C17   C     C_2   0.041600 0.532165 0.021489 -0.166019
C18   C     C_R   0.469645 0.646427 0.443106 0.578072
C19   C     C_R   0.528913 0.352332 0.554378 0.563607
C20   C     C_R   0.530329 0.146433 0.556874 0.577910
C21   C     C_R   0.471110 0.852328 0.445637 0.563532
C22   C     C_R   0.377080 0.645797 0.960556 0.557027
C23   C     C_R   0.926159 0.145811 0.859644 0.556631
C24   C     C_R   0.647376 0.362689 0.991682 0.568912
C25   C     C_R   0.622923 0.145790 0.039431 0.556971
C26   C     C_R   0.352613 0.862683 0.008348 0.568943
C27   C     C_R   0.498784 0.422406 0.477138 -0.026646
C28   C     C_R   0.494318 0.573385 0.509421 -0.028290
C29   C     C_R   0.501300 0.922402 0.522885 -0.026544
C30   C     C_R   0.505598 0.073392 0.490548 -0.028310
C31   C     C_R   0.275228 0.417111 0.431817 0.187234
C32   C     C_R   0.718328 0.576575 0.550245 0.185153
C33   C     C_R   0.724772 0.917197 0.567740 0.187126
C34   C     C_R   0.071918 0.853445 0.139561 0.548942
C35   C     C_R   0.281675 0.076492 0.450255 0.185188
C36   C     C_R   0.173896 0.448677 0.453722 -0.107383
C37   C     C_R   0.815620 0.545130 0.518885 -0.111747
C38   C     C_R   0.825977 0.948800 0.545597 -0.107482
C39   C     C_R   0.184560 0.045002 0.481914 -0.111800
C40   C     C_R   0.182397 0.518552 0.508512 -0.152017
C41   C     C_R   0.802469 0.476406 0.457620 -0.148249
C42   C     C_R   0.817346 0.018680 0.490805 -0.152045
C43   C     C_R   0.197860 0.976271 0.543161 -0.148246
C44   C     C_R   0.289037 0.559283 0.533015 -0.087099
C45   C     C_R   0.388147 0.456282 0.469661 0.027712
C46   C     C_R   0.695916 0.436280 0.437240 -0.077308
C47   C     C_R   0.710714 0.059374 0.466527 -0.087104
C48   C     C_R   0.304386 0.936185 0.563260 -0.077289
C49   C     C_R   0.390894 0.530414 0.504920 -0.037059
C50   C     C_R   0.598973 0.465342 0.474502 -0.030414
C51   C     C_R   0.608985 0.030459 0.494832 -0.037031
C52   C     C_R   0.401161 0.965299 0.525744 -0.030388
C53   C     C_3   0.274658 0.344496 0.226132 -0.298359
C54   C     C_3   0.743502 0.637539 0.773690 -0.309178
C55   C     C_3   0.726036 0.844742 0.773854 -0.298474
C56   C     C_R   0.604135 0.538869 0.513731 0.034949
C57   C     C_3   0.256015 0.137460 0.226755 -0.309249
C58   C     C_R   0.611843 0.956324 0.530117 0.027803
C59   C     C_R   0.395876 0.038830 0.486491 0.035027
C60   C     C_2   0.367681 0.939201 0.983862 -0.122093
Cr1   Cr    Cr6+3 0.187610 0.750000 0.979860 0.986892
Cr2   Cr    Cr6+3 0.812390 0.250000 0.020140 0.986898
Cr3   Cr    Cr6+3 0.245810 0.750000 0.341640 1.005348
Cr4   Cr    Cr6+3 0.754190 0.250000 0.658360 1.005329
Cr5   Cr    Cr6+3 0.485760 0.750000 0.219910 1.026091
Cr6   Cr    Cr6+3 0.514240 0.250000 0.780090 1.026118
H1    H     H_    0.088210 0.418993 0.428050 0.094646
H2    H     H_    0.689027 0.382735 0.390370 0.148741
H3    H     H_    0.707428 0.112716 0.420237 0.145921
H4    H     H_    0.311394 0.882628 0.610110 0.148727
H5    H     H_    0.404665 0.079866 0.954300 0.153173
H6    H     H_    0.519652 0.953703 0.177454 0.163780
H7    H     H_    0.595268 0.579821 0.045938 0.153221
H8    H     H_    0.480420 0.453732 0.822516 0.163745
H9    H     H_    0.662128 0.050595 0.179872 0.108360
H10   H     H_    0.304748 0.964274 0.885493 0.106940
H11   H     H_    0.337946 0.550674 0.819884 0.108302
H12   H     H_    0.901988 0.573877 0.542962 0.093663
H13   H     H_    0.695153 0.464247 0.114678 0.106914
H14   H     H_    0.908032 0.051565 0.044973 0.163761
H15   H     H_    0.038899 0.937268 0.917909 0.160477
H16   H     H_    0.092006 0.551562 0.955069 0.163771
H17   H     H_    0.961020 0.437282 0.081998 0.160440
H18   H     H_    0.027355 0.054695 0.812952 0.094279
H19   H     H_    0.971261 0.943564 0.191069 0.103564
H20   H     H_    0.972623 0.554689 0.187020 0.094245
H21   H     H_    0.028816 0.443552 0.808990 0.103550
H22   H     H_    0.189987 0.316134 0.372289 0.241354
H23   H     H_    0.911666 0.919146 0.571109 0.094675
H24   H     H_    0.349530 0.305922 0.231755 0.154754
H25   H     H_    0.297729 0.398287 0.191862 0.153997
H26   H     H_    0.187083 0.325634 0.142449 0.135150
H27   H     H_    0.810788 0.673800 0.618886 0.242161
H28   H     H_    0.764970 0.691007 0.827896 0.135320
H29   H     H_    0.816900 0.598767 0.834733 0.154292
H30   H     H_    0.653462 0.618925 0.776212 0.154898
H31   H     H_    0.810120 0.816272 0.627197 0.241313
H32   H     H_    0.650652 0.806619 0.768464 0.154742
H33   H     H_    0.704090 0.898669 0.808578 0.154135
H34   H     H_    0.098204 0.073721 0.458068 0.093635
H35   H     H_    0.813453 0.825403 0.857112 0.135093
H36   H     H_    0.189035 0.173667 0.381822 0.242113
H37   H     H_    0.233850 0.190880 0.172392 0.135351
H38   H     H_    0.182962 0.098402 0.166042 0.154433
H39   H     H_    0.346163 0.119191 0.224007 0.154782
H40   H     H_    0.105141 0.541910 0.529456 0.106375
H41   H     H_    0.876680 0.453147 0.430286 0.106410
H42   H     H_    0.894495 0.042070 0.469677 0.106410
H43   H     H_    0.123782 0.952977 0.570705 0.106457
H44   H     H_    0.292216 0.612614 0.579311 0.145959
N1    N     N_2   0.261459 0.347386 0.365831 -0.497659
N2    N     N_2   0.738386 0.643757 0.626290 -0.498187
N3    N     N_2   0.738706 0.847504 0.633865 -0.497604
N4    N     N_2   0.261401 0.143676 0.374210 -0.498232
O1    O     O_R   0.267710 0.668200 0.902110 -0.526126
O2    O     O_R   0.883280 0.330790 0.732340 -0.510821
O3    O     O_R   0.883280 0.169210 0.732340 -0.511965
O4    O     O_R   0.116720 0.830790 0.267660 -0.510791
O5    O     O_R   0.366710 0.675440 0.427590 -0.513725
O6    O     O_R   0.633290 0.324560 0.572410 -0.513293
O7    O     O_R   0.633290 0.175440 0.572410 -0.513695
O8    O     O_R   0.366710 0.824560 0.427590 -0.513242
O9    O     O_R   0.534870 0.669390 0.371760 -0.480978
O10   O     O_R   0.465130 0.330610 0.628240 -0.497330
O11   O     O_R   0.465130 0.169390 0.628240 -0.480899
O12   O     O_R   0.732290 0.331800 0.097890 -0.532524
O13   O     O_R   0.534870 0.830610 0.371760 -0.497336
O14   O     O_R   0.453080 0.674480 0.075160 -0.492214
O15   O     O_R   0.546920 0.325520 0.924840 -0.496846
O16   O     O_R   0.546920 0.174480 0.924840 -0.492182
O17   O     O_R   0.453080 0.825520 0.075160 -0.496856
O18   O     O_3   0.306390 0.750000 0.180470 -0.260381
O19   O     O_3   0.693610 0.250000 0.819530 -0.260358
O20   O     O_R   0.732290 0.168200 0.097890 -0.526141
O21   O     O_R   0.267710 0.831800 0.902110 -0.532542
O22   O     O_R   0.099480 0.674460 0.038850 -0.504636
O23   O     O_R   0.900520 0.325540 0.961150 -0.522316
O24   O     O_R   0.900520 0.174460 0.961150 -0.504644
O25   O     O_R   0.099480 0.825540 0.038850 -0.522339
O26   O     O_R   0.116720 0.669210 0.267660 -0.512008

loop_
_geom_bond_atom_site_label_1
_geom_bond_atom_site_label_2
_ccdc_geom_bond_type
C44   C49   A    
C34   O4    A    
C57   H39   S    
C30   C51   A    
C33   C58   A    
Cr4   O2    S    
Cr3   O26   S    
C23   O24   A    
C4    C8    D    
C3    H13   S    
Cr5   O18   S    
C28   C56   A    
C36   H1    S    
C7    C8    S    
C20   C30   S    
C38   H23   S    
Cr5   O13   S    
Cr2   O19   S    
C38   C42   A    
C5    H6    S    
C3    C7    D    
C10   C15   D    
C5    C6    S    
Cr4   O7    S    
C34   O25   A    
Cr3   O5    S    
C35   N4    S    
C35   C59   A    
C17   H16   S    
C28   C49   A    
C21   O8    A    
C4    H11   S    
C47   H3    S    
C26   O21   A    
Cr1   O18   S    
C9    H19   S    
H22   N1    S    
C24   O15   A    
C11   H21   S    
C16   C17   S    
C13   H20   S    
Cr1   O1    S    
C41   C46   A    
C21   O13   A    
C1    O22   A    
C19   C27   S    
C43   C48   A    
C54   H30   S    
C27   C50   A    
C18   O9    A    
Cr6   O15   S    
C53   N1    S    
C24   O12   A    
C3    C24   S    
C2    C6    D    
C25   O16   A    
Cr5   O17   S    
C7    H8    S    
C6    H5    S    
C57   H37   S    
C19   O10   A    
Cr5   O14   S    
C36   C40   A    
C18   C28   S    
Cr2   O12   S    
Cr3   O4    S    
Cr1   O25   S    
C39   C43   A    
C55   N3    S    
C32   C37   A    
C21   C29   S    
C60   H10   S    
C16   H17   S    
C50   C56   A    
Cr4   O3    S    
C35   C39   A    
C9    C14   D    
C46   H2    S    
H36   N4    S    
C52   C59   A    
Cr6   O19   S    
C4    C22   S    
C11   C16   D    
C22   O14   A    
C15   H14   S    
C45   C49   A    
C30   C59   A    
C53   H26   S    
C20   O7    A    
C54   N2    S    
C51   C58   A    
Cr3   O18   S    
Cr2   O24   S    
C25   O20   A    
C54   H29   S    
C1    O26   A    
C53   H25   S    
C22   O1    A    
C19   O6    A    
C9    C34   S    
Cr6   O10   S    
C1    C13   S    
H31   N3    S    
Cr3   O8    S    
Cr1   O21   S    
C40   H40   S    
C57   H38   S    
C46   C50   A    
Cr4   O19   S    
C32   N2    S    
C5    C60   D    
C14   C15   S    
C12   O23   A    
C48   H4    S    
C23   O3    A    
C47   C51   A    
C11   C12   S    
C57   N4    S    
C10   C23   S    
C37   H12   S    
C55   H35   S    
C33   N3    S    
C33   C38   A    
Cr4   O6    S    
Cr6   O11   S    
C13   C17   D    
Cr2   O20   S    
C20   O11   A    
C27   C45   A    
C39   H34   S    
C42   H42   S    
C55   H32   S    
C10   H18   S    
C8    H7    S    
C2    C25   S    
C42   C47   A    
Cr5   O9    S    
Cr2   O23   S    
C37   C41   A    
C54   H28   S    
C2    H9    S    
H27   N2    S    
C41   H41   S    
C40   C44   A    
C29   C58   A    
C31   C45   A    
C55   H33   S    
C53   H24   S    
C31   N1    S    
C31   C36   A    
C43   H43   S    
C14   H15   S    
Cr6   O16   S    
C48   C52   A    
C26   C60   S    
C18   O5    A    
C32   C56   A    
C26   O17   A    
Cr1   O22   S    
C12   O2    A    
C29   C52   A    
C44   H44   S    
