data_mof_unit_33582.cif
_audit_creation_date              2012-10-26T21:21:36-0400
_audit_creation_method            fapswitch 2.2
_symmetry_space_group_name_H-M    P1
_symmetry_Int_Tables_number       1
_space_group_crystal_system       triclinic
_cell_length_a                    14.342549
_cell_length_b                    10.7892
_cell_length_c                    9.606947
_cell_angle_alpha                 90.033739
_cell_angle_beta                  90.025071
_cell_angle_gamma                 92.425338
_cell_volume                      1485.29134216

loop_
_atom_site_label
_atom_site_type_symbol
_atom_type_description
_atom_site_fract_x
_atom_site_fract_y
_atom_site_fract_z
_atom_type_partial_charge
C1    C     C_R   0.496637 0.262535 0.500010 0.539775
C2    C     C_R   0.554668 0.067073 0.419149 -0.143563
C3    C     C_R   0.554838 0.939208 0.419275 -0.145099
C4    C     C_R   0.331192 0.499623 0.500019 0.529842
C5    C     C_R   0.490465 0.870581 0.500104 0.005511
C6    C     C_R   0.623465 0.665538 0.144013 -0.081685
C7    C     C_R   0.683249 0.747020 0.071966 -0.167551
C8    C     C_R   0.683221 0.747089 0.928607 -0.161432
C9    C     C_R   0.623388 0.665701 0.856317 -0.077887
C10   C     C_R   0.560454 0.581571 0.925302 0.159578
C11   C     C_R   0.560466 0.581503 0.074841 0.161112
C12   C     C_1   0.771165 0.500609 0.500086 -0.044854
C13   C     C_R   0.442494 0.422327 0.073751 0.005705
C14   C     C_R   0.442510 0.422363 0.925953 0.008323
C15   C     C_R   0.497175 0.737171 0.500058 0.520152
C16   C     C_R   0.668803 0.500353 0.500006 0.530005
C17   C     C_1   0.228850 0.499963 0.500070 -0.032899
C18   C     C_1   0.143423 0.500265 0.500165 -0.025324
C19   C     C_1   0.042742 0.500548 0.500222 0.009564
C20   C     C_1   0.957300 0.500690 0.500213 0.003811
C21   C     C_1   0.856608 0.500719 0.500155 -0.040582
C22   C     C_R   0.350161 0.120723 0.650651 -0.146552
C23   C     C_R   0.282115 0.052298 0.724507 -0.122495
C24   C     C_R   0.281754 0.922367 0.725065 0.257364
C25   C     C_R   0.350347 0.862223 0.651001 -0.037630
C26   C     C_R   0.421227 0.930003 0.577713 -0.020831
C27   C     C_R   0.421098 0.061058 0.577557 0.011822
C28   C     C_R   0.490140 0.128351 0.499873 0.011182
Cu1   Cu    Cu3+1 0.499990 0.499990 0.640660 0.918489
Cu2   Cu    Cu3+1 0.500010 0.500010 0.359340 0.925836
H1    H     H_    0.606694 0.118747 0.358246 0.129116
H2    H     H_    0.630298 0.672737 0.253655 0.173935
H3    H     H_    0.730308 0.810290 0.128155 0.119065
H4    H     H_    0.171440 0.907503 0.841958 0.323409
H5    H     H_    0.730283 0.810392 0.872622 0.125272
H6    H     H_    0.630138 0.673009 0.746657 0.179705
H7    H     H_    0.395390 0.358656 0.870789 0.112372
H8    H     H_    0.345053 0.220351 0.649431 0.131977
H9    H     H_    0.228816 0.100832 0.779635 0.099606
H10   H     H_    0.345843 0.762023 0.649682 0.165928
H11   H     H_    0.607005 0.893551 0.358468 0.109951
H12   H     H_    0.395372 0.358586 0.128735 0.119563
N1    N     N_R   0.500820 0.501210 0.147910 -0.236429
N2    N     N_R   0.500850 0.501290 0.852040 -0.235517
O1    O     O_R   0.499990 0.319640 0.618810 -0.495435
O2    O     O_R   0.500000 0.319660 0.381240 -0.494251
O3    O     O_R   0.376050 0.499990 0.618810 -0.487914
O4    O     O_R   0.376060 0.500010 0.381240 -0.474416
O5    O     O_R   0.500000 0.680340 0.618760 -0.523216
O6    O     O_R   0.500010 0.680360 0.381190 -0.506366
O7    O     O_R   0.623940 0.499990 0.618760 -0.493602
O8    O     O_R   0.623950 0.500010 0.381190 -0.497797
O9    O     O_3   0.214636 0.851465 0.795049 -0.694641

loop_
_geom_bond_atom_site_label_1
_geom_bond_atom_site_label_2
_ccdc_geom_bond_type
C8    C9    A    
C1    C28   S    
C6    H2    S    
C23   C24   A    
C11   N1    A    
C6    C7    A    
C9    H6    S    
C9    C10   A    
C8    H5    S    
C19   C20   T    
C16   O7    A    
C17   C18   T    
Cu2   O6    S    
C7    C8    A    
Cu1   N2    S    
Cu1   O5    S    
C13   C14   A    
C24   C25   A    
C14   H7    S    
C7    H3    S    
C1    O1    A    
C26   C27   A    
Cu1   Cu2   S    
Cu1   O3    S    
C23   H9    S    
C4    C17   S    
Cu2   O4    S    
C13   H12   S    
C25   C26   A    
C2    C3    A    
C22   C27   A    
C15   O5    A    
C25   H10   S    
C4    O4    A    
C1    O2    A    
Cu2   N1    S    
C5    C15   S    
C10   C11   A    
C10   N2    A    
C5    C26   A    
C22   H8    S    
C16   O8    A    
C13   N1    A    
C20   C21   S    
H4    O9    S    
C14   N2    A    
C18   C19   S    
Cu1   O7    S    
C15   O6    A    
C6    C11   A    
Cu2   O8    S    
C22   C23   A    
C3    H11   S    
C2    C28   A    
C3    C5    A    
C24   O9    S    
C12   C21   T    
Cu2   O2    S    
C12   C16   S    
Cu1   O1    S    
C2    H1    S    
C27   C28   A    
C4    O3    A    
