data_mof_unit_32780.cif
_audit_creation_date              2012-12-10T17:35:34-0500
_audit_creation_method            fapswitch 2.2
_symmetry_space_group_name_H-M    P1
_symmetry_Int_Tables_number       1
_space_group_crystal_system       triclinic
_cell_length_a                    10.728854
_cell_length_b                    12.376847
_cell_length_c                    13.178059
_cell_angle_alpha                 116.832588
_cell_angle_beta                  76.612044
_cell_angle_gamma                 101.241114
_cell_volume                      1510.79482298

loop_
_atom_site_label
_atom_site_type_symbol
_atom_type_description
_atom_site_fract_x
_atom_site_fract_y
_atom_site_fract_z
_atom_type_partial_charge
C1    C     C_R   0.515463 0.854999 0.285970 0.820657
C2    C     C_3   0.123281 0.998734 0.495707 0.016319
C3    C     C_3   0.049024 0.039998 0.621754 0.303354
C4    C     C_3   0.065721 0.867905 0.421258 -0.510768
C5    C     C_R   0.331233 0.281314 0.024638 -0.193423
C6    C     C_R   0.460580 0.227243 0.835942 -0.042113
C7    C     C_R   0.628978 0.810023 0.085266 0.455189
C8    C     C_R   0.679549 0.722494 0.978136 -0.054447
C9    C     C_R   0.632828 0.600352 0.944016 -0.302874
C10   C     C_R   0.529697 0.561988 0.013447 0.078317
C11   C     C_R   0.478120 0.650426 0.122156 0.017692
C12   C     C_R   0.739765 0.999229 0.499047 0.783213
C13   C     C_R   0.477697 0.438001 0.979261 0.110976
C14   C     C_R   0.379258 0.403967 0.055422 0.153016
C15   C     C_R   0.325361 0.493074 0.158825 -0.220540
C16   C     C_R   0.370234 0.614692 0.189313 -0.158922
C17   C     C_R   0.516429 0.347182 0.869531 -0.229178
C18   C     C_R   0.372599 0.192925 0.915377 -0.204643
C19   C     C_R   0.535748 0.772625 0.161761 -0.214378
C20   C     C_R   0.706496 0.343224 0.324538 -0.113369
C21   C     C_R   0.314691 0.754996 0.635336 0.083479
C22   C     C_R   0.258355 0.649088 0.645974 -0.246521
C23   C     C_R   0.482138 0.144743 0.713562 0.820846
C24   C     C_R   0.320595 0.543746 0.585369 -0.189131
C25   C     C_R   0.445600 0.544779 0.520521 -0.000962
C26   C     C_R   0.491816 0.651694 0.502258 0.303672
C27   C     C_R   0.522254 0.442434 0.466839 -0.079841
C28   C     C_R   0.632188 0.443487 0.382349 0.118314
C29   C     C_R   0.667504 0.545566 0.358371 -0.263838
C30   C     C_R   0.600943 0.647522 0.418573 -0.182330
C31   C     C_R   0.499870 0.341603 0.496457 0.091825
C32   C     C_R   0.674381 0.245213 0.353691 0.002706
C33   C     C_R   0.260945 0.998538 0.497152 0.813844
C34   C     C_3   0.961422 0.087841 0.449314 -0.419774
C35   C     C_3   0.105465 0.087043 0.445537 -0.140260
C36   C     C_3   0.903945 0.041889 0.623159 -0.252449
C37   C     C_3   0.921432 0.867006 0.420654 -0.162394
C38   C     C_3   0.878316 0.997763 0.497612 -0.000565
Cu1   Cu    Cu3+1 0.529690 0.098270 0.475420 0.971064
Cu2   Cu    Cu3+1 0.470310 0.901730 0.524580 0.934662
H1    H     H_    0.934960 0.182078 0.505561 0.174591
H2    H     H_    0.074674 0.804342 0.457222 0.175264
H3    H     H_    0.060799 0.970940 0.650964 0.088379
H4    H     H_    0.329382 0.099753 0.890565 0.152286
H5    H     H_    0.245521 0.469010 0.214950 0.152908
H6    H     H_    0.257625 0.254619 0.083214 0.155874
H7    H     H_    0.584468 0.367895 0.805129 0.144560
H8    H     H_    0.681133 0.537787 0.863186 0.150836
H9    H     H_    0.939851 0.064810 0.362595 0.196031
H10   H     H_    0.318149 0.680379 0.266028 0.160985
H11   H     H_    0.730065 0.167762 0.310045 0.171634
H12   H     H_    0.750013 0.549094 0.294148 0.171565
H13   H     H_    0.264159 0.835677 0.679405 0.127700
H14   H     H_    0.264361 0.461580 0.584770 0.155299
H15   H     H_    0.163936 0.647216 0.697343 0.164683
H16   H     H_    0.636538 0.720341 0.394119 0.203526
H17   H     H_    0.144603 0.181210 0.499484 0.175167
H18   H     H_    0.877965 0.136920 0.674270 0.157455
H19   H     H_    0.864962 0.803223 0.456838 0.150540
H20   H     H_    0.122244 0.833258 0.332433 0.186250
N1    N     N_R   0.574690 0.246280 0.438200 -0.210085
N2    N     N_R   0.426100 0.754320 0.561190 -0.208725
O1    O     O_R   0.537340 0.972510 0.318130 -0.534551
O2    O     O_R   0.487200 0.806530 0.359650 -0.609993
O3    O     O_R   0.707380 0.082980 0.479220 -0.589504
O4    O     O_R   0.657240 0.917000 0.520740 -0.596761
O5    O     O_R   0.512800 0.193470 0.640350 -0.577648
O6    O     O_R   0.462660 0.027490 0.681870 -0.583834
O7    O     O_R   0.342760 0.083000 0.479260 -0.575653
O8    O     O_R   0.292620 0.917020 0.520780 -0.615720
C39   C     C_1   0.822744 0.969720 0.682876 0.201657
N3    N     N_1   0.758938 0.913423 0.729585 -0.259779
O9    O     O_3   0.681886 0.930004 0.119830 -0.573918
C40   C     C_3   0.614719 0.988315 0.081631 -0.273192
H21   H     H_    0.511583 0.990184 0.122682 0.181544
H22   H     H_    0.622634 0.944582 0.986071 0.167535
H23   H     H_    0.658191 0.083899 0.106871 0.186556
C41   C     C_1   0.786093 0.756521 0.904797 0.320422
N4    N     N_1   0.871716 0.783655 0.846144 -0.291301
C42   C     C_1   0.816523 0.338221 0.235594 0.202763
N5    N     N_1   0.904555 0.334066 0.164413 -0.299067
C43   C     C_1   0.407825 0.342685 0.595627 0.296785
N6    N     N_1   0.333858 0.344664 0.675799 -0.254551
C44   C     C_1   0.175837 0.054913 0.326512 0.249584
N7    N     N_1   0.230934 0.029815 0.233552 -0.301360
O10   O     O_3   0.102840 0.157926 0.691987 -0.583638
C45   C     C_3   0.085502 0.174692 0.807444 -0.269287
H24   H     H_    0.137006 0.109595 0.814958 0.147942
H25   H     H_    0.981628 0.165947 0.843829 0.169180
H26   H     H_    0.127116 0.267976 0.859769 0.213490
C46   C     C_1   0.896221 0.818721 0.301373 0.229897
N8    N     N_1   0.876247 0.780899 0.208102 -0.270745

loop_
_geom_bond_atom_site_label_1
_geom_bond_atom_site_label_2
_ccdc_geom_bond_type
C2    C35   S    
C45   H24   S    
O9    C40   S    
C31   N1    A    
C4    H2    S    
C7    C8    A    
C7    O9    S    
C11   C19   A    
C29   C30   A    
C31   C43   S    
Cu2   O8    S    
C28   C29   A    
C16   H10   S    
C32   N1    A    
C36   H18   S    
C24   H14   S    
C15   C16   A    
Cu2   N2    S    
C34   C35   S    
C23   O5    A    
C8    C9    A    
C40   H23   S    
C9    C10   A    
C36   C39   S    
C33   O7    A    
C34   C38   S    
C21   C22   A    
C3    O10   S    
C8    C41   S    
Cu1   O3    S    
C34   H1    S    
Cu1   N1    S    
C1    O1    A    
C6    C18   A    
C1    C19   S    
C40   H21   S    
C20   C42   S    
C27   C31   A    
C24   C25   A    
C46   N8    T    
C37   C46   S    
C41   N4    T    
C5    C18   A    
C20   C28   A    
C25   C26   A    
C12   O4    A    
C23   O6    A    
C2    C4    S    
C32   H11   S    
C37   C38   S    
C18   H4    S    
C11   C16   A    
C3    H3    S    
C4    H20   S    
Cu1   O7    S    
C44   N7    T    
C5    C14   A    
C37   H19   S    
C5    H6    S    
C40   H22   S    
C33   O8    A    
C2    C33   S    
C26   C30   A    
C7    C19   A    
C45   H25   S    
C22   C24   A    
C15   H5    S    
C1    O2    A    
Cu1   Cu2   S    
C20   C32   A    
C6    C17   A    
C34   H9    S    
O10   C45   S    
Cu1   O5    S    
C17   H7    S    
C42   N5    T    
C10   C13   A    
C35   C44   S    
C22   H15   S    
C25   C27   A    
Cu1   O1    S    
C12   O3    A    
Cu2   O2    S    
C13   C17   A    
C35   H17   S    
C36   C38   S    
C2    C3    S    
C26   N2    A    
C39   N3    T    
C21   H13   S    
C30   H16   S    
C3    C36   S    
C6    C23   S    
C12   C38   S    
C10   C11   A    
C4    C37   S    
C9    H8    S    
C43   N6    T    
Cu2   O6    S    
C45   H26   S    
C27   C28   A    
C14   C15   A    
Cu2   O4    S    
C21   N2    A    
C13   C14   A    
C29   H12   S    
