data_mof_unit_47625.cif
_audit_creation_date              2012-12-10T18:04:00-0500
_audit_creation_method            fapswitch 2.2
_symmetry_space_group_name_H-M    P1
_symmetry_Int_Tables_number       1
_space_group_crystal_system       triclinic
_cell_length_a                    10.94147
_cell_length_b                    9.619043
_cell_length_c                    11.068465
_cell_angle_alpha                 89.664002
_cell_angle_beta                  93.91642
_cell_angle_gamma                 90.482725
_cell_volume                      1162.13891832

loop_
_atom_site_label
_atom_site_type_symbol
_atom_type_description
_atom_site_fract_x
_atom_site_fract_y
_atom_site_fract_z
_atom_type_partial_charge
C1    C     C_R   0.262662 0.498982 0.506732 0.806693
C2    C     C_R   0.736424 0.500606 0.489308 0.808362
C3    C     C_R   0.417273 0.074154 0.426480 0.055801
C4    C     C_R   0.587446 0.074577 0.567819 0.061543
C5    C     C_R   0.414259 0.925652 0.430062 0.043631
C6    C     C_R   0.587573 0.926312 0.567252 0.050179
C7    C     C_R   0.498484 0.500161 0.262698 0.799096
C8    C     C_R   0.503298 0.499059 0.737729 0.801856
C9    C     C_R   0.457113 0.612825 0.057991 0.029832
C10   C     C_R   0.476619 0.613152 0.935965 0.009614
C11   C     C_R   0.493887 0.496959 0.129460 -0.137498
C12   C     C_R   0.502388 0.494430 0.871279 -0.144335
C13   C     C_R   0.521792 0.372602 0.067600 -0.082196
C14   C     C_R   0.517205 0.369560 0.939768 -0.076024
C15   C     C_3   0.515373 0.761788 0.932334 -0.165609
C16   C     C_3   0.477478 0.768857 0.064590 -0.166639
C17   C     C_R   0.060018 0.371245 0.493969 -0.065618
C18   C     C_R   0.933265 0.374978 0.468731 -0.066694
C19   C     C_R   0.870180 0.501266 0.477350 -0.142472
C20   C     C_R   0.127645 0.496773 0.510243 -0.142335
C21   C     C_R   0.938056 0.626198 0.486895 -0.063563
C22   C     C_R   0.063633 0.622802 0.516556 -0.067107
Cu1   Cu    Cu3+1 0.500000 0.640660 0.500000 1.002271
Cu2   Cu    Cu3+1 0.500000 0.359340 0.500000 1.007416
N1    N     N_R   0.500000 0.852070 0.500000 -0.209381
N2    N     N_R   0.500000 0.147940 0.500000 -0.212062
O1    O     O_R   0.319640 0.618740 0.499990 -0.577965
O2    O     O_R   0.680360 0.618740 0.500010 -0.579550
O3    O     O_R   0.319620 0.381170 0.499990 -0.581958
O4    O     O_R   0.680380 0.381170 0.500010 -0.584496
O5    O     O_R   0.499990 0.618810 0.319660 -0.586685
O6    O     O_R   0.500010 0.618810 0.680340 -0.585105
O7    O     O_R   0.499960 0.381240 0.319650 -0.582156
O8    O     O_R   0.500040 0.381240 0.680350 -0.578409
C23   C     C_1   0.564333 0.248431 0.132664 0.302193
N3    N     N_1   0.598552 0.149629 0.184005 -0.247862
C24   C     C_1   0.532353 0.236181 0.884115 0.327908
N4    N     N_1   0.544166 0.127244 0.843843 -0.299536
C25   C     C_1   0.648957 0.777806 0.924724 0.276417
N5    N     N_1   0.754302 0.790123 0.925805 -0.218723
C26   C     C_1   0.362866 0.846403 0.075024 0.266432
N6    N     N_1   0.273400 0.909003 0.079362 -0.227595
C27   C     C_1   0.441895 0.840942 0.839473 0.319895
N7    N     N_1   0.383276 0.902359 0.766823 -0.221528
C28   C     C_1   0.573601 0.814433 0.156213 0.294281
N8    N     N_1   0.649299 0.849850 0.227678 -0.209702
C29   C     C_1   0.115405 0.236823 0.517028 0.316607
N9    N     N_1   0.158285 0.129128 0.537269 -0.249302
C30   C     C_1   0.871116 0.251769 0.419919 0.297289
N10   N     N_1   0.821233 0.154601 0.379348 -0.218700
C31   C     C_1   0.885006 0.758060 0.449824 0.324011
N11   N     N_1   0.844740 0.864080 0.418963 -0.228697
C32   C     C_1   0.121819 0.746901 0.567517 0.311395
N12   N     N_1   0.167295 0.845641 0.609768 -0.216238
C33   C     C_1   0.336217 0.147457 0.340047 0.325568
N13   N     N_1   0.271230 0.205233 0.270097 -0.268086
C34   C     C_1   0.684277 0.147476 0.637319 0.339093
N14   N     N_1   0.762476 0.203985 0.693789 -0.271159
C35   C     C_1   0.317153 0.852254 0.362291 0.314064
N15   N     N_1   0.237625 0.793675 0.309692 -0.263501
C36   C     C_1   0.685345 0.854157 0.633525 0.308942
N16   N     N_1   0.766515 0.797549 0.684143 -0.261906

loop_
_geom_bond_atom_site_label_1
_geom_bond_atom_site_label_2
_ccdc_geom_bond_type
C16   C28   S    
C4    C34   S    
C4    N2    A    
C27   N7    T    
C24   N4    T    
Cu1   O1    S    
C11   C13   A    
C9    C10   A    
Cu2   O7    S    
C2    O4    A    
C8    C12   S    
Cu1   O6    S    
C17   C20   A    
C33   N13   T    
C1    O3    A    
C17   C18   A    
C12   C14   A    
C15   C27   S    
C35   N15   T    
C8    O8    A    
C32   N12   T    
C14   C24   S    
C7    C11   S    
C7    O7    A    
C15   C25   S    
C34   N14   T    
C10   C12   A    
C5    N1    A    
C6    C36   S    
C19   C21   A    
C9    C16   S    
C20   C22   A    
C13   C23   S    
C22   C32   S    
C10   C15   S    
C9    C11   A    
C36   N16   T    
Cu2   O4    S    
C6    N1    A    
Cu1   O2    S    
C5    C35   S    
Cu1   Cu2   S    
C15   C16   S    
C8    O6    A    
C29   N9    T    
C28   N8    T    
C21   C31   S    
Cu1   N1    S    
C7    O5    A    
C18   C30   S    
C4    C6    A    
C30   N10   T    
C26   N6    T    
C25   N5    T    
C1    O1    A    
Cu2   O3    S    
C18   C19   A    
C1    C20   S    
C2    O2    A    
C13   C14   A    
C2    C19   S    
C21   C22   A    
C3    C33   S    
C16   C26   S    
C3    N2    A    
Cu2   O8    S    
C31   N11   T    
C17   C29   S    
Cu2   N2    S    
C3    C5    A    
C23   N3    T    
Cu1   O5    S    
