data_mof_unit_43608.cif
_audit_creation_date              2012-12-10T17:32:56-0500
_audit_creation_method            fapswitch 2.2
_symmetry_space_group_name_H-M    P1
_symmetry_Int_Tables_number       1
_space_group_crystal_system       triclinic
_cell_length_a                    12.361158
_cell_length_b                    13.284226
_cell_length_c                    14.27758
_cell_angle_alpha                 93.29494
_cell_angle_beta                  107.537954
_cell_angle_gamma                 117.060162
_cell_volume                      1937.83347488

loop_
_atom_site_label
_atom_site_type_symbol
_atom_type_description
_atom_site_fract_x
_atom_site_fract_y
_atom_site_fract_z
_atom_type_partial_charge
C1    C     C_R   0.651021 0.714058 0.508868 0.767174
C2    C     C_R   0.872090 0.533820 0.923258 0.089044
C3    C     C_R   0.822119 0.550181 0.996549 0.128324
C4    C     C_R   0.988617 0.526590 0.953021 0.073965
C5    C     C_R   0.045702 0.523199 0.054514 0.087418
C6    C     C_R   0.993191 0.540693 0.125564 -0.211670
C7    C     C_R   0.884104 0.554564 0.096852 -0.181175
C8    C     C_R   0.051232 0.525012 0.885139 -0.247837
C9    C     C_R   0.161347 0.512818 0.913808 -0.190246
C10   C     C_R   0.213463 0.500953 0.010988 0.058230
C11   C     C_R   0.155113 0.504967 0.081981 0.030696
C12   C     C_R   0.619117 0.517860 0.686687 0.787247
C13   C     C_R   0.323452 0.485131 0.038314 0.486766
C14   C     C_R   0.378991 0.479267 0.137505 -0.256306
C15   C     C_R   0.207719 0.489689 0.178217 -0.256631
C16   C     C_R   0.140828 0.967189 0.363898 -0.136414
C17   C     C_R   0.249414 0.162605 0.463814 -0.055743
C18   C     C_R   0.731577 0.920744 0.575635 -0.178128
C19   C     C_R   0.822246 0.037486 0.595061 -0.148797
C20   C     C_R   0.923051 0.072291 0.558691 -0.154245
C21   C     C_R   0.932438 0.990219 0.498329 0.078995
C22   C     C_R   0.830598 0.873057 0.468656 -0.009242
C23   C     C_R   0.345384 0.285398 0.485202 0.809980
C24   C     C_R   0.038848 0.020735 0.465668 -0.001950
C25   C     C_R   0.035674 0.937413 0.396213 0.039914
C26   C     C_R   0.926460 0.826518 0.358369 0.560134
C27   C     C_R   0.824713 0.795442 0.392924 -0.274789
C28   C     C_R   0.149387 0.131594 0.501031 -0.218870
C29   C     C_R   0.246844 0.079600 0.397005 -0.198646
C30   C     C_R   0.736412 0.837271 0.514758 -0.063826
C31   C     C_R   0.253503 0.684488 0.661929 -0.301973
C32   C     C_R   0.655611 0.342749 0.363284 0.786922
C33   C     C_R   0.733946 0.309242 0.333182 -0.308186
C34   C     C_R   0.382009 0.483602 0.313442 0.839683
C35   C     C_R   0.868855 0.368456 0.384444 -0.295138
C36   C     C_R   0.928172 0.463000 0.467230 0.011443
C37   C     C_R   0.843788 0.494847 0.495403 0.197310
C38   C     C_R   0.067566 0.526975 0.522955 -0.004333
C39   C     C_R   0.118846 0.620772 0.605445 0.170962
C40   C     C_R   0.035747 0.650896 0.631258 -0.293065
C41   C     C_R   0.901892 0.589828 0.577507 -0.163111
C42   C     C_R   0.159490 0.502550 0.501089 0.014346
C43   C     C_R   0.338018 0.656036 0.636712 0.073938
C44   C     C_R   0.688349 0.531030 0.793874 -0.065715
C45   C     C_R   0.321232 0.481719 0.207463 -0.123301
C46   C     C_R   0.709707 0.561182 0.968561 -0.160337
C47   C     C_R   0.643971 0.552984 0.867827 -0.190971
C48   C     C_R   0.800978 0.521183 0.821905 -0.253074
Cu1   Cu    Cu3+1 0.416420 0.526630 0.522910 0.938710
Cu2   Cu    Cu3+1 0.583580 0.473370 0.477090 0.981169
H1    H     H_    0.846683 0.566878 0.153494 0.210397
H2    H     H_    0.323878 0.102672 0.367318 0.199480
H3    H     H_    0.139720 0.904637 0.310920 0.194097
H4    H     H_    0.160196 0.196662 0.557218 0.143759
H5    H     H_    0.659106 0.895603 0.610328 0.150429
H6    H     H_    0.989961 0.164351 0.577315 0.124538
H7    H     H_    0.816766 0.101275 0.641259 0.142136
H8    H     H_    0.740003 0.710513 0.357245 0.193612
H9    H     H_    0.441865 0.705132 0.680263 0.123226
H10   H     H_    0.161891 0.483226 0.232467 0.160395
H11   H     H_    0.074717 0.722924 0.694205 0.154813
H12   H     H_    0.293262 0.756134 0.725362 0.143790
H13   H     H_    0.128944 0.432742 0.439673 0.122544
H14   H     H_    0.924251 0.338446 0.357688 0.161991
H15   H     H_    0.689747 0.236761 0.269574 0.174520
H16   H     H_    0.847605 0.620511 0.603424 0.204426
H17   H     H_    0.467953 0.474217 0.159716 0.181733
H18   H     H_    0.205281 0.512219 0.858708 0.189972
H19   H     H_    0.672183 0.575328 0.024561 0.180213
H20   H     H_    0.557376 0.561685 0.847698 0.185205
H21   H     H_    0.829080 0.499801 0.762671 0.156390
H22   H     H_    0.035873 0.547484 0.205062 0.158753
H23   H     H_    0.020147 0.536688 0.809566 0.152331
N1    N     N_R   0.290690 0.566960 0.557640 -0.180599
N2    N     N_R   0.709100 0.433710 0.442970 -0.254807
O1    O     O_R   0.545970 0.684450 0.528810 -0.581155
O2    O     O_R   0.687130 0.639470 0.490120 -0.607270
O3    O     O_R   0.519670 0.535100 0.660030 -0.586442
O4    O     O_R   0.660830 0.490120 0.621340 -0.607785
O5    O     O_R   0.312870 0.360530 0.509880 -0.595857
O6    O     O_R   0.454030 0.315550 0.471190 -0.533098
O7    O     O_R   0.339170 0.509880 0.378660 -0.593437
O8    O     O_R   0.480330 0.464900 0.339970 -0.536766
O9    O     O_3   0.382723 0.484752 0.970186 -0.603422
C49   C     C_3   0.353689 0.370101 0.937156 -0.360381
H24   H     H_    0.246310 0.308895 0.905263 0.167018
H25   H     H_    0.402784 0.340603 0.999119 0.182795
H26   H     H_    0.391203 0.367937 0.876061 0.194332
F1    F     F_    0.917859 0.747469 0.287758 -0.704260
F2    F     F_    0.524752 0.283598 0.311773 -0.676270

loop_
_geom_bond_atom_site_label_1
_geom_bond_atom_site_label_2
_ccdc_geom_bond_type
C1    O2    A    
C15   H10   S    
C35   C36   A    
C4    C8    A    
Cu2   O4    S    
C32   N2    A    
C33   H15   S    
C49   H24   S    
C19   H7    S    
C26   F1    S    
C6    H22   S    
C13   O9    S    
C26   C27   A    
C17   C23   S    
C31   C43   A    
C36   C37   A    
C38   C42   A    
C3    C7    A    
C38   C39   A    
C12   O4    A    
C17   C29   A    
Cu1   O3    S    
C18   C19   A    
C16   H3    S    
C8    H23   S    
C46   H19   S    
C11   C15   A    
C32   F2    S    
C19   C20   A    
C8    C9    A    
C12   O3    A    
C14   H17   S    
C35   H14   S    
C18   C30   A    
C23   O5    A    
C22   C30   A    
C9    C10   A    
C44   C47   A    
C43   H9    S    
C43   N1    A    
C37   N2    A    
C21   C22   A    
C17   C28   A    
C31   H12   S    
Cu2   O8    S    
C14   C45   A    
C49   H25   S    
C42   N1    A    
C24   C25   A    
C39   C40   A    
C28   H4    S    
C2    C48   A    
C25   C26   A    
C10   C13   A    
C40   H11   S    
Cu1   O7    S    
C2    C4    A    
C47   H20   S    
Cu1   O1    S    
C34   C45   S    
O9    C49   S    
C41   H16   S    
C18   H5    S    
C40   C41   A    
C22   C27   A    
C34   O8    A    
C15   C45   A    
C48   H21   S    
Cu2   O2    S    
C49   H26   S    
C16   C25   A    
C46   C47   A    
C23   O6    A    
C1    O1    A    
C24   C28   A    
C4    C5    A    
C27   H8    S    
C5    C11   A    
C6    C7    A    
C3    C46   A    
Cu1   O5    S    
C32   C33   A    
C36   C38   A    
C2    C3    A    
C16   C29   A    
C9    H18   S    
C7    H1    S    
C12   C44   S    
Cu2   N2    S    
C5    C6    A    
C1    C30   S    
C33   C35   A    
C31   C39   A    
C20   H6    S    
C37   C41   A    
C10   C11   A    
C20   C21   A    
Cu1   Cu2   S    
C21   C24   A    
Cu1   N1    S    
C34   O7    A    
C13   C14   A    
C42   H13   S    
C44   C48   A    
Cu2   O6    S    
C29   H2    S    
