data_mof_unit_40827.cif
_audit_creation_date              2013-03-05T15:49:14-0500
_audit_creation_method            fapswitch 2.2
_symmetry_space_group_name_H-M    P1
_symmetry_Int_Tables_number       1
_space_group_crystal_system       triclinic
_cell_length_a                    15.848265
_cell_length_b                    12.959959
_cell_length_c                    11.741394
_cell_angle_alpha                 99.450183
_cell_angle_beta                  92.683996
_cell_angle_gamma                 90.983058
_cell_volume                      2375.50494588

loop_
_atom_site_label
_atom_site_type_symbol
_atom_site_description
_atom_site_fract_x
_atom_site_fract_y
_atom_site_fract_z
_atom_type_partial_charge
O1    O     O_R   0.504400 0.354460 0.582000 -0.577854
O2    O     O_R   0.495600 0.645540 0.418000 -0.570880
O3    O     O_R   0.493920 0.341410 0.386200 -0.556975
O4    O     O_R   0.506080 0.658590 0.613800 -0.554229
C1    C     C_R   0.495890 0.299552 0.479109 0.851340
C2    C     C_R   0.503415 0.700478 0.521069 0.851574
O5    O     O_R   0.384320 0.506520 0.597880 -0.555348
O6    O     O_R   0.615680 0.493480 0.402120 -0.563082
O7    O     O_R   0.373840 0.493460 0.402080 -0.577593
O8    O     O_R   0.626160 0.506540 0.597920 -0.580205
C3    C     C_R   0.340021 0.500394 0.501214 0.819283
C4    C     C_R   0.659996 0.499755 0.498799 0.817273
Cu1   Cu    Cu3+1 0.506200 0.507730 0.615930 0.981436
Cu2   Cu    Cu3+1 0.493800 0.492270 0.384070 0.980114
C5    C     C_3   0.971423 0.406821 0.523708 -0.231894
C6    C     C_3   0.028702 0.593233 0.477033 -0.231190
C7    C     C_3   0.025486 0.424158 0.422610 0.321157
C8    C     C_3   0.974646 0.575898 0.578137 0.321578
H1    H     H_    0.947301 0.330015 0.540281 0.159921
H2    H     H_    0.052831 0.670037 0.460463 0.159896
H3    H     H_    0.944818 0.523400 0.306486 0.149826
H4    H     H_    0.055421 0.476631 0.694210 0.148767
C9    C     C_1   0.250507 0.501087 0.503812 -0.176433
C10   C     C_1   0.749543 0.499108 0.496284 -0.167807
C11   C     C_3   0.030077 0.486228 0.606911 -0.209139
C12   C     C_3   0.970071 0.513823 0.393829 -0.206052
C13   C     C_3   0.083372 0.501682 0.503811 0.083916
C14   C     C_3   0.916746 0.498383 0.496916 0.082499
C15   C     C_1   0.175017 0.501538 0.504659 -0.040728
C16   C     C_1   0.825064 0.498610 0.495757 -0.035940
C17   C     C_R   0.510925 0.813702 0.532845 -0.147966
C18   C     C_R   0.487241 0.186449 0.468334 -0.144234
C19   C     C_R   0.424722 0.019096 0.377361 0.320033
C20   C     C_R   0.572970 0.981101 0.624478 0.318313
C21   C     C_R   0.432405 0.127898 0.382741 0.157251
C22   C     C_R   0.566270 0.872102 0.617871 0.158392
C23   C     C_R   0.532555 0.137892 0.548290 -0.244715
C24   C     C_R   0.463891 0.862592 0.454913 -0.267026
C25   C     C_R   0.525892 0.030083 0.544202 -0.029847
C26   C     C_R   0.471051 0.970285 0.458456 -0.025191
H5    H     H_    0.421786 0.815321 0.390923 0.212036
H6    H     H_    0.573495 0.185360 0.613703 0.216831
N1    N     N_R   0.515540 0.519350 0.790140 -0.193969
N2    N     N_R   0.484460 0.480650 0.209860 -0.192900
C27   C     C_R   0.421365 0.400138 0.026374 -0.316266
C28   C     C_R   0.587226 0.588100 0.971965 -0.315798
C29   C     C_R   0.428808 0.410278 0.146984 0.052358
C30   C     C_R   0.577470 0.581165 0.851825 0.055052
C31   C     C_R   0.536657 0.541295 0.155266 0.420258
C32   C     C_R   0.461986 0.460613 0.845070 0.427500
C33   C     C_R   0.532340 0.531767 0.032078 -0.006204
C34   C     C_R   0.471156 0.463480 0.967290 -0.006372
H7    H     H_    0.620134 0.625172 0.807566 0.157188
H8    H     H_    0.389697 0.361503 0.190611 0.160459
H9    H     H_    0.377182 0.341562 0.980778 0.159694
H10   H     H_    0.638908 0.636284 0.015961 0.155176
N3    N     N_2   0.056725 0.341257 0.338326 -0.429593
H11   H     H_    0.101001 0.296598 0.373509 0.249424
C35   C     C_3   0.992134 0.279068 0.265779 -0.655130
H12   H     H_    0.022360 0.221408 0.200557 0.235285
H13   H     H_    0.951899 0.329651 0.219294 0.235833
H14   H     H_    0.952234 0.236136 0.318763 0.224035
N4    N     N_2   0.943460 0.658809 0.662452 -0.429713
H15   H     H_    0.899255 0.703565 0.627279 0.249410
C36   C     C_3   0.008097 0.720859 0.735065 -0.656391
H16   H     H_    0.977914 0.778551 0.800300 0.235438
H17   H     H_    0.048077 0.763747 0.682134 0.224056
H18   H     H_    0.048249 0.670180 0.781537 0.235085
N5    N     N_2   0.618314 0.820305 0.692066 -0.409014
H19   H     H_    0.627037 0.859380 0.775719 0.293862
C37   C     C_3   0.696568 0.783092 0.643385 -0.659386
H20   H     H_    0.729692 0.736392 0.702196 0.221817
H21   H     H_    0.738267 0.850249 0.632584 0.249668
H22   H     H_    0.684033 0.732337 0.558184 0.210209
N6    N     N_2   0.381753 0.179366 0.306722 -0.413150
H23   H     H_    0.373761 0.139478 0.223322 0.293098
C38   C     C_3   0.303114 0.217691 0.353225 -0.654806
H24   H     H_    0.271087 0.263990 0.293054 0.221523
H25   H     H_    0.314947 0.269118 0.438148 0.211861
H26   H     H_    0.260726 0.151135 0.363924 0.250150
N7    N     N_R   0.368066 0.959260 0.291720 0.098212
O9    O     O_R   0.296228 0.924192 0.321087 -0.370260
O10   O     O_R   0.389665 0.936593 0.185164 -0.369957
N8    N     N_R   0.630244 0.040787 0.709426 0.100416
O11   O     O_R   0.610686 0.060510 0.817054 -0.362574
O12   O     O_R   0.700978 0.077723 0.678687 -0.371169
N9    N     N_2   0.397422 0.397093 0.778274 -0.389539
H27   H     H_    0.401352 0.318609 0.783222 0.238173
C39   C     C_3   0.312385 0.435799 0.791065 -0.657997
H28   H     H_    0.287400 0.423538 0.874507 0.204546
H29   H     H_    0.269939 0.393109 0.720324 0.222774
H30   H     H_    0.310882 0.520732 0.786532 0.247289
N10   N     N_2   0.595329 0.613023 0.223371 -0.402114
H31   H     H_    0.657673 0.598182 0.206833 0.227437
C40   C     C_3   0.575365 0.722802 0.232120 -0.608179
H32   H     H_    0.600703 0.756952 0.159803 0.206923
H33   H     H_    0.604969 0.766567 0.313785 0.226055
H34   H     H_    0.505986 0.733799 0.232010 0.253111

loop_
_geom_bond_atom_site_label_1
_geom_bond_atom_site_label_2
_geom_bond_distance
_ccdc_geom_bond_type
N2    C31   1.380478 A    
H3    C12   1.110108 S    
N4    C36   1.444907 S    
N10   H31   1.031089 S    
C13   C15   1.452017 S    
C40   H32   1.107855 S    
N9    H27   1.031050 S    
N7    O9    1.300823 A    
N3    H11   1.031167 S    
C40   H34   1.111124 S    
C38   H24   1.110353 S    
O5    C3    1.296645 A    
C21   N6    1.425762 S    
O1    C1    1.297376 A    
C7    C12   1.540147 S    
C9    C15   1.196997 T    
N8    O12   1.300886 A    
C8    N4    1.446943 S    
N3    C35   1.444871 S    
O4    Cu1   1.959432 S    
C23   H6    1.083410 S    
N5    C37   1.446981 S    
C31   C33   1.429614 A    
H4    C11   1.110171 S    
C32   C34   1.429893 A    
C39   H29   1.110189 S    
N1    C30   1.358520 A    
N2    C29   1.358305 A    
C6    H2    1.110121 S    
C1    C18   1.453947 S    
C6    C13   1.545827 S    
C38   H25   1.110674 S    
C2    C17   1.453380 S    
C35   H12   1.110423 S    
N10   C40   1.450978 S    
Cu1   Cu2   2.694335 S    
O2    C2    1.298760 A    
C8    C11   1.540323 S    
C20   N8    1.433470 S    
N7    O10   1.300634 A    
C27   C29   1.399758 A    
C6    C12   1.558518 S    
C30   H7    1.081433 S    
C28   C30   1.399737 A    
C35   H13   1.110627 S    
C19   C26   1.412134 A    
C20   C25   1.412418 A    
C7    C13   1.527073 S    
C18   C21   1.409322 A    
C8    C14   1.527237 S    
N8    O11   1.300639 A    
C24   H5    1.083031 S    
O4    C2    1.293270 A    
C25   C26   1.417150 A    
C37   H21   1.111171 S    
O7    Cu2   1.922742 S    
C27   C34   1.412043 A    
C36   H17   1.111253 S    
C28   C33   1.411646 A    
C33   C34   1.408020 A    
C5    H1    1.110116 S    
N6    H23   1.030569 S    
O7    C3    1.294564 A    
O6    C4    1.296726 A    
C36   H18   1.110648 S    
C18   C23   1.392658 A    
C39   H30   1.111308 S    
N6    C38   1.447055 S    
O3    Cu2   1.959435 S    
O8    C4    1.294695 A    
C32   N9    1.422574 S    
C29   H8    1.081115 S    
N9    C39   1.451841 S    
O1    Cu1   1.960188 S    
Cu1   N1    2.024415 S    
C22   N5    1.426026 S    
Cu2   N2    2.024415 S    
C38   H26   1.111164 S    
C5    C7    1.539442 S    
C35   H14   1.111251 S    
O6    Cu2   1.932802 S    
O3    C1    1.294991 A    
O8    Cu1   1.922745 S    
C37   H22   1.110739 S    
C40   H33   1.109683 S    
N1    C32   1.380617 A    
C11   C13   1.545479 S    
C4    C10   1.420990 S    
C12   C14   1.545576 S    
C17   C24   1.391807 A    
C14   C16   1.452483 S    
C37   H20   1.110362 S    
C23   C25   1.392135 A    
C24   C26   1.391993 A    
C5    C14   1.546061 S    
C3    C9    1.420543 S    
C19   C21   1.404011 A    
C20   C22   1.403886 A    
N5    H19   1.030458 S    
O2    Cu2   1.960186 S    
C10   C16   1.197310 T    
C5    C11   1.558692 S    
N4    H15   1.031156 S    
O5    Cu1   1.932799 S    
C27   H9    1.080008 S    
C6    C8    1.539419 S    
C36   H16   1.110419 S    
C28   H10   1.079158 S    
C17   C22   1.409230 A    
C31   N10   1.422958 S    
C39   H28   1.107797 S    
C19   N7    1.433239 S    
C7    N3    1.446973 S    
