data_mof_unit_37464.cif
_audit_creation_date              2012-12-10T17:45:20-0500
_audit_creation_method            fapswitch 2.2
_symmetry_space_group_name_H-M    P1
_symmetry_Int_Tables_number       1
_space_group_crystal_system       triclinic
_cell_length_a                    17.881395
_cell_length_b                    17.806546
_cell_length_c                    17.823772
_cell_angle_alpha                 114.871313
_cell_angle_beta                  92.269602
_cell_angle_gamma                 69.721464
_cell_volume                      4791.98589075

loop_
_atom_site_label
_atom_site_type_symbol
_atom_type_description
_atom_site_fract_x
_atom_site_fract_y
_atom_site_fract_z
_atom_type_partial_charge
C1    C     C_R   0.463487 0.462587 0.287883 0.824998
C2    C     C_R   0.925219 0.574249 0.595393 -0.201176
C3    C     C_R   0.964549 0.628537 0.645400 -0.242599
C4    C     C_R   0.535401 0.535798 0.712422 0.847519
C5    C     C_R   0.044353 0.610651 0.622099 0.165742
C6    C     C_R   0.087163 0.534314 0.548373 0.123672
C7    C     C_R   0.082050 0.668322 0.672382 -0.198901
C8    C     C_R   0.161920 0.651414 0.650115 -0.205202
C9    C     C_R   0.167451 0.519966 0.526577 -0.264035
C10   C     C_R   0.540400 0.559690 0.802078 -0.245587
C11   C     C_R   0.448199 0.445726 0.202812 -0.054748
C12   C     C_R   0.842829 0.339928 0.357429 -0.320006
C13   C     C_R   0.549608 0.663410 0.940125 -0.291981
C14   C     C_R   0.556976 0.635763 0.854010 0.413558
C15   C     C_R   0.519808 0.510493 0.837090 0.376099
C16   C     C_R   0.464074 0.730169 0.553817 0.798447
C17   C     C_R   0.500527 0.545997 0.924769 -0.107251
C18   C     C_R   0.518039 0.622585 0.976033 -0.069847
C19   C     C_R   0.467411 0.506512 0.963449 0.084198
C20   C     C_R   0.466377 0.534292 0.050811 0.028658
C21   C     C_R   0.481067 0.612647 0.099388 -0.333149
C22   C     C_R   0.503250 0.658288 0.062948 0.520245
C23   C     C_R   0.839455 0.472646 0.477187 -0.232602
C24   C     C_R   0.432245 0.443086 0.919090 -0.171007
C25   C     C_R   0.410274 0.397436 0.955758 -0.224587
C26   C     C_R   0.421508 0.414036 0.038454 0.057659
C27   C     C_R   0.448669 0.484071 0.087237 0.058537
C28   C     C_R   0.534868 0.269398 0.445167 0.820292
C29   C     C_R   0.405206 0.362390 0.073382 0.490983
C30   C     C_R   0.421620 0.377055 0.155024 -0.318858
C31   C     C_R   0.461091 0.498838 0.169881 -0.262881
C32   C     C_R   0.537749 0.177537 0.414948 -0.107415
C33   C     C_R   0.449919 0.823393 0.576157 -0.039267
C34   C     C_R   0.923596 0.446183 0.464887 -0.031143
C35   C     C_R   0.551584 0.033690 0.299783 0.492464
C36   C     C_R   0.556307 0.119225 0.329980 -0.344257
C37   C     C_R   0.512084 0.152404 0.470365 -0.222650
C38   C     C_R   0.498611 0.072335 0.442233 0.043954
C39   C     C_R   0.524708 0.010228 0.357702 0.071292
C40   C     C_R   0.288496 0.555632 0.555274 0.777313
C41   C     C_R   0.463351 0.051024 0.497401 -0.113834
C42   C     C_R   0.471139 0.961521 0.473051 0.053064
C43   C     C_R   0.501066 0.899684 0.389179 -0.203538
C44   C     C_R   0.524836 0.924461 0.332516 -0.203826
C45   C     C_R   0.967435 0.365427 0.394632 -0.068035
C46   C     C_R   0.418877 0.116697 0.575689 0.332631
C47   C     C_R   0.406294 0.092085 0.637501 0.395956
C48   C     C_R   0.428005 0.001110 0.619060 -0.147230
C49   C     C_R   0.451689 0.936652 0.534169 -0.039590
C50   C     C_R   0.424670 0.974040 0.683239 0.552283
C51   C     C_R   0.434414 0.884405 0.659657 -0.352470
C52   C     C_R   0.712559 0.445863 0.446115 0.831043
C53   C     C_R   0.458767 0.848769 0.514233 -0.203584
C54   C     C_R   0.799479 0.419303 0.425795 -0.086525
C55   C     C_R   0.204090 0.577397 0.577155 0.024104
C56   C     C_R   0.964643 0.499241 0.519726 0.094964
C57   C     C_R   0.925845 0.313685 0.339942 0.481390
C58   C     C_3   0.136522 0.196935 0.345850 0.154666
C59   C     C_3   0.182937 0.108558 0.273282 -0.839582
C60   C     C_3   0.437829 0.807817 0.140957 0.067238
C61   C     C_3   0.431980 0.868577 0.098941 -0.329600
C62   C     C_3   0.361908 0.956821 0.141308 -0.975995
C63   C     C_3   0.533623 0.769438 0.848334 0.127141
C64   C     C_3   0.579232 0.830415 0.893841 -0.872114
C65   C     C_3   0.597088 0.363493 0.775853 0.098053
C66   C     C_3   0.597815 0.271792 0.716897 -0.768377
C67   C     C_R   0.047993 0.476102 0.498797 0.014001
C68   C     C_3   0.309106 0.298789 0.060915 0.060633
C69   C     C_3   0.323803 0.217008 0.076725 -0.359251
C70   C     C_3   0.245545 0.214814 0.105269 -0.933464
C71   C     C_3   0.292351 0.179567 0.730529 0.160538
C72   C     C_3   0.262302 0.243824 0.822094 -0.296630
C73   C     C_3   0.173671 0.263337 0.842920 -1.023484
C74   C     C_3   0.598774 0.994284 0.159575 0.097899
C75   C     C_3   0.530549 0.051621 0.129469 -0.395580
C76   C     C_3   0.563505 0.081764 0.073956 -0.948317
C77   C     C_3   0.321766 0.220297 0.546020 0.074126
C78   C     C_R   0.089914 0.394798 0.430112 -0.366226
C79   C     C_3   0.277091 0.319641 0.575959 -0.773885
C80   C     C_3   0.415004 0.008630 0.828718 0.094300
C81   C     C_3   0.331224 0.012856 0.851220 -0.388321
C82   C     C_3   0.332884 0.972692 0.912105 -0.974517
C83   C     C_3   0.957113 0.250198 0.199351 0.154623
C84   C     C_3   0.013298 0.169062 0.126042 -0.804115
C85   C     C_R   0.051527 0.338566 0.380691 0.462371
H1    H     H_    0.049795 0.726258 0.729071 0.138407
H2    H     H_    0.472764 0.797450 0.451231 0.128082
H3    H     H_    0.428796 0.860188 0.704633 0.128070
H4    H     H_    0.572422 0.142834 0.288641 0.172726
H5    H     H_    0.503622 0.196201 0.536005 0.223929
H6    H     H_    0.507465 0.831001 0.364700 0.142625
H7    H     H_    0.190952 0.695543 0.689828 0.128561
H8    H     H_    0.931889 0.685500 0.702591 0.149318
H9    H     H_    0.812474 0.297765 0.317022 0.180867
H10   H     H_    0.802835 0.535608 0.525859 0.171142
H11   H     H_    0.153851 0.370659 0.413749 0.159609
H12   H     H_    0.485380 0.547829 0.209071 0.138096
H13   H     H_    0.864180 0.591973 0.619413 0.152366
H14   H     H_    0.092539 0.186788 0.379710 0.145940
H15   H     H_    0.180127 0.218283 0.388265 0.107181
H16   H     H_    0.225615 0.117494 0.237129 0.257590
H17   H     H_    0.217113 0.059531 0.296957 0.201184
H18   H     H_    0.140867 0.082796 0.231796 0.272523
H19   H     H_    0.433611 0.845920 0.209387 0.170535
H20   H     H_    0.384690 0.786826 0.130062 0.117287
H21   H     H_    0.488664 0.881435 0.101208 0.262243
H22   H     H_    0.423458 0.835094 0.032624 0.201262
H23   H     H_    0.413501 0.335244 0.181416 0.142477
H24   H     H_    0.304582 0.945205 0.139402 0.269746
H25   H     H_    0.358432 0.998510 0.108377 0.258233
H26   H     H_    0.370524 0.993154 0.207106 0.276801
H27   H     H_    0.478322 0.788863 0.889514 0.095688
H28   H     H_    0.513144 0.780845 0.793091 0.159753
H29   H     H_    0.629932 0.818064 0.850830 0.267567
H30   H     H_    0.538309 0.900899 0.917109 0.208824
H31   H     H_    0.603226 0.818687 0.947899 0.247169
H32   H     H_    0.611946 0.363447 0.837151 0.147509
H33   H     H_    0.643964 0.376561 0.749196 0.125903
H34   H     H_    0.385384 0.347943 0.918342 0.198810
H35   H     H_    0.584457 0.269413 0.654708 0.253359
H36   H     H_    0.657880 0.220822 0.709935 0.196261
H37   H     H_    0.551850 0.256588 0.742007 0.272950
H38   H     H_    0.264592 0.300163 0.015810 0.162690
H39   H     H_    0.281019 0.360486 0.119690 0.125911
H40   H     H_    0.352926 0.156133 0.018501 0.233425
H41   H     H_    0.364898 0.216925 0.125063 0.213496
H42   H     H_    0.215847 0.274437 0.164482 0.276231
H43   H     H_    0.258598 0.154574 0.115807 0.263825
H44   H     H_    0.204177 0.212496 0.056851 0.263707
H45   H     H_    0.566607 0.719036 0.979105 0.205590
H46   H     H_    0.278269 0.118941 0.715985 0.121860
H47   H     H_    0.260125 0.212298 0.691417 0.125001
H48   H     H_    0.298025 0.214519 0.862096 0.252903
H49   H     H_    0.270827 0.307095 0.835911 0.218322
H50   H     H_    0.136685 0.292976 0.803774 0.273379
H51   H     H_    0.153695 0.311067 0.909496 0.266906
H52   H     H_    0.164345 0.201258 0.832261 0.265720
H53   H     H_    0.631113 0.931190 0.104125 0.163008
H54   H     H_    0.645437 0.023352 0.184189 0.134087
H55   H     H_    0.494109 0.012350 0.093299 0.226226
H56   H     H_    0.471937 0.643160 0.166568 0.155837
H57   H     H_    0.489994 0.111065 0.183094 0.222263
H58   H     H_    0.597938 0.123932 0.109514 0.273219
H59   H     H_    0.513023 0.121248 0.051691 0.276749
H60   H     H_    0.603248 0.023292 0.018947 0.266302
H61   H     H_    0.278236 0.190547 0.552310 0.103589
H62   H     H_    0.344497 0.191519 0.478953 0.150485
H63   H     H_    0.318548 0.350782 0.568310 0.284016
H64   H     H_    0.252621 0.350664 0.642715 0.255190
H65   H     H_    0.226627 0.331557 0.538901 0.188067
H66   H     H_    0.431237 0.055680 0.885044 0.172190
H67   H     H_    0.417754 0.429889 0.856660 0.222709
H68   H     H_    0.463434 0.943491 0.814055 0.126023
H69   H     H_    0.289654 0.083428 0.880076 0.229878
H70   H     H_    0.307215 0.976869 0.794319 0.218896
H71   H     H_    0.364810 0.899710 0.880164 0.251354
H72   H     H_    0.270477 0.986421 0.934842 0.274131
H73   H     H_    0.363389 0.001473 0.966438 0.263216
H74   H     H_    0.972633 0.308473 0.207395 0.140006
H75   H     H_    0.894294 0.261498 0.184279 0.120189
H76   H     H_    0.000358 0.109214 0.116500 0.248959
H77   H     H_    0.004739 0.179387 0.068568 0.195548
H78   H     H_    0.203447 0.465522 0.470328 0.122158
H79   H     H_    0.076745 0.158285 0.137987 0.274984
H80   H     H_    0.547347 0.874147 0.269272 0.215586
O1    O     O_3   0.500000 0.500000 0.500000 -0.488996
O2    O     O_R   0.309700 0.585900 0.509470 -0.637994
O3    O     O_R   0.674980 0.398780 0.398780 -0.648642
O4    O     O_R   0.340340 0.501790 0.578230 -0.644974
O5    O     O_R   0.674980 0.513530 0.513520 -0.642194
O6    O     O_3   0.096924 0.259590 0.314759 -0.577393
O7    O     O_3   0.513498 0.736976 0.113619 -0.657238
O8    O     O_3   0.585400 0.679363 0.819865 -0.570757
O9    O     O_3   0.520164 0.427037 0.784244 -0.594502
O10   O     O_3   0.381507 0.292113 0.024224 -0.657589
O11   O     O_3   0.375869 0.158931 0.717119 -0.561487
O12   O     O_R   0.524320 0.685780 0.578230 -0.635373
O13   O     O_3   0.567927 0.971710 0.215703 -0.668596
O14   O     O_3   0.385732 0.206229 0.593936 -0.583382
O15   O     O_3   0.413677 0.037886 0.766095 -0.612813
O16   O     O_3   0.966370 0.234827 0.271333 -0.581028
O17   O     O_R   0.567430 0.291230 0.398780 -0.649147
O18   O     O_R   0.417260 0.532000 0.348010 -0.637918
O19   O     O_R   0.490990 0.490990 0.674980 -0.593655
O20   O     O_R   0.524330 0.409580 0.302030 -0.641714
O21   O     O_R   0.567420 0.567430 0.674980 -0.605923
O22   O     O_R   0.417260 0.693460 0.509470 -0.642185
O23   O     O_R   0.490990 0.329540 0.513520 -0.633144
Zn1   Zn    Zn3+2 0.565540 0.565550 0.565540 0.979747
Zn2   Zn    Zn3+2 0.412570 0.576510 0.467300 0.961503
Zn3   Zn    Zn3+2 0.456340 0.456340 0.565550 0.982063
Zn4   Zn    Zn3+2 0.565550 0.401610 0.401610 0.959488

loop_
_geom_bond_atom_site_label_1
_geom_bond_atom_site_label_2
_ccdc_geom_bond_type
C36   H4    S    
C70   H42   S    
C80   H66   S    
C69   H40   S    
C34   C56   A    
C64   H31   S    
C65   O9    S    
C41   C42   A    
C50   O15   S    
C35   C36   A    
C1    C11   S    
C75   C76   S    
C68   H39   S    
C6    C9    A    
C57   O16   S    
C81   C82   S    
C1    O18   A    
C7    C8    A    
C60   H19   S    
C74   H53   S    
O5    Zn1   S    
C45   C57   A    
C26   C27   A    
C77   O14   S    
C13   C18   A    
C23   C54   A    
O23   Zn3   S    
C32   C36   A    
C14   O8    S    
C2    C3    A    
C75   H55   S    
C28   O23   A    
C38   C39   A    
C82   H73   S    
C7    H1    S    
C71   O11   S    
C83   O16   S    
O1    Zn3   S    
C4    O21   A    
C63   H27   S    
C9    H78   S    
C28   O17   A    
C40   O2    A    
C24   H67   S    
C71   H47   S    
C62   H26   S    
C73   H50   S    
C11   C30   A    
C78   H11   S    
C68   C69   S    
O22   Zn2   S    
C62   H25   S    
C41   C46   A    
C66   H37   S    
C8    H7    S    
C29   C30   A    
C77   H62   S    
C47   O11   S    
C84   H79   S    
C79   H64   S    
C82   H71   S    
C23   C34   A    
C35   O13   S    
C48   C50   A    
C11   C31   A    
C64   H30   S    
C66   H35   S    
C21   C22   A    
C12   H9    S    
C61   C62   S    
C67   C78   A    
O17   Zn4   S    
C29   O10   S    
C25   H34   S    
C8    C55   A    
C40   O4    A    
C68   O10   S    
C52   C54   S    
C63   O8    S    
C77   C79   S    
C33   C53   A    
C66   H36   S    
O12   Zn1   S    
C74   C75   S    
C83   H75   S    
C27   C31   A    
C60   O7    S    
C80   H68   S    
C64   H29   S    
C24   C25   A    
C38   C41   A    
C3    H8    S    
C10   C14   A    
C52   O5    A    
C5    C7    A    
C82   H72   S    
C72   C73   S    
C50   C51   A    
C25   C26   A    
C70   H44   S    
C43   H6    S    
C81   H69   S    
C60   C61   S    
O1    Zn2   S    
C59   H16   S    
C35   C39   A    
C43   C44   A    
C37   C38   A    
C75   H57   S    
C16   C33   S    
C72   H49   S    
C47   C48   A    
C74   O13   S    
C73   H51   S    
C28   C32   S    
C13   H45   S    
C40   C55   S    
C17   C18   A    
O19   Zn3   S    
C58   H15   S    
C53   H2    S    
C34   C45   A    
C85   O6    S    
C32   C37   A    
C4    O19   A    
C61   H21   S    
C79   H63   S    
C79   H65   S    
C9    C55   A    
C12   C57   A    
C76   H59   S    
C78   C85   A    
C48   C49   A    
C69   H41   S    
C65   H33   S    
C83   C84   S    
C42   C43   A    
O4    Zn3   S    
C4    C10   S    
O18   Zn2   S    
C80   O15   S    
C84   H77   S    
C16   O12   A    
O20   Zn4   S    
C70   H43   S    
C15   C17   A    
O2    Zn2   S    
C46   C47   A    
C6    C67   A    
C15   O9    S    
C37   H5    S    
C18   C22   A    
C59   H17   S    
C46   O14   S    
C58   H14   S    
C80   C81   S    
C3    C5    A    
C16   O22   A    
O3    Zn4   S    
C51   H3    S    
C76   H60   S    
C39   C44   A    
C20   C27   A    
C1    O20   A    
C33   C51   A    
C56   C67   A    
C74   H54   S    
C81   H70   S    
C45   C85   A    
C10   C15   A    
O1    Zn1   S    
C59   H18   S    
C19   C20   A    
C19   C24   A    
C58   C59   S    
C21   H56   S    
C71   C72   S    
C68   H38   S    
C52   O3    A    
C72   H48   S    
C5    C6    A    
C62   H24   S    
C73   H52   S    
O21   Zn1   S    
C49   C53   A    
C17   C19   A    
C23   H10   S    
C58   O6    S    
O1    Zn4   S    
C44   H80   S    
C31   H12   S    
C69   C70   S    
C61   H22   S    
C22   O7    S    
C60   H20   S    
C42   C49   A    
C71   H46   S    
C63   C64   S    
C63   H28   S    
C76   H58   S    
C83   H74   S    
C20   C21   A    
C2    H13   S    
C26   C29   A    
C65   C66   S    
C65   H32   S    
C2    C56   A    
C13   C14   A    
C30   H23   S    
C77   H61   S    
C12   C54   A    
C84   H76   S    
