data_mof_unit_29361.cif
_audit_creation_date              2012-10-26T19:40:39-0400
_audit_creation_method            fapswitch 2.2
_symmetry_space_group_name_H-M    P1
_symmetry_Int_Tables_number       1
_space_group_crystal_system       triclinic
_cell_length_a                    9.749756
_cell_length_b                    10.960952
_cell_length_c                    13.494771
_cell_angle_alpha                 91.048258
_cell_angle_beta                  74.118317
_cell_angle_gamma                 91.213667
_cell_volume                      1386.66390901

loop_
_atom_site_label
_atom_site_type_symbol
_atom_type_description
_atom_site_fract_x
_atom_site_fract_y
_atom_site_fract_z
_atom_type_partial_charge
C1    C     C_R   0.500860 0.734494 0.502550 0.532445
C2    C     C_R   0.387569 0.543181 0.810629 0.002416
C3    C     C_2   0.598550 0.070435 0.510685 -0.106023
C4    C     C_R   0.425967 0.514171 0.698632 0.541810
C5    C     C_2   0.507183 0.135150 0.474384 -0.020261
C6    C     C_2   0.617093 0.938845 0.495467 -0.035242
C7    C     C_2   0.499406 0.866302 0.514874 -0.099078
C8    C     C_2   0.043923 0.509428 0.582065 0.043095
C9    C     C_2   0.891661 0.482588 0.581226 0.019735
C10   C     C_R   0.500648 0.265742 0.495160 0.574898
C11   C     C_R   0.575174 0.497645 0.301169 0.547463
C12   C     C_R   0.444597 0.540962 0.976896 0.035290
C13   C     C_R   0.783658 0.438186 0.026671 0.197443
C14   C     C_R   0.615288 0.491556 0.189194 -0.044478
C15   C     C_R   0.244055 0.562496 0.862539 -0.080036
C16   C     C_R   0.200306 0.570946 0.969375 -0.068989
C17   C     C_R   0.297600 0.554889 0.026470 -0.092135
C18   C     C_3   0.427122 0.084791 0.400487 -0.367947
C19   C     C_3   0.768136 0.893175 0.462257 -0.347486
C20   C     C_R   0.490383 0.546490 0.868094 0.032973
C21   C     C_R   0.547976 0.518017 0.030917 -0.004019
C22   C     C_R   0.689738 0.487947 0.975054 0.053692
C23   C     C_R   0.735402 0.518277 0.871320 -0.107035
C24   C     C_R   0.638042 0.556556 0.821235 -0.133915
C25   C     C_R   0.515405 0.524065 0.138137 -0.138788
C26   C     C_R   0.746414 0.444222 0.134086 -0.135395
Cu1   Cu    Cu3+1 0.361370 0.499980 0.499980 1.092968
Cu2   Cu    Cu3+1 0.638630 0.500020 0.500020 0.986457
H1    H     H_    0.816759 0.407017 0.175230 0.186848
H2    H     H_    0.088709 0.584091 0.008468 0.151145
H3    H     H_    0.681022 0.597197 0.746878 0.134336
H4    H     H_    0.664226 0.116047 0.554046 0.161316
H5    H     H_    0.444744 0.146442 0.333740 0.163024
H6    H     H_    0.464858 0.994531 0.367019 0.127718
H7    H     H_    0.311248 0.079134 0.439864 0.168746
H8    H     H_    0.846262 0.970525 0.446360 0.146193
H9    H     H_    0.790530 0.838346 0.524258 0.150443
H10   H     H_    0.785218 0.837972 0.390206 0.155174
H11   H     H_    0.262298 0.293922 0.277322 0.349432
H12   H     H_    0.394564 0.906714 0.541327 0.108800
H13   H     H_    0.804874 0.175077 0.027015 0.339321
H14   H     H_    0.062601 0.533874 0.655490 0.092762
H15   H     H_    0.819641 0.443427 0.649228 0.143843
H16   H     H_    0.908788 0.559948 0.448132 0.259327
H17   H     H_    0.846827 0.522153 0.830033 0.145997
H18   H     H_    0.414475 0.558160 0.183516 0.157935
H19   H     H_    0.164728 0.569464 0.820457 0.150078
H20   H     H_    0.253915 0.551988 0.108851 0.152835
N1    N     N_2   0.152660 0.501340 0.501130 -0.064354
N2    N     N_2   0.846520 0.501370 0.501160 -0.295366
O1    O     O_R   0.382960 0.678040 0.499980 -0.520042
O2    O     O_2   0.104525 0.486818 0.315510 -0.337444
O3    O     O_3   0.277316 0.325804 0.342794 -0.489822
O4    O     O_2   0.003661 0.377846 0.858900 -0.290994
O5    O     O_2   0.027329 0.327143 0.028872 -0.279619
O6    O     O_3   0.850595 0.199705 0.955089 -0.472132
O7    O     O_R   0.617100 0.678080 0.500020 -0.522251
O8    O     O_R   0.325800 0.499940 0.650950 -0.514263
O9    O     O_R   0.559930 0.499980 0.650990 -0.527974
O10   O     O_R   0.382900 0.321920 0.499980 -0.428619
O11   O     O_R   0.617040 0.321960 0.500020 -0.482053
O12   O     O_R   0.440070 0.500020 0.349010 -0.439258
O13   O     O_R   0.674200 0.500060 0.349050 -0.497241
O14   O     O_2   0.012987 0.315463 0.431604 -0.266854
S1    S     S_3+6 0.132339 0.407856 0.397672 0.106397
S2    S     S_3+6 0.923676 0.338066 0.965124 -0.003244

loop_
_geom_bond_atom_site_label_1
_geom_bond_atom_site_label_2
_ccdc_geom_bond_type
C12   C17   A    
C8    H14   S    
C10   O10   A    
C7    H12   S    
H13   O6    S    
C6    C7    D    
C23   H17   S    
C19   H10   S    
C1    O7    A    
O3    S1    S    
C18   H7    S    
C2    C4    S    
C17   H20   S    
C15   H19   S    
C23   C24   A    
C11   O12   A    
O14   S1    D    
C12   C20   A    
Cu1   O10   S    
C24   H3    S    
C5    C10   S    
C1    C7    S    
Cu2   O7    S    
C14   C26   A    
C2    C15   A    
C1    O1    A    
H11   O3    S    
N1    S1    S    
O4    S2    D    
C12   C21   A    
C4    O9    A    
C8    N1    D    
Cu1   O12   S    
C6    C19   S    
C13   C22   A    
C11   O13   A    
C13   S2    S    
C18   H6    S    
C14   C25   A    
C3    H4    S    
C11   C14   S    
O6    S2    S    
C13   C26   A    
C9    H15   S    
C10   O11   A    
C18   H5    S    
O2    S1    D    
Cu2   O11   S    
C16   H2    S    
C15   C16   A    
Cu2   O13   S    
C20   C24   A    
O5    S2    D    
C26   H1    S    
Cu2   N2    S    
Cu2   O9    S    
H16   N2    S    
Cu1   Cu2   S    
C21   C25   A    
C22   C23   A    
C8    C9    S    
C5    C18   S    
C19   H9    S    
C4    O8    A    
C19   H8    S    
C21   C22   A    
C2    C20   A    
C25   H18   S    
C3    C6    S    
C9    N2    D    
Cu1   N1    S    
Cu1   O1    S    
C16   C17   A    
C3    C5    D    
Cu1   O8    S    
