data_mof_unit_34447.cif
_audit_creation_date              2012-12-10T19:46:56-0500
_audit_creation_method            fapswitch 2.2
_symmetry_space_group_name_H-M    P1
_symmetry_Int_Tables_number       1
_space_group_crystal_system       triclinic
_cell_length_a                    10.897383
_cell_length_b                    10.898146
_cell_length_c                    13.121022
_cell_angle_alpha                 90.368811
_cell_angle_beta                  90.129312
_cell_angle_gamma                 90.121257
_cell_volume                      1558.22945956

loop_
_atom_site_label
_atom_site_type_symbol
_atom_type_description
_atom_site_fract_x
_atom_site_fract_y
_atom_site_fract_z
_atom_type_partial_charge
C1    C     C_R   0.492251 0.259649 0.499442 0.819841
C2    C     C_R   0.507749 0.740351 0.500558 0.819841
C3    C     C_R   0.872924 0.492228 0.501082 -0.096576
C4    C     C_R   0.127076 0.507772 0.498918 -0.096576
C5    C     C_R   0.940035 0.456114 0.588043 -0.002737
C6    C     C_R   0.059965 0.543886 0.411956 -0.002737
C7    C     C_R   0.273550 0.228503 0.215473 -0.120042
C8    C     C_R   0.726450 0.771497 0.784527 -0.120042
C9    C     C_R   0.313606 0.177529 0.307169 -0.109536
C10   C     C_R   0.686394 0.822471 0.692831 -0.109536
C11   C     C_R   0.426508 0.115748 0.311719 0.120649
C12   C     C_R   0.573492 0.884252 0.688281 0.120649
C13   C     C_R   0.497797 0.104432 0.223077 -0.157118
C14   C     C_R   0.502203 0.895568 0.776923 -0.157118
C15   C     C_R   0.457519 0.155973 0.131600 -0.147825
C16   C     C_R   0.542480 0.844027 0.868400 -0.147825
C17   C     C_R   0.345481 0.217988 0.127822 -0.115972
C18   C     C_R   0.654518 0.782011 0.872178 -0.115973
C19   C     C_R   0.479301 0.932774 0.410839 -0.252287
C20   C     C_R   0.520699 0.067226 0.589160 -0.252287
C21   C     C_R   0.508780 0.873031 0.501596 -0.093230
C22   C     C_R   0.491220 0.126968 0.498404 -0.093230
C23   C     C_R   0.259666 0.506901 0.499689 0.820316
C24   C     C_R   0.740334 0.493099 0.500311 0.820316
C25   C     C_R   0.532022 0.940756 0.591726 0.002078
C26   C     C_R   0.467978 0.059244 0.408274 0.002079
C27   C     C_1   0.500017 0.500070 0.173574 0.159742
C28   C     C_1   0.499983 0.499930 0.826426 0.159742
C29   C     C_1   0.500009 0.500044 0.050683 -0.101263
C30   C     C_1   0.499990 0.499956 0.949317 -0.101263
C31   C     C_R   0.237345 0.753787 0.235667 -0.130616
C32   C     C_R   0.762655 0.246213 0.764333 -0.130616
C33   C     C_R   0.184983 0.705255 0.323978 -0.106122
C34   C     C_R   0.815017 0.294745 0.676022 -0.106122
C35   C     C_R   0.117853 0.595051 0.319173 0.128202
C36   C     C_R   0.882147 0.404948 0.680826 0.128202
C37   C     C_R   0.102618 0.535415 0.224731 -0.157294
C38   C     C_R   0.897382 0.464585 0.775269 -0.157294
C39   C     C_R   0.156577 0.583366 0.136957 -0.141499
C40   C     C_R   0.843423 0.416634 0.863043 -0.141500
C41   C     C_R   0.223948 0.692448 0.142432 -0.113405
C42   C     C_R   0.776052 0.307551 0.857567 -0.113404
C43   C     C_R   0.933152 0.534242 0.413964 -0.244140
C44   C     C_R   0.066848 0.465758 0.586036 -0.244140
Cu1   Cu    Cu3+1 0.499990 0.499990 0.592680 0.978619
Cu2   Cu    Cu3+1 0.500010 0.500010 0.407320 0.978619
H1    H     H_    0.265164 0.729826 0.074333 0.122371
H2    H     H_    0.734836 0.270173 0.925667 0.122371
H3    H     H_    0.584634 0.056331 0.225059 0.124197
H4    H     H_    0.415366 0.943669 0.774941 0.124196
H5    H     H_    0.513057 0.147700 0.063611 0.126261
H6    H     H_    0.486943 0.852300 0.936389 0.126261
H7    H     H_    0.461430 0.880394 0.341935 0.152636
H8    H     H_    0.538570 0.119606 0.658065 0.152636
H9    H     H_    0.287673 0.839328 0.239189 0.124165
H10   H     H_    0.712327 0.160672 0.760811 0.124166
H11   H     H_    0.049376 0.451625 0.219301 0.113726
H12   H     H_    0.950623 0.548374 0.780699 0.113726
H13   H     H_    0.145620 0.536285 0.064606 0.124071
H14   H     H_    0.854380 0.463715 0.935394 0.124071
H15   H     H_    0.880929 0.563602 0.348008 0.156772
H16   H     H_    0.119070 0.436398 0.651992 0.156772
H17   H     H_    0.314353 0.257792 0.056980 0.125907
H18   H     H_    0.685646 0.742208 0.943020 0.125907
H19   H     H_    0.186456 0.275562 0.212256 0.120579
H20   H     H_    0.813543 0.724438 0.787744 0.120579
H21   H     H_    0.256782 0.185897 0.374482 0.105400
H22   H     H_    0.743218 0.814103 0.625518 0.105401
N1    N     N_1   0.500030 0.500030 0.268070 -0.130995
N2    N     N_1   0.499970 0.499970 0.731930 -0.130995
O1    O     O_R   0.499980 0.319630 0.578260 -0.586577
O2    O     O_R   0.500020 0.680370 0.421740 -0.586577
O3    O     O_R   0.500000 0.319650 0.421740 -0.567511
O4    O     O_R   0.500000 0.680350 0.578260 -0.567512
O5    O     O_R   0.319630 0.500000 0.578260 -0.588062
O6    O     O_R   0.680370 0.500000 0.421740 -0.588062
O7    O     O_R   0.319650 0.500020 0.421740 -0.567087
O8    O     O_R   0.680350 0.499980 0.578260 -0.567087
H23   H     H_    0.196140 0.753613 0.395802 0.104361
H24   H     H_    0.803860 0.246387 0.604198 0.104362

loop_
_geom_bond_atom_site_label_1
_geom_bond_atom_site_label_2
_ccdc_geom_bond_type
C8    H20   S    
C40   H14   S    
Cu1   O1    S    
Cu2   O6    S    
C39   C41   A    
Cu1   Cu2   S    
C3    C43   A    
C1    O1    A    
C19   C21   A    
C27   C29   S    
C20   C25   A    
C5    C36   S    
C6    C35   S    
C15   C17   A    
C19   C26   A    
Cu2   N1    S    
C34   H24   S    
C38   H12   S    
C7    C17   A    
C31   C33   A    
Cu1   O8    S    
C15   H5    S    
Cu2   O2    S    
C27   N1    T    
C19   H7    S    
C40   C42   A    
C1    C22   S    
C3    C24   S    
C2    O2    A    
C4    C6    A    
C23   O5    A    
C4    C23   S    
C24   O6    A    
C4    C44   A    
C11   C26   S    
C44   H16   S    
C8    C18   A    
Cu1   O4    S    
C32   C34   A    
C9    H21   S    
C29   C30   T    
C7    H19   S    
C39   H13   S    
C2    C21   S    
C41   H1    S    
C42   H2    S    
C23   O7    A    
C9    C11   A    
C10   C12   A    
C13   H3    S    
C20   H8    S    
C5    C44   A    
C12   C14   A    
C6    C43   A    
C13   C15   A    
C33   H23   S    
C14   C16   A    
C43   H15   S    
C24   O8    A    
C7    C9    A    
C21   C25   A    
C31   C41   A    
C35   C37   A    
Cu1   N2    S    
C8    C10   A    
C28   N2    T    
C16   H6    S    
C20   C22   A    
C3    C5    A    
C2    O4    A    
Cu2   O7    S    
C10   H22   S    
C12   C25   S    
Cu1   O5    S    
C1    O3    A    
C28   C30   S    
C37   C39   A    
C17   H17   S    
C38   C40   A    
C11   C13   A    
C18   H18   S    
C14   H4    S    
C36   C38   A    
C33   C35   A    
C34   C36   A    
C16   C18   A    
C22   C26   A    
C32   C42   A    
C31   H9    S    
C32   H10   S    
Cu2   O3    S    
C37   H11   S    
