data_mof_unit_48006.cif
_audit_creation_date              2012-12-10T17:08:10-0500
_audit_creation_method            fapswitch 2.2
_symmetry_space_group_name_H-M    P1
_symmetry_Int_Tables_number       1
_space_group_crystal_system       triclinic
_cell_length_a                    23.542353
_cell_length_b                    11.059176
_cell_length_c                    9.929513
_cell_angle_alpha                 111.838956
_cell_angle_beta                  97.434258
_cell_angle_gamma                 91.59099
_cell_volume                      2371.42845938

loop_
_atom_site_label
_atom_site_type_symbol
_atom_type_description
_atom_site_fract_x
_atom_site_fract_y
_atom_site_fract_z
_atom_type_partial_charge
C1    C     C_R   0.494352 0.254063 0.440549 0.774254
C2    C     C_R   0.502713 0.745848 0.559617 0.762665
C3    C     C_R   0.235744 0.548602 0.412995 0.571335
C4    C     C_R   0.749807 0.399727 0.365210 0.584184
C5    C     C_R   0.295199 0.555405 0.419801 0.439013
C6    C     C_R   0.691080 0.401184 0.372276 0.410817
C7    C     C_R   0.328939 0.495216 0.500066 -0.402999
C8    C     C_R   0.670762 0.493249 0.492964 -0.410111
C9    C     C_R   0.302269 0.425174 0.570133 0.430741
C10   C     C_R   0.710255 0.578425 0.610930 0.458546
C11   C     C_R   0.242828 0.426537 0.573550 0.141545
C12   C     C_R   0.769535 0.570688 0.609752 0.152836
C13   C     C_R   0.209071 0.487029 0.491953 0.004214
C14   C     C_R   0.789576 0.483430 0.483789 -0.005025
C15   C     C_2   0.489122 0.113933 0.408144 0.361740
C16   C     C_2   0.501736 0.885717 0.592251 0.354973
C17   C     C_2   0.484795 0.069173 0.515802 0.449784
C18   C     C_2   0.483036 0.929396 0.485700 0.443513
C19   C     C_2   0.506898 0.507182 0.080769 0.378432
C20   C     C_2   0.490848 0.502183 0.923817 0.377905
C21   C     C_R   0.391304 0.498253 0.500806 0.956978
C22   C     C_R   0.608668 0.498348 0.497813 0.960897
C23   C     C_R   0.881286 0.594739 0.494411 0.661370
C24   C     C_R   0.115141 0.367185 0.433670 0.666096
C25   C     C_R   0.876317 0.367809 0.452848 0.674424
C26   C     C_R   0.122541 0.600441 0.532740 0.672098
C27   C     C_R   0.935375 0.364108 0.443350 -0.168933
C28   C     C_R   0.062529 0.601807 0.522713 -0.165157
C29   C     C_R   0.968620 0.482279 0.475828 -0.140824
C30   C     C_R   0.028764 0.482183 0.477271 -0.139413
C31   C     C_R   0.941761 0.600549 0.507701 -0.116718
C32   C     C_R   0.055073 0.362728 0.433735 -0.116811
C33   C     C_R   0.961816 0.245826 0.403411 0.580722
C34   C     C_R   0.035787 0.719762 0.559165 0.580094
C35   C     C_R   0.020640 0.243678 0.393299 0.134860
C36   C     C_R   0.975979 0.720070 0.551248 0.140465
Cu1   Cu    Cu3+1 0.509980 0.521810 0.644910 1.043195
Cu2   Cu    Cu3+1 0.490020 0.478190 0.355090 1.056452
N1    N     N_R   0.850327 0.481508 0.475617 -0.433537
N2    N     N_R   0.147493 0.484581 0.486440 -0.434630
N3    N     N_2   0.475010 0.445410 0.137370 -0.113156
N4    N     N_2   0.524990 0.554590 0.862630 -0.125904
O1    O     O_R   0.505330 0.332340 0.577400 -0.539887
O2    O     O_R   0.494670 0.667660 0.422600 -0.534357
O3    O     O_R   0.488470 0.295500 0.332650 -0.556721
O4    O     O_R   0.511530 0.704500 0.667350 -0.567425
O5    O     O_R   0.426310 0.518390 0.622390 -0.537301
O6    O     O_R   0.573690 0.481610 0.377610 -0.539399
O7    O     O_R   0.409450 0.481550 0.377650 -0.554931
O8    O     O_R   0.590550 0.518450 0.622350 -0.557120
O9    O     O_2   0.853275 0.700640 0.498875 -0.468812
O10   O     O_2   0.141342 0.255725 0.381463 -0.468839
O11   O     O_2   0.845123 0.259295 0.441389 -0.400911
O12   O     O_2   0.156069 0.714004 0.589952 -0.409127
F1    F     F_    0.930408 0.130261 0.367690 -0.617076
F2    F     F_    0.067403 0.836283 0.603449 -0.617593
N5    N     N_2   0.543122 0.683404 0.948688 -0.396172
H1    H     H_    0.512183 0.747911 0.949686 0.298992
C37   C     C_3   0.599653 0.727816 0.935167 -0.353112
H2    H     H_    0.621753 0.792544 0.045451 0.205990
H3    H     H_    0.596588 0.784704 0.863503 0.267025
H4    H     H_    0.626128 0.644911 0.891095 0.250031
N6    N     N_2   0.452376 0.322136 0.043025 -0.365422
H5    H     H_    0.480059 0.250998 0.040889 0.319267
C38   C     C_3   0.394810 0.288086 0.060248 -0.453533
H6    H     H_    0.375906 0.201117 0.962799 0.222736
H7    H     H_    0.367185 0.369544 0.068534 0.225778
H8    H     H_    0.395335 0.263330 0.158743 0.235388
N7    N     N_2   0.044760 0.120821 0.345248 -0.348320
H9    H     H_    0.030967 0.058325 0.392027 0.298825
C39   C     C_3   0.040211 0.057704 0.187394 -0.509693
H10   H     H_    0.063392 0.967550 0.159271 0.237586
H11   H     H_    0.059831 0.123458 0.141338 0.236355
H12   H     H_    0.994397 0.030640 0.136749 0.219302
N8    N     N_2   0.951079 0.842169 0.594709 -0.344939
H13   H     H_    0.969946 0.909802 0.561809 0.303464
C40   C     C_3   0.944638 0.896639 0.748337 -0.530913
H14   H     H_    0.921679 0.986855 0.771155 0.241894
H15   H     H_    0.987494 0.921710 0.818138 0.213632
H16   H     H_    0.919146 0.826043 0.777044 0.234754
F3    F     F_    0.203798 0.602094 0.328858 -0.579642
F4    F     F_    0.768065 0.316296 0.242450 -0.567769
F5    F     F_    0.319824 0.620298 0.346976 -0.584241
F6    F     F_    0.654269 0.309420 0.263507 -0.598178
F7    F     F_    0.333497 0.350548 0.628738 -0.657612
F8    F     F_    0.691339 0.669926 0.726872 -0.668529
N9    N     N_2   0.216876 0.364613 0.655766 -0.361950
H17   H     H_    0.238182 0.288262 0.668021 0.320313
C41   C     C_3   0.201872 0.453572 0.792837 -0.576454
H18   H     H_    0.179670 0.397350 0.845802 0.241408
H19   H     H_    0.172362 0.524102 0.773944 0.231386
H20   H     H_    0.241227 0.507872 0.868195 0.231826
N10   N     N_2   0.809065 0.652420 0.733952 -0.379451
H21   H     H_    0.794209 0.740115 0.794478 0.321209
C42   C     C_3   0.834975 0.586790 0.825236 -0.607922
H22   H     H_    0.867061 0.655991 0.914605 0.229073
H23   H     H_    0.857475 0.502599 0.760333 0.229790
H24   H     H_    0.801547 0.551914 0.874839 0.250909
F9    F     F_    0.462018 0.844898 0.346750 -0.621904
F10   F     F_    0.482021 0.152551 0.655785 -0.628766
F11   F     F_    0.521313 0.970370 0.731787 -0.606422
F12   F     F_    0.490268 0.030271 0.267613 -0.611919
N11   N     N_2   0.432912 0.464598 0.855270 -0.363568
H25   H     H_    0.419215 0.368306 0.828530 0.329362
C43   C     C_3   0.393089 0.557923 0.924386 -0.536624
H26   H     H_    0.348480 0.522549 0.869755 0.249027
H27   H     H_    0.403565 0.653285 0.916196 0.236314
H28   H     H_    0.394802 0.572917 0.041787 0.237594
N12   N     N_2   0.556953 0.583986 0.171214 -0.402388
H29   H     H_    0.557302 0.682987 0.195397 0.285719
C44   C     C_3   0.610384 0.527675 0.134389 -0.560120
H30   H     H_    0.646410 0.583721 0.221351 0.221994
H31   H     H_    0.619248 0.528057 0.028272 0.210170
H32   H     H_    0.607965 0.424393 0.123920 0.297017

loop_
_geom_bond_atom_site_label_1
_geom_bond_atom_site_label_2
_ccdc_geom_bond_type
C24   O10   S    
C22   O6    A    
N9    H17   S    
N6    C38   S    
C33   F1    S    
N10   H21   S    
C27   C29   A    
C42   H22   S    
C1    O3    A    
C21   O7    A    
C42   H24   S    
Cu2   O7    S    
C40   H14   S    
C27   C33   A    
C34   F2    S    
C43   H27   S    
Cu1   Cu2   S    
C24   N2    A    
C25   O11   S    
N12   C44   S    
C5    F5    S    
N5    C37   S    
C20   N11   S    
C7    C9    A    
Cu1   N4    S    
N7    C39   S    
Cu2   O3    S    
C9    F7    S    
C14   N1    S    
C1    O1    A    
C19   C20   S    
C2    O2    A    
C38   H7    S    
C3    F3    S    
C8    C22   S    
C1    C15   S    
Cu1   O5    S    
C2    C16   S    
Cu2   O6    S    
C3    C13   A    
C22   O8    A    
C40   H15   S    
C28   C34   A    
C37   H2    S    
N10   C42   S    
C26   O12   S    
N4    N5    S    
C19   N12   S    
C43   H28   S    
C37   H3    S    
C6    F6    S    
C32   C35   A    
Cu2   N3    S    
C4    C6    A    
C11   N9    S    
C5    C7    A    
C6    C8    A    
C7    C21   S    
C2    O4    A    
C23   C31   A    
Cu1   O1    S    
N8    H13   S    
C24   C32   A    
Cu2   O2    S    
C29   C30   A    
C36   N8    S    
N8    C40   S    
C23   O9    S    
C38   H8    S    
C17   C18   S    
C44   H31   S    
C41   H20   S    
C9    C11   A    
C10   C12   A    
C16   C18   D    
C12   C14   A    
N9    C41   S    
N11   C43   S    
C12   N10   S    
C41   H19   S    
C18   F9    S    
N3    N6    S    
C13   N2    S    
C39   H11   S    
C40   H16   S    
C15   C17   D    
C10   F8    S    
C37   H4    S    
C44   H30   S    
C3    C5    A    
C39   H12   S    
C20   N4    D    
C42   H23   S    
C25   C27   A    
C43   H26   S    
C26   C28   A    
C28   C30   A    
Cu1   O4    S    
C39   H10   S    
C29   C31   A    
N12   H29   S    
C25   N1    A    
C30   C32   A    
Cu1   O8    S    
C11   C13   A    
C26   N2    A    
N5    H1    S    
C23   N1    A    
C33   C35   A    
C44   H32   S    
C34   C36   A    
C15   F12   S    
C4    C14   A    
N7    H9    S    
C17   F10   S    
N6    H5    S    
C16   F11   S    
C4    F4    S    
C35   N7    S    
C8    C10   A    
C38   H6    S    
N11   H25   S    
C31   C36   A    
C41   H18   S    
C19   N3    D    
C21   O5    A    
