data_mof_unit_32126.cif
_audit_creation_date              2013-03-05T15:59:40-0500
_audit_creation_method            fapswitch 2.2
_symmetry_space_group_name_H-M    P1
_symmetry_Int_Tables_number       1
_space_group_crystal_system       triclinic
_cell_length_a                    18.453485
_cell_length_b                    25.871269
_cell_length_c                    18.212769
_cell_angle_alpha                 89.882898
_cell_angle_beta                  90.072876
_cell_angle_gamma                 89.798024
_cell_volume                      8694.97116877

loop_
_atom_site_label
_atom_site_type_symbol
_atom_site_description
_atom_site_fract_x
_atom_site_fract_y
_atom_site_fract_z
_atom_type_partial_charge
Zn1   Zn    Zn3+2 0.500000 0.706650 0.586810 0.942736
Zn2   Zn    Zn3+2 0.500000 0.293350 0.413190 0.935898
Zn3   Zn    Zn3+2 0.500000 0.706650 0.413190 0.947434
Zn4   Zn    Zn3+2 0.500000 0.293350 0.586810 0.951018
Zn5   Zn    Zn3+2 1.000000 0.206650 0.086810 0.938722
Zn6   Zn    Zn3+2 1.000000 0.793350 0.913190 0.946285
Zn7   Zn    Zn3+2 1.000000 0.206650 0.913190 0.952365
Zn8   Zn    Zn3+2 1.000000 0.793350 0.086810 0.944904
Zn9   Zn    Zn3+2 0.586710 0.793420 0.500000 0.944969
Zn10  Zn    Zn3+2 0.413290 0.206580 0.500000 0.949240
Zn11  Zn    Zn3+2 0.413290 0.793420 0.500000 0.946152
Zn12  Zn    Zn3+2 0.586710 0.206580 0.500000 0.945796
Zn13  Zn    Zn3+2 0.086710 0.293420 0.000000 0.943168
Zn14  Zn    Zn3+2 0.913290 0.706580 0.000000 0.943080
Zn15  Zn    Zn3+2 0.913290 0.293420 0.000000 0.940358
Zn16  Zn    Zn3+2 0.086710 0.706580 0.000000 0.932793
O1    O     O_3   0.500000 0.750040 0.500000 -0.470847
O2    O     O_3   0.500000 0.249960 0.500000 -0.468125
O3    O     O_3   0.000000 0.250040 0.000000 -0.471354
O4    O     O_3   1.000000 0.749960 0.000000 -0.469422
O5    O     O_R   0.585420 0.719700 0.353880 -0.654384
O6    O     O_R   0.414580 0.280300 0.646120 -0.654847
O7    O     O_R   0.414580 0.719700 0.646120 -0.658149
O8    O     O_R   0.585420 0.280300 0.353880 -0.670367
O9    O     O_R   0.585420 0.280300 0.646120 -0.642682
O10   O     O_R   0.414580 0.719700 0.353880 -0.639762
O11   O     O_R   0.414580 0.280300 0.353880 -0.654704
O12   O     O_R   0.585420 0.719700 0.646120 -0.657935
O13   O     O_R   0.085420 0.219700 0.853880 -0.642062
O14   O     O_R   0.914580 0.780300 0.146120 -0.640072
O15   O     O_R   0.914580 0.219700 0.146120 -0.657695
O16   O     O_R   0.085420 0.780300 0.853880 -0.652304
O17   O     O_R   0.085420 0.780300 0.146120 -0.656412
O18   O     O_R   0.914580 0.219700 0.853880 -0.651292
O19   O     O_R   0.914580 0.780300 0.853880 -0.654327
O20   O     O_R   0.085420 0.219700 0.146120 -0.656535
O21   O     O_R   0.646120 0.780390 0.585510 -0.637269
O22   O     O_R   0.353880 0.219610 0.414490 -0.638045
O23   O     O_R   0.353880 0.780390 0.414490 -0.644867
O24   O     O_R   0.646120 0.219610 0.585510 -0.649246
O25   O     O_R   0.646120 0.219610 0.414490 -0.641940
O26   O     O_R   0.353880 0.780390 0.585510 -0.638142
O27   O     O_R   0.353880 0.219610 0.585510 -0.636786
O28   O     O_R   0.646120 0.780390 0.414490 -0.644820
O29   O     O_R   0.146120 0.280390 0.085510 -0.643211
O30   O     O_R   0.853880 0.719610 0.914490 -0.645859
O31   O     O_R   0.853880 0.280390 0.914490 -0.640794
O32   O     O_R   0.146120 0.719610 0.085510 -0.658643
O33   O     O_R   0.146120 0.719610 0.914490 -0.640834
O34   O     O_R   0.853880 0.280390 0.085510 -0.643344
O35   O     O_R   0.853880 0.719610 0.085510 -0.643838
O36   O     O_R   0.146120 0.280390 0.914490 -0.646242
O37   O     O_R   0.560660 0.865840 0.500000 -0.647224
O38   O     O_R   0.439340 0.134160 0.500000 -0.652834
O39   O     O_R   0.439340 0.865840 0.500000 -0.646788
O40   O     O_R   0.560660 0.134160 0.500000 -0.654150
O41   O     O_R   0.060660 0.365840 0.000000 -0.644084
O42   O     O_R   0.939340 0.634160 0.000000 -0.647420
O43   O     O_R   0.939340 0.365840 0.000000 -0.654250
O44   O     O_R   0.060660 0.634160 0.000000 -0.647880
O45   O     O_R   0.500000 0.634240 0.439310 -0.641877
O46   O     O_R   0.500000 0.365760 0.560690 -0.644975
O47   O     O_R   0.500000 0.634240 0.560690 -0.641589
O48   O     O_R   0.500000 0.365760 0.439310 -0.644122
O49   O     O_R   1.000000 0.134240 0.939310 -0.639447
O50   O     O_R   1.000000 0.865760 0.060690 -0.641877
O51   O     O_R   0.000000 0.134240 0.060690 -0.644702
O52   O     O_R   0.000000 0.865760 0.939310 -0.641808
C1    C     C_R   0.638764 0.750873 0.358685 0.797571
C2    C     C_R   0.359372 0.250817 0.639430 0.782584
C3    C     C_R   0.361397 0.751151 0.641513 0.776451
C4    C     C_R   0.639153 0.249742 0.358818 0.785606
C5    C     C_R   0.640909 0.250827 0.639163 0.812311
C6    C     C_R   0.360956 0.750672 0.358817 0.790240
C7    C     C_R   0.361124 0.249303 0.358777 0.787924
C8    C     C_R   0.638679 0.750791 0.641559 0.784858
C9    C     C_R   0.140701 0.249238 0.860587 0.804323
C10   C     C_R   0.861096 0.749301 0.141250 0.788439
C11   C     C_R   0.861040 0.250656 0.141331 0.787875
C12   C     C_R   0.139099 0.749370 0.858756 0.789404
C13   C     C_R   0.138829 0.749045 0.141250 0.801053
C14   C     C_R   0.859149 0.249159 0.860715 0.784187
C15   C     C_R   0.861267 0.749160 0.858704 0.797411
C16   C     C_R   0.139111 0.250495 0.141062 0.804172
C17   C     C_R   0.499953 0.889900 0.499714 0.792483
C18   C     C_R   0.500158 0.110101 0.499913 0.815795
C19   C     C_R   0.999763 0.389861 0.999277 0.810558
C20   C     C_R   0.000236 0.610050 0.000032 0.796370
C21   C     C_R   0.500411 0.610042 0.500045 0.794698
C22   C     C_R   0.499283 0.389904 0.499983 0.792828
C23   C     C_R   0.000271 0.110070 0.000162 0.792910
C24   C     C_R   0.999467 0.889915 0.999829 0.795235
C25   C     C_R   0.614131 0.552536 0.427274 -0.225265
C26   C     C_R   0.387669 0.446853 0.575141 -0.227518
C27   C     C_R   0.388642 0.553878 0.576074 -0.228112
C28   C     C_R   0.612019 0.445561 0.426796 -0.229502
C29   C     C_R   0.881320 0.054384 0.936712 -0.223511
C30   C     C_R   0.117711 0.945477 0.063998 -0.223441
C31   C     C_R   0.115890 0.052660 0.069203 -0.230049
C32   C     C_R   0.883303 0.947193 0.931616 -0.231374
C33   C     C_R   0.668691 0.525596 0.389156 0.135160
C34   C     C_R   0.335976 0.473173 0.617353 0.138217
C35   C     C_R   0.336608 0.527763 0.618020 0.126804
C36   C     C_R   0.666252 0.470991 0.387331 0.124708
C37   C     C_R   0.824114 0.028493 0.902095 0.135699
C38   C     C_R   0.174263 0.971214 0.099714 0.135137
C39   C     C_R   0.172382 0.025678 0.103905 0.129235
C40   C     C_R   0.826162 0.974016 0.897758 0.129808
C41   C     C_R   0.555515 0.472486 0.462836 0.045159
C42   C     C_R   0.444602 0.527319 0.538262 0.044058
C43   C     C_R   0.444142 0.473042 0.538021 0.041385
C44   C     C_R   0.556171 0.526732 0.462813 0.040755
C45   C     C_R   0.941722 0.973216 0.965747 0.041831
C46   C     C_R   0.057683 0.026722 0.034541 0.042250
C47   C     C_R   0.058024 0.972411 0.033129 0.043073
C48   C     C_R   0.941356 0.027533 0.967094 0.044163
C49   C     C_R   0.499406 0.446016 0.500009 -0.124693
C50   C     C_R   0.500309 0.553884 0.500166 -0.127599
C51   C     C_R   0.999821 0.946034 0.999313 -0.123966
C52   C     C_R   0.999746 0.053934 0.000695 -0.122878
H1    H     H_    0.618074 0.594176 0.428623 0.153677
H2    H     H_    0.383190 0.405259 0.572920 0.151071
H3    H     H_    0.384651 0.595507 0.574331 0.156690
H4    H     H_    0.615463 0.403923 0.428992 0.156819
H5    H     H_    0.877493 0.096036 0.940124 0.144895
H6    H     H_    0.121640 0.903841 0.060503 0.148017
H7    H     H_    0.118355 0.094376 0.070252 0.152820
H8    H     H_    0.881122 0.905466 0.930397 0.153390
C53   C     C_R   0.234050 0.751740 0.675458 -0.212354
C54   C     C_R   0.764622 0.236153 0.322393 -0.218205
C55   C     C_R   0.766272 0.753396 0.324544 -0.264058
C56   C     C_R   0.323693 0.249783 0.768653 -0.270989
C57   C     C_R   0.233728 0.249175 0.324278 -0.253289
C58   C     C_R   0.766231 0.749922 0.675868 -0.245495
C59   C     C_R   0.677145 0.255086 0.767583 -0.268267
C60   C     C_R   0.233092 0.751035 0.324733 -0.270445
C61   C     C_R   0.736158 0.266185 0.178293 -0.204189
C62   C     C_R   0.266992 0.749660 0.824761 -0.211245
C63   C     C_R   0.176832 0.250000 0.731585 -0.273784
C64   C     C_R   0.733374 0.747719 0.175349 -0.260197
C65   C     C_R   0.733701 0.749179 0.825196 -0.229925
C66   C     C_R   0.267101 0.250016 0.174980 -0.228758
C67   C     C_R   0.266185 0.746848 0.175492 -0.269930
C68   C     C_R   0.823511 0.245447 0.731613 -0.269789
H9    H     H_    0.223366 0.751490 0.617100 0.173123
H10   H     H_    0.774200 0.224780 0.378692 0.185098
H11   H     H_    0.778932 0.754744 0.382709 0.164337
H12   H     H_    0.380914 0.248634 0.782256 0.150474
H13   H     H_    0.221436 0.250059 0.382503 0.151355
H14   H     H_    0.778352 0.748989 0.617615 0.149838
H15   H     H_    0.620080 0.257719 0.781419 0.161258
H16   H     H_    0.220722 0.751218 0.382940 0.153043
H17   H     H_    0.726558 0.276632 0.121658 0.182893
H18   H     H_    0.279373 0.749118 0.882978 0.157711
H19   H     H_    0.119710 0.251344 0.717522 0.157207
H20   H     H_    0.721033 0.746930 0.117112 0.153501
H21   H     H_    0.723419 0.750025 0.883583 0.173302
H22   H     H_    0.278194 0.250237 0.116679 0.173501
H23   H     H_    0.278812 0.746095 0.117322 0.158186
H24   H     H_    0.880669 0.242869 0.718282 0.153616
C69   C     C_R   0.679454 0.267384 0.228823 0.151416
C70   C     C_R   0.323405 0.753250 0.774127 0.174563
C71   C     C_R   0.228386 0.252503 0.675704 0.170897
C72   C     C_R   0.676891 0.750003 0.226069 0.173269
C73   C     C_R   0.676459 0.748656 0.774657 0.153821
C74   C     C_R   0.323953 0.248778 0.226037 0.155548
C75   C     C_R   0.322510 0.747248 0.226376 0.166101
C76   C     C_R   0.772435 0.247641 0.675089 0.168237
C77   C     C_R   0.177059 0.751379 0.726099 0.145433
C78   C     C_R   0.821881 0.237248 0.272540 0.156898
C79   C     C_R   0.822674 0.752865 0.273793 0.164733
C80   C     C_R   0.272200 0.247688 0.824749 0.174249
C81   C     C_R   0.177373 0.250487 0.273405 0.176414
C82   C     C_R   0.822719 0.747378 0.726577 0.175425
C83   C     C_R   0.728244 0.253065 0.823834 0.167513
C84   C     C_R   0.176768 0.748312 0.273759 0.179170
C85   C     C_R   0.694551 0.250962 0.301770 -0.119253
C86   C     C_R   0.306229 0.751933 0.698543 -0.091402
C87   C     C_R   0.302619 0.251733 0.694911 -0.049195
C88   C     C_R   0.694072 0.751281 0.301737 -0.047716
C89   C     C_R   0.693981 0.750305 0.698842 -0.083568
C90   C     C_R   0.305979 0.249046 0.301563 -0.080888
C91   C     C_R   0.305425 0.750381 0.301964 -0.055935
C92   C     C_R   0.698160 0.251747 0.694064 -0.042025
C93   C     C_R   0.194681 0.749731 0.801804 -0.097712
C94   C     C_R   0.806106 0.251061 0.198867 -0.112470
C95   C     C_R   0.805672 0.749403 0.198198 -0.057148
C96   C     C_R   0.197795 0.248229 0.805390 -0.035723
C97   C     C_R   0.194721 0.250327 0.197848 -0.057062
C98   C     C_R   0.805745 0.748952 0.802016 -0.063755
C99   C     C_R   0.802347 0.248525 0.805205 -0.050292
C100  C     C_R   0.194059 0.748262 0.198199 -0.031173
C101  C     C_R   0.529844 0.972730 0.438607 0.043937
C102  C     C_R   0.473190 0.027293 0.562143 0.049450
C103  C     C_R   0.472128 0.972694 0.561600 0.046067
C104  C     C_R   0.529083 0.027369 0.438184 0.048254
C105  C     C_R   0.974198 0.472851 0.935986 0.104595
C106  C     C_R   0.031060 0.526587 0.059629 0.098889
C107  C     C_R   0.022742 0.472391 0.062604 0.034626
C108  C     C_R   0.970586 0.527470 0.938087 0.024635
C109  C     C_R   0.500562 0.053835 0.499936 -0.094307
C110  C     C_R   0.500138 0.946168 0.499727 -0.095713
C111  C     C_R   0.001042 0.553771 0.999057 -0.111732
C112  C     C_R   0.999084 0.445990 0.999110 -0.095710
C113  C     C_3   0.284643 0.559674 0.663913 -0.434622
C114  C     C_3   0.212727 0.568642 0.623510 -0.350184
C115  C     C_3   0.159796 0.599468 0.670801 -0.892160
H25   H     H_    0.146973 0.577812 0.721866 0.259478
H26   H     H_    0.183390 0.637508 0.685475 0.274713
H27   H     H_    0.108710 0.606170 0.639881 0.246890
H28   H     H_    0.222995 0.590422 0.571882 0.220902
H29   H     H_    0.187522 0.531118 0.608860 0.217889
H30   H     H_    0.275722 0.541192 0.718222 0.205187
H31   H     H_    0.309117 0.597941 0.676334 0.207065
C116  C     C_3   0.719211 0.437530 0.344715 -0.429011
C117  C     C_3   0.788571 0.427032 0.388848 -0.345365
C118  C     C_3   0.830487 0.381120 0.357322 -0.897367
H32   H     H_    0.798921 0.345003 0.364603 0.266844
H33   H     H_    0.841156 0.386934 0.297884 0.274645
H34   H     H_    0.882983 0.376706 0.386570 0.249505
H35   H     H_    0.823483 0.461909 0.387997 0.219557
H36   H     H_    0.774857 0.418106 0.446955 0.226341
H37   H     H_    0.693031 0.399915 0.331696 0.210891
H38   H     H_    0.731861 0.454433 0.290241 0.186335
C119  C     C_3   0.727345 0.556891 0.351423 -0.438922
C120  C     C_3   0.777303 0.583035 0.407512 -0.335274
C121  C     C_3   0.837833 0.612800 0.369288 -0.911275
H39   H     H_    0.871924 0.632469 0.410945 0.245497
H40   H     H_    0.872628 0.585974 0.337231 0.261370
H41   H     H_    0.814624 0.642448 0.331791 0.269104
H42   H     H_    0.745789 0.610471 0.441936 0.214231
H43   H     H_    0.801849 0.553283 0.444086 0.219894
H44   H     H_    0.761200 0.533093 0.314476 0.204883
H45   H     H_    0.701137 0.586859 0.316361 0.205470
C122  C     C_3   0.283060 0.441095 0.661815 -0.466595
C123  C     C_3   0.322033 0.414985 0.726651 -0.326023
C124  C     C_3   0.268818 0.387646 0.777416 -0.876152
H46   H     H_    0.233296 0.416495 0.804655 0.258730
H47   H     H_    0.235139 0.359919 0.745981 0.265882
H48   H     H_    0.299109 0.366114 0.820480 0.256223
H49   H     H_    0.361720 0.386112 0.705824 0.239122
H50   H     H_    0.351973 0.444464 0.758948 0.224703
H51   H     H_    0.237008 0.464345 0.682601 0.213202
H52   H     H_    0.258923 0.411016 0.625826 0.188723
C125  C     C_3   0.228376 0.056233 0.146100 -0.435826
C126  C     C_3   0.293092 0.069953 0.097255 -0.346087
C127  C     C_3   0.354986 0.091987 0.142856 -0.909394
H53   H     H_    0.336370 0.126527 0.173785 0.275087
H54   H     H_    0.375201 0.062457 0.182304 0.264328
H55   H     H_    0.400279 0.103222 0.106142 0.252452
H56   H     H_    0.313102 0.035193 0.067712 0.221104
H57   H     H_    0.275928 0.099025 0.055643 0.222214
H58   H     H_    0.203825 0.092626 0.167233 0.201387
H59   H     H_    0.246099 0.034463 0.195635 0.209432
C128  C     C_3   0.769896 0.943008 0.856370 -0.439123
C129  C     C_3   0.709176 0.925001 0.907640 -0.347015
C130  C     C_3   0.651592 0.894883 0.865552 -0.892232
H60   H     H_    0.626556 0.919678 0.822520 0.259516
H61   H     H_    0.676021 0.860232 0.839382 0.272905
H62   H     H_    0.608519 0.882118 0.903968 0.247315
H63   H     H_    0.732228 0.899706 0.951301 0.219344
H64   H     H_    0.683170 0.958889 0.934345 0.219115
H65   H     H_    0.747320 0.965550 0.809672 0.206515
H66   H     H_    0.796166 0.908568 0.831168 0.205842
C131  C     C_3   0.761854 0.060511 0.871897 -0.460387
C132  C     C_3   0.781368 0.083867 0.797078 -0.327619
C133  C     C_3   0.716781 0.112299 0.763348 -0.883832
H67   H     H_    0.672275 0.084702 0.751727 0.257679
H68   H     H_    0.696731 0.142635 0.801329 0.261927
H69   H     H_    0.733327 0.130871 0.710999 0.259061
H70   H     H_    0.826907 0.111520 0.803703 0.234734
H71   H     H_    0.798839 0.052748 0.758918 0.221599
H72   H     H_    0.711538 0.037447 0.867276 0.210102
H73   H     H_    0.748927 0.092180 0.911041 0.189877
C134  C     C_3   0.235255 0.938959 0.132036 -0.460398
C135  C     C_3   0.212468 0.914789 0.205350 -0.330155
C136  C     C_3   0.275702 0.886309 0.241498 -0.879677
H74   H     H_    0.297713 0.856510 0.203804 0.261916
H75   H     H_    0.319466 0.913914 0.255756 0.254456
H76   H     H_    0.256918 0.867134 0.292600 0.261635
H77   H     H_    0.193009 0.945470 0.243249 0.222058
H78   H     H_    0.167528 0.887017 0.196064 0.233944
H79   H     H_    0.250072 0.907789 0.092773 0.191709
H80   H     H_    0.285207 0.961949 0.139865 0.213320
C137  C     C_3   0.603666 0.285198 0.205566 -0.350038
C138  C     C_3   0.592999 0.298574 0.124436 -0.963693
H81   H     H_    0.628467 0.331326 0.108565 0.263816
H82   H     H_    0.604003 0.264278 0.089535 0.263083
H83   H     H_    0.536091 0.311005 0.115108 0.269842
H84   H     H_    0.564387 0.254275 0.219580 0.211543
H85   H     H_    0.589568 0.320774 0.236510 0.236623
C139  C     C_3   0.399641 0.761065 0.803116 -0.407122
C140  C     C_3   0.405636 0.811189 0.847262 -0.921162
H86   H     H_    0.382828 0.844144 0.815702 0.268310
H87   H     H_    0.376451 0.807810 0.900294 0.257074
H88   H     H_    0.463323 0.819736 0.859201 0.260294
H89   H     H_    0.414535 0.727655 0.838483 0.207849
H90   H     H_    0.440160 0.763361 0.758636 0.218353
C141  C     C_3   0.201957 0.259341 0.597440 -0.415998
C142  C     C_3   0.175563 0.208259 0.565509 -0.802553
H91   H     H_    0.219978 0.179190 0.565650 0.278602
H92   H     H_    0.129314 0.193165 0.598000 0.247005
H93   H     H_    0.157266 0.214382 0.508023 0.228524
H94   H     H_    0.156692 0.287820 0.596360 0.188463
H95   H     H_    0.244586 0.275658 0.561363 0.198193
C143  C     C_3   0.600369 0.755425 0.197018 -0.406265
C144  C     C_3   0.572345 0.810638 0.206724 -0.907007
H96   H     H_    0.559430 0.818227 0.265218 0.242348
H97   H     H_    0.613226 0.838945 0.187269 0.269219
H98   H     H_    0.522367 0.816395 0.173785 0.244373
H99   H     H_    0.598415 0.746189 0.137437 0.198620
H100  H     H_    0.563890 0.727443 0.224046 0.236792
C145  C     C_3   0.597809 0.747591 0.800464 -0.376934
C146  C     C_3   0.586495 0.746137 0.883847 -0.934956
H101  H     H_    0.613320 0.711579 0.908085 0.265767
H102  H     H_    0.607516 0.781905 0.909707 0.261699
H103  H     H_    0.528003 0.743271 0.896581 0.262494
H104  H     H_    0.569496 0.782226 0.778262 0.193594
H105  H     H_    0.571252 0.712523 0.778258 0.238455
C147  C     C_3   0.402907 0.245993 0.201660 -0.372764
C148  C     C_3   0.415459 0.233872 0.120383 -0.944265
H106  H     H_    0.384805 0.199084 0.103666 0.265813
H107  H     H_    0.399281 0.267294 0.085596 0.264272
H108  H     H_    0.473782 0.225818 0.110972 0.267310
H109  H     H_    0.429583 0.283358 0.214241 0.232489
H110  H     H_    0.430615 0.215236 0.233885 0.193100
C149  C     C_3   0.398928 0.745985 0.196782 -0.416948
C150  C     C_3   0.419642 0.691279 0.173121 -0.814716
H111  H     H_    0.421662 0.665167 0.221558 0.275940
H112  H     H_    0.379816 0.676034 0.132902 0.250792
H113  H     H_    0.473617 0.691554 0.146422 0.231032
H114  H     H_    0.402874 0.772294 0.148605 0.188464
H115  H     H_    0.438503 0.760493 0.237358 0.221801
C151  C     C_3   0.799632 0.247199 0.596292 -0.398986
C152  C     C_3   0.787082 0.299112 0.557974 -0.860448
H116  H     H_    0.728463 0.307888 0.552528 0.247356
H117  H     H_    0.813659 0.330608 0.589297 0.255658
H118  H     H_    0.810773 0.297902 0.502009 0.242198
H119  H     H_    0.858849 0.239162 0.594738 0.194378
H120  H     H_    0.774349 0.215486 0.564583 0.230381
C153  C     C_3   0.098337 0.751284 0.700804 -0.366358
C154  C     C_3   0.086048 0.744794 0.618097 -0.942190
H121  H     H_    0.108672 0.778188 0.587448 0.263899
H122  H     H_    0.110775 0.708143 0.598479 0.264494
H123  H     H_    0.027221 0.743468 0.606194 0.257864
H124  H     H_    0.070177 0.719133 0.729175 0.204867
H125  H     H_    0.072462 0.788245 0.717454 0.231925
C155  C     C_3   0.899016 0.224793 0.297336 -0.355415
C156  C     C_3   0.912779 0.225868 0.380286 -0.947918
H126  H     H_    0.894789 0.263334 0.403823 0.265058
H127  H     H_    0.884771 0.193307 0.407957 0.262478
H128  H     H_    0.971644 0.221379 0.391089 0.256558
H129  H     H_    0.914681 0.186037 0.276408 0.229762
H130  H     H_    0.935671 0.253965 0.272887 0.219247
C157  C     C_3   0.899173 0.754497 0.303378 -0.415985
C158  C     C_3   0.919584 0.809525 0.325261 -0.819774
H131  H     H_    0.920371 0.835044 0.276169 0.276936
H132  H     H_    0.880234 0.825180 0.365695 0.251327
H133  H     H_    0.974081 0.809666 0.351027 0.230976
H134  H     H_    0.903591 0.728954 0.352367 0.194144
H135  H     H_    0.938674 0.739247 0.263206 0.219645
C159  C     C_3   0.298796 0.243522 0.903539 -0.401751
C160  C     C_3   0.282708 0.190501 0.936730 -0.875996
H136  H     H_    0.223544 0.183745 0.940883 0.246490
H137  H     H_    0.307531 0.159574 0.902711 0.261244
H138  H     H_    0.306033 0.188269 0.992840 0.240564
H139  H     H_    0.358418 0.249347 0.906252 0.195738
H140  H     H_    0.275007 0.274521 0.937934 0.230416
C161  C     C_3   0.100681 0.255637 0.302070 -0.403541
C162  C     C_3   0.070943 0.310039 0.288997 -0.898677
H141  H     H_    0.109740 0.339417 0.309540 0.265815
H142  H     H_    0.060656 0.316857 0.229711 0.248028
H143  H     H_    0.019202 0.314951 0.319218 0.249347
H144  H     H_    0.064781 0.226240 0.277193 0.230057
H145  H     H_    0.099232 0.248210 0.362212 0.192962
C163  C     C_3   0.898697 0.738042 0.698264 -0.404238
C164  C     C_3   0.922416 0.682217 0.712565 -0.907708
H146  H     H_    0.934997 0.676351 0.771595 0.243969
H147  H     H_    0.879218 0.654920 0.695550 0.267487
H148  H     H_    0.971626 0.673005 0.680207 0.255370
H149  H     H_    0.900768 0.744871 0.638029 0.194855
H150  H     H_    0.937591 0.765513 0.722983 0.229209
C165  C     C_3   0.700888 0.253696 0.902179 -0.413616
C166  C     C_3   0.683766 0.308828 0.926405 -0.799014
H151  H     H_    0.732210 0.333855 0.920888 0.276603
H152  H     H_    0.639025 0.325218 0.892682 0.246419
H153  H     H_    0.666778 0.308692 0.984674 0.237470
H154  H     H_    0.650888 0.230004 0.906411 0.186080
H155  H     H_    0.740103 0.235666 0.940782 0.204537
C167  C     C_3   0.100453 0.740733 0.301948 -0.414807
C168  C     C_3   0.075387 0.685158 0.289484 -0.894628
H156  H     H_    0.067779 0.677400 0.230059 0.242502
H157  H     H_    0.115792 0.657436 0.312123 0.265529
H158  H     H_    0.023094 0.678580 0.317951 0.242559
H159  H     H_    0.097637 0.748672 0.361866 0.199508
H160  H     H_    0.062817 0.768455 0.275556 0.234915
C169  C     C_3   0.561818 0.942470 0.374059 -0.405524
C170  C     C_3   0.644691 0.937712 0.381517 -0.314480
C171  C     C_3   0.677607 0.907669 0.317713 -0.868760
H161  H     H_    0.657852 0.867269 0.318295 0.275536
H162  H     H_    0.663212 0.926199 0.264570 0.253433
H163  H     H_    0.737539 0.906910 0.323204 0.252609
H164  H     H_    0.670123 0.976473 0.383752 0.207132
H165  H     H_    0.658711 0.917506 0.433488 0.251767
H166  H     H_    0.538267 0.903196 0.369718 0.186186
H167  H     H_    0.546409 0.960480 0.320925 0.190858
C172  C     C_3   0.449284 0.057830 0.630110 -0.420987
C173  C     C_3   0.514881 0.074331 0.676304 -0.357806
C174  C     C_3   0.491811 0.108340 0.740632 -0.895903
H168  H     H_    0.464945 0.144106 0.720221 0.257665
H169  H     H_    0.453889 0.087061 0.776999 0.263342
H170  H     H_    0.540226 0.119482 0.773134 0.248087
H171  H     H_    0.543065 0.039424 0.697911 0.217516
H172  H     H_    0.553960 0.096280 0.642101 0.232001
H173  H     H_    0.416797 0.092136 0.614281 0.223360
H174  H     H_    0.411493 0.036127 0.665518 0.203320
C175  C     C_3   0.443423 0.942334 0.627600 -0.408362
C176  C     C_3   0.360595 0.936635 0.623565 -0.313356
C177  C     C_3   0.331896 0.904954 0.687871 -0.868291
H175  H     H_    0.356253 0.865667 0.687359 0.268348
H176  H     H_    0.344972 0.924282 0.740626 0.250347
H177  H     H_    0.272143 0.901178 0.683272 0.256063
H178  H     H_    0.333853 0.975122 0.623810 0.207733
H179  H     H_    0.345018 0.917141 0.571680 0.252498
H180  H     H_    0.468472 0.903358 0.631292 0.186905
H181  H     H_    0.460120 0.960522 0.680033 0.192159
C178  C     C_3   0.556933 0.058109 0.371838 -0.422542
C179  C     C_3   0.494429 0.078203 0.323862 -0.349933
C180  C     C_3   0.522598 0.113000 0.262458 -0.908856
H182  H     H_    0.550299 0.147310 0.285866 0.253891
H183  H     H_    0.561062 0.091397 0.226972 0.266573
H184  H     H_    0.476655 0.126586 0.228160 0.257658
H185  H     H_    0.465291 0.044913 0.299272 0.217540
H186  H     H_    0.455141 0.100642 0.357243 0.228668
H187  H     H_    0.591506 0.090560 0.389941 0.226179
H188  H     H_    0.594039 0.035693 0.336562 0.203654
C181  C     C_3   0.951185 0.443323 0.866828 -0.401255
C182  C     C_3   0.010874 0.442196 0.808012 -0.396090
C183  C     C_3   0.070401 0.402964 0.825585 -0.803738
H189  H     H_    0.102353 0.415796 0.873859 0.271256
H190  H     H_    0.046925 0.364238 0.836617 0.244536
H191  H     H_    0.107191 0.399633 0.777698 0.230800
H192  H     H_    0.985876 0.431325 0.754691 0.210128
H193  H     H_    0.035678 0.480956 0.801068 0.221300
H194  H     H_    0.934005 0.403200 0.878333 0.208157
H195  H     H_    0.901537 0.460546 0.842826 0.170842
C184  C     C_3   0.069644 0.554996 0.122454 -0.394726
C185  C     C_3   0.152351 0.546226 0.121588 -0.372343
C186  C     C_3   0.190401 0.576136 0.060615 -0.742570
H196  H     H_    0.169288 0.564450 0.006019 0.265408
H197  H     H_    0.182877 0.618319 0.068496 0.285812
H198  H     H_    0.249393 0.567612 0.062351 0.215948
H199  H     H_    0.175022 0.558970 0.175127 0.207061
H200  H     H_    0.165714 0.504658 0.115066 0.218134
H201  H     H_    0.058585 0.597076 0.123369 0.191662
H202  H     H_    0.048194 0.542030 0.176157 0.173837
C187  C     C_3   0.030413 0.443901 0.136031 -0.398424
C188  C     C_3   0.963084 0.453444 0.184090 -0.348661
C189  C     C_3   0.979685 0.445326 0.265369 -0.920948
H203  H     H_    0.992990 0.404203 0.276121 0.273018
H204  H     H_    0.025759 0.469980 0.282800 0.260675
H205  H     H_    0.931692 0.456373 0.298470 0.261656
H206  H     H_    0.942245 0.493501 0.176922 0.221215
H207  H     H_    0.919095 0.426727 0.167102 0.222393
H208  H     H_    0.037196 0.401567 0.129758 0.187760
H209  H     H_    0.080309 0.455950 0.164936 0.205336
C190  C     C_3   0.933276 0.557751 0.876236 -0.402044
C191  C     C_3   0.851055 0.560927 0.889467 -0.313251
C192  C     C_3   0.812832 0.591351 0.828843 -0.865702
H210  H     H_    0.831704 0.631980 0.828605 0.278914
H211  H     H_    0.823602 0.573588 0.774451 0.251721
H212  H     H_    0.753473 0.591311 0.838741 0.251945
H213  H     H_    0.827405 0.521583 0.892026 0.206159
H214  H     H_    0.839818 0.579917 0.942870 0.250727
H215  H     H_    0.955597 0.597330 0.870722 0.189415
H216  H     H_    0.944168 0.540355 0.821850 0.191436

loop_
_geom_bond_atom_site_label_1
_geom_bond_atom_site_label_2
_geom_bond_distance
_ccdc_geom_bond_type
C168  H158  1.109517 S    
Zn6   O16   1.941029 S    
C189  H203  1.108013 S    
Zn7   O13   1.942194 S    
C129  H64   1.111250 S    
C54   H10   1.080335 S    
C77   C153  1.523449 S    
C187  C188  1.540221 S    
C187  H209  1.106158 S    
Zn5   O51   1.933740 S    
O34   C11   1.280063 A    
C42   C50   1.419624 A    
C46   C47   1.405377 A    
C145  H104  1.110891 S    
C159  H140  1.108429 S    
C181  C182  1.537675 S    
C55   C79   1.392923 A    
C59   C92   1.397252 A    
C24   C51   1.451919 S    
C25   H1    1.080315 S    
C106  C184  1.536692 S    
C167  H160  1.105453 S    
C163  H150  1.107697 S    
C192  H212  1.110337 S    
C38   C39   1.411581 A    
Zn5   O20   1.940731 S    
C26   C43   1.416692 A    
Zn6   O19   1.940732 S    
C33   C119  1.518260 S    
O23   C6    1.280265 A    
C42   C43   1.404284 A    
C164  H148  1.108680 S    
C161  H144  1.107601 S    
C181  H194  1.106139 S    
C151  H119  1.112057 S    
C73   C145  1.526467 S    
O45   C21   1.269914 A    
C186  H197  1.109289 S    
C169  H167  1.109483 S    
C115  H27   1.110405 S    
C126  H57   1.111658 S    
C147  H110  1.110643 S    
C68   H24   1.084507 S    
C101  C169  1.531450 S    
C103  C175  1.530734 S    
C53   H9    1.080787 S    
C136  H75   1.110853 S    
Zn4   O2    1.940904 S    
C62   H18   1.084390 S    
Zn3   O45   1.931855 S    
C188  H207  1.112028 S    
C125  C126  1.532319 S    
C84   C167  1.512826 S    
C139  H89   1.110468 S    
C31   C39   1.401734 A    
C66   H22   1.081647 S    
O11   C7    1.276575 A    
C60   H16   1.084709 S    
C79   C157  1.511137 S    
C157  H135  1.105804 S    
C38   C134  1.516371 S    
C22   C49   1.451702 S    
C170  H165  1.110195 S    
C177  H177  1.110377 S    
Zn16  O33   1.935402 S    
C25   C33   1.407199 A    
C152  H117  1.110817 S    
C154  H121  1.110617 S    
C146  H101  1.110832 S    
C192  H210  1.108481 S    
C66   C97   1.399597 A    
C125  H58   1.112995 S    
C158  H133  1.109236 S    
O42   C20   1.283334 A    
C178  C179  1.534741 S    
Zn12  O24   1.934265 S    
C116  C117  1.533651 S    
C54   C85   1.398046 A    
O16   C12   1.274088 A    
C71   C141  1.515764 S    
O40   C18   1.280176 A    
C121  H39   1.110378 S    
Zn16  O4    1.951206 S    
C143  C144  1.528107 S    
C61   H17   1.080025 S    
C62   C70   1.394825 A    
C184  H202  1.107440 S    
C122  H51   1.107005 S    
C17   C110  1.455731 S    
C64   H20   1.084805 S    
C175  H181  1.109231 S    
C26   H2    1.080389 S    
C65   H21   1.080671 S    
C128  H65   1.110126 S    
C113  H31   1.113139 S    
Zn7   O3    1.940906 S    
C28   C36   1.398428 A    
C40   C128  1.515323 S    
C107  C112  1.413653 A    
C178  H188  1.103539 S    
C41   C44   1.403512 A    
C69   C85   1.420961 A    
C165  C166  1.526007 S    
C19   C112  1.452156 S    
C190  H215  1.109462 S    
C142  H91   1.110396 S    
Zn13  O29   1.931807 S    
C61   C94   1.397943 A    
C28   C41   1.414825 A    
C127  H55   1.110197 S    
O49   C23   1.271409 A    
C58   C82   1.393087 A    
C138  H83   1.109987 S    
C64   C95   1.397880 A    
Zn3   O10   1.938029 S    
C65   C98   1.395395 A    
C165  H155  1.109285 S    
C154  H123  1.107395 S    
C166  H152  1.110797 S    
C68   C99   1.398877 A    
C53   C86   1.396266 A    
C173  H171  1.111595 S    
C30   C38   1.400177 A    
O33   C12   1.278955 A    
Zn10  O22   1.931808 S    
C172  H174  1.104478 S    
O35   C10   1.281383 A    
C82   C163  1.513265 S    
C185  C186  1.525525 S    
C138  H82   1.110808 S    
C135  H78   1.112167 S    
Zn10  O2    1.957686 S    
C120  H43   1.111775 S    
C60   C91   1.398303 A    
C155  C156  1.531956 S    
O52   C24   1.268197 A    
Zn3   O1    1.940906 S    
O43   C19   1.278482 A    
C25   C44   1.419006 A    
C152  H116  1.108782 S    
O41   C19   1.282265 A    
C26   C34   1.401460 A    
C148  H106  1.107697 S    
O37   C17   1.279652 A    
C56   C80   1.397231 A    
C144  H97   1.111098 S    
C174  H168  1.111331 S    
C57   C81   1.392221 A    
C61   C69   1.394692 A    
C60   C84   1.394798 A    
C156  H126  1.110518 S    
C81   C161  1.514602 S    
C14   C99   1.455522 S    
C15   C98   1.453636 S    
C177  H175  1.109964 S    
C74   C90   1.415392 A    
C31   C46   1.416922 A    
Zn4   O9    1.938028 S    
C153  H125  1.110254 S    
C169  H166  1.109454 S    
C180  H182  1.111363 S    
C190  H216  1.107144 S    
C189  H204  1.111073 S    
C191  H214  1.110004 S    
Zn11  O26   1.935401 S    
C119  H45   1.112355 S    
C184  H201  1.107078 S    
C78   C155  1.525909 S    
C132  H70   1.112155 S    
C183  H190  1.110997 S    
C1    C88   1.456111 S    
C133  H69   1.110396 S    
C2    C87   1.456369 S    
Zn13  O41   1.932641 S    
C159  C160  1.528098 S    
C37   C131  1.516061 S    
C171  H161  1.108195 S    
C123  C124  1.524455 S    
C130  H60   1.110911 S    
Zn16  O44   1.935924 S    
C75   C149  1.510576 S    
C165  H154  1.112184 S    
C117  H35   1.110655 S    
C55   H11   1.085153 S    
C185  H200  1.109130 S    
C134  H79   1.112523 S    
C141  H94   1.112007 S    
C142  H93   1.110553 S    
C101  C104  1.413600 A    
C124  H46   1.109837 S    
C27   C35   1.402288 A    
C126  H56   1.111167 S    
C37   C40   1.412137 A    
C32   C40   1.401835 A    
C188  C189  1.525260 S    
C162  H143  1.109733 S    
O38   C18   1.281426 A    
C151  C152  1.529054 S    
C141  H95   1.109630 S    
O50   C24   1.271360 A    
C118  H32   1.110627 S    
C48   C52   1.416785 A    
O5    C1    1.277804 A    
C123  H49   1.111847 S    
C140  H86   1.108722 S    
C114  H29   1.110817 S    
C66   C74   1.401264 A    
Zn4   O6    1.942196 S    
C63   H19   1.084881 S    
C160  H136  1.108948 S    
C148  H108  1.109130 S    
O47   C21   1.270714 A    
C158  H132  1.110905 S    
C16   C97   1.456023 S    
C173  C174  1.526718 S    
C174  H170  1.110329 S    
C67   C75   1.391740 A    
C131  H72   1.108672 S    
C121  H40   1.110998 S    
C156  H128  1.109352 S    
C47   C51   1.415559 A    
C71   C87   1.413458 A    
C160  H138  1.109687 S    
C63   C96   1.398892 A    
C162  H141  1.111099 S    
C179  C180  1.527087 S    
O8    C4    1.268943 A    
C180  H184  1.108238 S    
C27   H3    1.079671 S    
C168  H157  1.111113 S    
C126  C127  1.524257 S    
C32   H8    1.080692 S    
C35   C113  1.516274 S    
C150  H111  1.110541 S    
C69   C137  1.529996 S    
C55   C88   1.396375 A    
Zn1   O7    1.941031 S    
C64   C72   1.394789 A    
C137  H85   1.110514 S    
Zn1   O1    1.937163 S    
C143  H99   1.112178 S    
C43   C49   1.416658 A    
C144  H98   1.109023 S    
C63   C71   1.395603 A    
C29   C37   1.401985 A    
C169  C170  1.539608 S    
C30   C47   1.416387 A    
O9    C5    1.281093 A    
C182  H192  1.111693 S    
C34   C35   1.412463 A    
C164  H147  1.111043 S    
Zn3   O5    1.942194 S    
Zn15  O34   1.935401 S    
C151  H120  1.108282 S    
C62   C93   1.397853 A    
O13   C9    1.282622 A    
C191  C192  1.525368 S    
C186  H196  1.110406 S    
C124  H48   1.110327 S    
C115  H26   1.110570 S    
C9    C96   1.457377 S    
C10   C95   1.457584 S    
O18   C14   1.279795 A    
C104  C109  1.418754 A    
C7    C90   1.455618 S    
O6    C2    1.280672 A    
C8    C89   1.458487 S    
C179  H185  1.111597 S    
C83   C165  1.514244 S    
C11   C94   1.458926 S    
C80   C159  1.519497 S    
C139  H90   1.104796 S    
C134  C135  1.533168 S    
O48   C22   1.270517 A    
C116  H38   1.108853 S    
C41   C49   1.415731 A    
C115  H25   1.110949 S    
Zn14  O30   1.931808 S    
C118  H34   1.110369 S    
Zn15  O3    1.951208 S    
C3    C86   1.455434 S    
C177  H176  1.110694 S    
C176  C177  1.524673 S    
C140  H88   1.109353 S    
C70   C139  1.516352 S    
C154  H122  1.110726 S    
C146  H102  1.110158 S    
Zn4   O46   1.931855 S    
O24   C5    1.272508 A    
C105  C112  1.417280 A    
C182  C183  1.526176 S    
C45   C51   1.417379 A    
Zn1   O12   1.940731 S    
C122  C123  1.535943 S    
Zn2   O11   1.940732 S    
C72   C88   1.414221 A    
C175  H180  1.109650 S    
Zn8   O14   1.942196 S    
C146  H103  1.107001 S    
C192  H211  1.110734 S    
C102  C103  1.412823 A    
C113  H30   1.110473 S    
C34   C122  1.517564 S    
C129  H63   1.112014 S    
C178  H187  1.106771 S    
C150  H113  1.108985 S    
C187  H208  1.108077 S    
C142  H92   1.110750 S    
C145  H105  1.109496 S    
C159  H139  1.112086 S    
C127  H54   1.110886 S    
O44   C20   1.279554 A    
Zn14  O42   1.932641 S    
Zn13  O3    1.957684 S    
C155  H130  1.108341 S    
C184  C185  1.542320 S    
Zn14  O4    1.957686 S    
C29   H5    1.081573 S    
C167  H159  1.112086 S    
O19   C15   1.276781 A    
C163  H149  1.111563 S    
C31   H7    1.080568 S    
C153  C154  1.532669 S    
C67   C100  1.394623 A    
C101  C110  1.418776 A    
C144  H96   1.109704 S    
C172  H173  1.106790 S    
O39   C17   1.281988 A    
C105  C108  1.414995 A    
C141  C142  1.526067 S    
Zn12  O25   1.935402 S    
O7    C3    1.275214 A    
Zn7   O49   1.931855 S    
Zn13  O36   1.935165 S    
C181  H195  1.106491 S    
Zn14  O35   1.935163 S    
C133  H67   1.110573 S    
C186  H198  1.110371 S    
C78   C94   1.417451 A    
O51   C23   1.268495 A    
O28   C1    1.279882 A    
C147  H109  1.110533 S    
C29   C48   1.416874 A    
C18   C109  1.455667 S    
C82   C98   1.410227 A    
C176  H179  1.110055 S    
O21   C8    1.282644 A    
C33   C36   1.414036 A    
C188  H206  1.111501 S    
Zn7   O18   1.938029 S    
Zn9   O37   1.932641 S    
O12   C8    1.274894 A    
C149  H115  1.105471 S    
Zn11  O39   1.935924 S    
C107  C187  1.531832 S    
Zn11  O1    1.951208 S    
C114  C115  1.526876 S    
Zn15  O43   1.935924 S    
C170  H164  1.109487 S    
C36   C116  1.518415 S    
C105  C181  1.534683 S    
C27   C42   1.418271 A    
C152  H118  1.110050 S    
C162  H142  1.109737 S    
C153  H124  1.109442 S    
C67   H23   1.085244 S    
C167  C168  1.529202 S    
Zn5   O3    1.937163 S    
Zn6   O4    1.937164 S    
C125  H59   1.110835 S    
C119  H44   1.105551 S    
C65   C73   1.400334 A    
C130  H62   1.110272 S    
C149  C150  1.527741 S    
C132  H71   1.111834 S    
C133  H68   1.110044 S    
C145  C146  1.533584 S    
C138  H81   1.110529 S    
C54   C78   1.394342 A    
C59   H15   1.085044 S    
O26   C3    1.275748 A    
C104  C178  1.535334 S    
C76   C151  1.520996 S    
C122  H52   1.112366 S    
C108  C190  1.532100 S    
O30   C15   1.277983 A    
C30   H6    1.081386 S    
C128  H66   1.112999 S    
C135  H77   1.111892 S    
C106  C111  1.418083 A    
C46   C52   1.417718 A    
C171  H163  1.110456 S    
Zn8   O50   1.931855 S    
Zn2   O2    1.937164 S    
Zn15  O31   1.934266 S    
C183  H189  1.110004 S    
C166  H151  1.110188 S    
Zn16  O32   1.934265 S    
C175  C176  1.537746 S    
C168  H156  1.109990 S    
C103  C110  1.417788 A    
C171  H162  1.110726 S    
C113  C114  1.533355 S    
O32   C13   1.277262 A    
C176  H178  1.109753 S    
Zn8   O4    1.940904 S    
C68   C76   1.395806 A    
C53   C77   1.399733 A    
C139  C140  1.531459 S    
C80   C96   1.417160 A    
C83   C99   1.413902 A    
C149  H114  1.112013 S    
C84   C100  1.413074 A    
C191  H213  1.109826 S    
C120  H42   1.111280 S    
C58   H14   1.084855 S    
O31   C14   1.274537 A    
C123  H50   1.112155 S    
C102  C109  1.418084 A    
C161  H145  1.112057 S    
C114  H28   1.112006 S    
C75   C91   1.415119 A    
C157  C158  1.527479 S    
C76   C92   1.417626 A    
C172  C173  1.535532 S    
C106  C107  1.411958 A    
C174  H169  1.110804 S    
C131  C132  1.533325 S    
C45   C48   1.405525 A    
Zn6   O52   1.933740 S    
C157  H134  1.111955 S    
C156  H127  1.110298 S    
C160  H137  1.110881 S    
C4    C85   1.458910 S    
Zn1   O47   1.933740 S    
Zn2   O48   1.933740 S    
C155  H129  1.110847 S    
O22   C7    1.278846 A    
C180  H183  1.110723 S    
C189  H205  1.108935 S    
C173  H172  1.110465 S    
C70   C86   1.412719 A    
C28   H4    1.079550 S    
C56   H12   1.084584 S    
C102  C172  1.534275 S    
C57   H13   1.084981 S    
C117  C118  1.528496 S    
C150  H112  1.110894 S    
C183  H191  1.109245 S    
C5    C92   1.453996 S    
C6    C91   1.455915 S    
C148  H107  1.110700 S    
C137  H84   1.110972 S    
C143  H100  1.105624 S    
C130  H61   1.110625 S    
C59   C83   1.392273 A    
C13   C100  1.453273 S    
C57   C90   1.396493 A    
C190  C191  1.538506 S    
C12   C93   1.459703 S    
C129  C130  1.526483 S    
Zn9   O21   1.931807 S    
C119  C120  1.534834 S    
C182  H193  1.110799 S    
C185  H199  1.111665 S    
C135  C136  1.525752 S    
Zn11  O23   1.934266 S    
C134  H80   1.108004 S    
C164  H146  1.109599 S    
Zn12  O40   1.935924 S    
O25   C4    1.283770 A    
Zn9   O1    1.957684 S    
C120  C121  1.526816 S    
O27   C2    1.276735 A    
C74   C147  1.525162 S    
C124  H47   1.110188 S    
Zn2   O8    1.941029 S    
C136  H76   1.110237 S    
O29   C16   1.279215 A    
C58   C89   1.397890 A    
C128  C129  1.532642 S    
C166  H153  1.106948 S    
C163  C164  1.529399 S    
C161  C162  1.526954 S    
C179  H186  1.109887 S    
Zn9   O28   1.935165 S    
Zn10  O27   1.935163 S    
C23   C52   1.452373 S    
C39   C125  1.513079 S    
C32   C45   1.416658 A    
C116  H37   1.113809 S    
C137  C138  1.529218 S    
C127  H53   1.110958 S    
O15   C11   1.272417 A    
C118  H33   1.110573 S    
C79   C95   1.414782 A    
C73   C89   1.419148 A    
C147  C148  1.531478 S    
C77   C93   1.416751 A    
C140  H87   1.109903 S    
C44   C50   1.420405 A    
O20   C16   1.276862 A    
C108  C111  1.419916 A    
O46   C22   1.268812 A    
C81   C97   1.413241 A    
C158  H131  1.110482 S    
O10   C6    1.274481 A    
Zn8   O17   1.938028 S    
C20   C111  1.456185 S    
Zn10  O38   1.932641 S    
C117  H36   1.112393 S    
C132  C133  1.526131 S    
C56   C87   1.398497 A    
O14   C10   1.277010 A    
C131  H73   1.112622 S    
C121  H41   1.110377 S    
C72   C143  1.513286 S    
C21   C50   1.452886 S    
Zn12  O2    1.951206 S    
C170  C171  1.524979 S    
C136  H74   1.109639 S    
O17   C13   1.275925 A    
O36   C9    1.275481 A    
Zn5   O15   1.941031 S    
