data_mof_unit_54409.cif
_audit_creation_date              2012-12-10T19:10:07-0500
_audit_creation_method            fapswitch 2.2
_symmetry_space_group_name_H-M    P1
_symmetry_Int_Tables_number       1
_space_group_crystal_system       triclinic
_cell_length_a                    10.850695
_cell_length_b                    10.83308
_cell_length_c                    9.555266
_cell_angle_alpha                 90.265353
_cell_angle_beta                  91.095574
_cell_angle_gamma                 90.457689
_cell_volume                      1122.93355582

loop_
_atom_site_label
_atom_site_type_symbol
_atom_type_description
_atom_site_fract_x
_atom_site_fract_y
_atom_site_fract_z
_atom_type_partial_charge
C1    C     C_R   0.495337 0.262367 0.499334 0.791575
C2    C     C_R   0.241055 0.847014 0.151216 -0.131620
C3    C     C_R   0.932937 0.565035 0.398031 -0.254876
C4    C     C_R   0.872684 0.501390 0.504844 -0.074021
C5    C     C_R   0.943352 0.444117 0.612144 0.001476
C6    C     C_R   0.069450 0.432042 0.594991 -0.265989
C7    C     C_R   0.129253 0.499386 0.492626 -0.078729
C8    C     C_R   0.061196 0.570643 0.395605 -0.000144
C9    C     C_R   0.944275 0.484515 0.872471 0.169718
C10   C     C_R   0.914826 0.443734 0.007376 -0.179331
C11   C     C_R   0.836419 0.342854 0.025693 -0.150332
C12   C     C_R   0.262642 0.501470 0.498057 0.800824
C13   C     C_R   0.789102 0.278561 0.909852 -0.141650
C14   C     C_R   0.820717 0.314026 0.774574 -0.129192
C15   C     C_R   0.897831 0.416804 0.754093 0.078506
C16   C     C_R   0.458576 0.064194 0.619594 0.120674
C17   C     C_R   0.479029 0.129337 0.496432 -0.096946
C18   C     C_R   0.482159 0.063792 0.369168 -0.239627
C19   C     C_R   0.484459 0.935127 0.369683 -0.208875
C20   C     C_R   0.483086 0.870889 0.497312 -0.092141
C21   C     C_R   0.461990 0.936798 0.620140 0.130289
C22   C     C_3   0.532366 0.934718 0.755574 -0.485788
C23   C     C_R   0.497161 0.737769 0.499797 0.801531
C24   C     C_3   0.525746 0.073991 0.756597 -0.477523
C25   C     C_R   0.540855 0.600811 0.075306 0.264942
C26   C     C_R   0.447037 0.406254 0.072700 -0.099962
C27   C     C_R   0.446991 0.406284 0.923929 -0.080818
C28   C     C_R   0.540005 0.601225 0.927896 0.239999
C29   C     C_3   0.665814 0.655718 0.926324 -0.502721
C30   C     C_3   0.666631 0.655543 0.084787 -0.500852
C31   C     C_R   0.738090 0.500203 0.501799 0.788032
C32   C     C_R   0.177877 0.880187 0.271569 -0.118479
C33   C     C_R   0.117980 0.789822 0.349814 -0.172644
C34   C     C_R   0.120440 0.665513 0.307665 0.089989
C35   C     C_R   0.182388 0.633141 0.185443 -0.075422
C36   C     C_R   0.243882 0.723574 0.108676 -0.128737
Cu1   Cu    Cu3+1 0.499990 0.499980 0.640670 0.938111
Cu2   Cu    Cu3+1 0.500010 0.500020 0.359330 0.938812
H1    H     H_    0.288144 0.916865 0.091186 0.114904
H2    H     H_    0.813034 0.313876 0.130234 0.149414
H3    H     H_    0.730258 0.199275 0.926169 0.128632
H4    H     H_    0.787061 0.260324 0.685721 0.116510
H5    H     H_    0.490733 0.111234 0.270253 0.158532
H6    H     H_    0.494234 0.886911 0.271028 0.163735
H7    H     H_    0.479682 0.890548 0.840831 0.193573
H8    H     H_    0.628034 0.902013 0.741377 0.190724
H9    H     H_    0.467087 0.111032 0.840822 0.184808
H10   H     H_    0.617044 0.119086 0.746081 0.196187
H11   H     H_    0.405779 0.329354 0.126828 0.133728
H12   H     H_    0.176331 0.975760 0.304970 0.132715
H13   H     H_    0.405306 0.329702 0.867199 0.134590
H14   H     H_    0.731700 0.591512 0.879194 0.248558
H15   H     H_    0.667739 0.749756 0.883159 0.181987
H16   H     H_    0.735083 0.591479 0.131157 0.221720
H17   H     H_    0.666667 0.749705 0.131487 0.185520
H18   H     H_    0.070893 0.816379 0.444128 0.127703
H19   H     H_    0.184953 0.537743 0.151321 0.120402
H20   H     H_    0.292655 0.698211 0.015277 0.111252
H21   H     H_    0.880184 0.618132 0.322395 0.141052
H22   H     H_    0.123102 0.382534 0.673362 0.153367
H23   H     H_    0.951912 0.490805 0.099079 0.144656
N1    N     N_R   0.500790 0.500930 0.147930 -0.180446
N2    N     N_R   0.500790 0.500890 0.852020 -0.177739
O1    O     O_R   0.500000 0.319640 0.618810 -0.584969
O2    O     O_R   0.500010 0.319680 0.381230 -0.590954
O3    O     O_R   0.319640 0.499990 0.618790 -0.591377
O4    O     O_R   0.319650 0.500030 0.381210 -0.581471
O5    O     O_R   0.499990 0.680320 0.618770 -0.580996
O6    O     O_R   0.500000 0.680360 0.381190 -0.580017
O7    O     O_R   0.680350 0.499970 0.618790 -0.574163
O8    O     O_R   0.680360 0.500010 0.381210 -0.583234
C37   C     C_3   0.027936 0.597294 0.859018 -0.422641
C38   C     C_3   0.973890 0.714057 0.922928 -0.834936
H24   H     H_    0.893664 0.744913 0.859115 0.247555
H25   H     H_    0.946232 0.699641 0.032855 0.261437
H26   H     H_    0.043895 0.789286 0.921455 0.248890
H27   H     H_    0.117941 0.576418 0.909615 0.198083
H28   H     H_    0.047329 0.620926 0.749201 0.224655

loop_
_geom_bond_atom_site_label_1
_geom_bond_atom_site_label_2
_ccdc_geom_bond_type
C16   C21   A    
C38   H24   S    
C23   O6    A    
C35   C36   A    
C9    C37   S    
C13   H3    S    
C7    C8    A    
C25   C28   A    
C30   H16   S    
C26   C27   A    
Cu1   Cu2   S    
C28   C29   S    
C18   C19   A    
C36   H20   S    
C5    C6    A    
Cu1   O5    S    
C2    C32   A    
C34   C35   A    
C37   H28   S    
C37   H27   S    
C2    H1    S    
C31   O7    A    
C19   C20   A    
C16   C17   A    
C1    O2    A    
C20   C23   S    
C9    C10   A    
C14   H4    S    
C33   H18   S    
C31   O8    A    
Cu2   O6    S    
C16   C24   S    
C21   C22   S    
C38   H25   S    
Cu1   N2    S    
C27   H13   S    
C17   C18   A    
C7    C12   S    
C12   O4    A    
C24   H10   S    
C6    H22   S    
C3    C8    A    
C26   H11   S    
C37   C38   S    
C12   O3    A    
C23   O5    A    
C29   C30   S    
Cu2   O2    S    
Cu1   O3    S    
C33   C34   A    
C8    C34   S    
C20   C21   A    
C32   H12   S    
C27   N2    A    
C22   H8    S    
C38   H26   S    
C22   C24   S    
C10   H23   S    
C3    C4    A    
C1    O1    A    
Cu1   O1    S    
C19   H6    S    
C2    C36   A    
C25   C30   S    
Cu2   O8    S    
C24   H9    S    
C4    C5    A    
C6    C7    A    
C30   H17   S    
C1    C17   S    
C35   H19   S    
Cu1   O7    S    
C32   C33   A    
C26   N1    A    
C18   H5    S    
C11   C13   A    
C29   H15   S    
C25   N1    A    
C9    C15   A    
C11   H2    S    
C5    C15   S    
C4    C31   S    
C10   C11   A    
C28   N2    A    
C22   H7    S    
Cu2   O4    S    
C14   C15   A    
C13   C14   A    
Cu2   N1    S    
C29   H14   S    
C3    H21   S    
