data_mof_unit_6050.cif
_audit_creation_date              2012-12-10T18:07:33-0500
_audit_creation_method            fapswitch 2.2
_symmetry_space_group_name_H-M    P1
_symmetry_Int_Tables_number       1
_space_group_crystal_system       triclinic
_cell_length_a                    11.503738
_cell_length_b                    12.733284
_cell_length_c                    13.154732
_cell_angle_alpha                 82.42317
_cell_angle_beta                  91.986327
_cell_angle_gamma                 102.089239
_cell_volume                      1867.67585052

loop_
_atom_site_label
_atom_site_type_symbol
_atom_type_description
_atom_site_fract_x
_atom_site_fract_y
_atom_site_fract_z
_atom_type_partial_charge
C1    C     C_R   0.479231 0.439505 0.690508 0.917572
C2    C     C_R   0.519007 0.595357 0.199233 -0.061577
C3    C     C_R   0.463657 0.294734 0.837129 -0.347118
C4    C     C_R   0.460148 0.260888 0.943124 0.559966
C5    C     C_R   0.467133 0.339077 0.009148 -0.213749
C6    C     C_R   0.461712 0.447493 0.971399 -0.048992
C7    C     C_R   0.434460 0.472056 0.867025 -0.007899
C8    C     C_R   0.479622 0.531924 0.033768 0.105822
C9    C     C_R   0.458870 0.635397 0.993635 0.107323
C10   C     C_R   0.410608 0.651027 0.895936 -0.253819
C11   C     C_R   0.391570 0.567864 0.835141 0.391504
C12   C     C_R   0.717480 0.500843 0.500414 0.880820
C13   C     C_R   0.517627 0.516556 0.135085 -0.239083
C14   C     C_R   0.506969 0.699543 0.157928 -0.140254
C15   C     C_R   0.453727 0.400738 0.798872 -0.122448
C16   C     C_R   0.393465 0.113327 0.310606 0.427301
C17   C     C_R   0.618847 0.792594 0.644116 -0.031475
C18   C     C_R   0.641397 0.893419 0.678503 0.347716
C19   C     C_R   0.602868 0.979343 0.620514 -0.237343
C20   C     C_R   0.540746 0.965072 0.527205 -0.057402
C21   C     C_R   0.518753 0.860273 0.494290 0.147870
C22   C     C_R   0.494905 0.049804 0.467695 -0.038630
C23   C     C_R   0.515925 0.560358 0.309059 0.888080
C24   C     C_R   0.447618 0.035164 0.368242 0.010516
C25   C     C_R   0.444187 0.938392 0.331066 -0.255959
C26   C     C_R   0.458581 0.848637 0.397676 0.348194
C27   C     C_R   0.490917 0.148143 0.503355 -0.043874
C28   C     C_R   0.392794 0.208066 0.351148 -0.111523
C29   C     C_R   0.282478 0.499037 0.499513 0.976180
C30   C     C_1   0.838621 0.502357 0.500490 -0.156445
C31   C     C_1   0.940812 0.501226 0.500011 0.024601
C32   C     C_1   0.059146 0.498714 0.499270 0.048249
C33   C     C_1   0.161313 0.497512 0.498990 -0.083148
C34   C     C_R   0.478794 0.719745 0.054534 -0.135075
H1    H     H_    0.513960 0.763503 0.205689 0.177849
H2    H     H_    0.405611 0.926854 0.255795 0.217983
H3    H     H_    0.528301 0.169019 0.576019 0.132926
H4    H     H_    0.648357 0.725652 0.689313 0.171861
H5    H     H_    0.624327 0.056520 0.649453 0.169701
H6    H     H_    0.381699 0.725726 0.868981 0.181578
H7    H     H_    0.467180 0.799455 0.023067 0.147576
H8    H     H_    0.541633 0.441731 0.167414 0.157640
H9    H     H_    0.476564 0.239273 0.784892 0.157287
H10   H     H_    0.471752 0.311159 0.089923 0.176326
H11   H     H_    0.358410 0.272615 0.306636 0.156605
N1    N     N_R   0.440320 0.222190 0.444690 -0.130049
N2    N     N_R   0.559060 0.776980 0.554780 -0.137137
O1    O     O_R   0.471500 0.366730 0.627160 -0.625059
O2    O     O_R   0.509620 0.544830 0.662520 -0.600962
O3    O     O_R   0.646490 0.410960 0.482310 -0.605149
O4    O     O_R   0.684610 0.589050 0.517670 -0.611750
O5    O     O_R   0.490380 0.455170 0.337480 -0.633268
O6    O     O_R   0.528500 0.633270 0.372840 -0.582404
O7    O     O_R   0.315390 0.410950 0.482330 -0.633424
O8    O     O_R   0.353510 0.589040 0.517690 -0.496270
Zn1   Zn    Zn3+2 0.474550 0.381080 0.476390 0.949843
Zn2   Zn    Zn3+2 0.525450 0.618920 0.523610 1.021630
O9    O     O_3   0.346410 0.098562 0.213722 -0.604038
C35   C     C_3   0.222507 0.096411 0.211285 0.088832
H12   H     H_    0.184247 0.106571 0.285399 0.126252
H13   H     H_    0.175279 0.016198 0.191646 0.172910
C36   C     C_3   0.195012 0.183576 0.128617 -0.803231
H14   H     H_    0.224861 0.170732 0.052741 0.269753
H15   H     H_    0.097720 0.180097 0.124967 0.223644
H16   H     H_    0.240857 0.264962 0.146291 0.241744
Cl1   Cl    Cl    0.716563 0.911687 0.795295 -0.620216
Cl2   Cl    Cl    0.347216 0.741402 0.366537 -0.633013
O10   O     O_3   0.462293 0.155601 0.986476 -0.580970
C37   C     C_3   0.398018 0.077109 0.927487 0.105038
H17   H     H_    0.459024 0.058405 0.871839 0.165232
H18   H     H_    0.320794 0.103195 0.885507 0.129662
C38   C     C_3   0.349007 0.974252 0.998398 -0.739762
H19   H     H_    0.271543 0.984906 0.040712 0.254428
H20   H     H_    0.319472 0.905791 0.952886 0.197119
H21   H     H_    0.418172 0.955522 0.054719 0.265317
Cl3   Cl    Cl    0.288316 0.576499 0.734347 -0.617934

loop_
_geom_bond_atom_site_label_1
_geom_bond_atom_site_label_2
_ccdc_geom_bond_type
C16   C28   A    
C21   C26   A    
C8    C13   A    
C19   C20   A    
C7    C11   A    
C28   N1    A    
C26   Cl2   S    
C11   Cl3   S    
C5    C6    A    
C29   O7    A    
C29   C33   S    
O2    Zn2   S    
C10   H6    S    
C18   C19   A    
C37   H18   S    
C2    C13   A    
C36   H15   S    
O10   C37   S    
C8    C9    A    
C1    C15   S    
C9    C10   A    
C7    C15   A    
C35   H12   S    
C16   C24   A    
C34   H7    S    
C38   H21   S    
C13   H8    S    
C23   O6    A    
O7    Zn1   S    
C28   H11   S    
C35   H13   S    
C24   C25   A    
C38   H20   S    
C14   H1    S    
C4    O10   S    
O6    Zn2   S    
C38   H19   S    
C6    C8    A    
C29   O8    A    
C25   C26   A    
O3    Zn1   S    
C37   C38   S    
C36   H14   S    
N2    Zn2   S    
C31   C32   S    
C3    H9    S    
C17   C18   A    
C16   O9    S    
C19   H5    S    
O4    Zn2   S    
C27   N1    A    
C5    H10   S    
C20   C22   A    
C22   C27   A    
O8    Zn2   S    
C9    C34   A    
C22   C24   A    
C3    C4    A    
C12   O4    A    
C3    C15   A    
O1    Zn1   S    
C35   C36   S    
C36   H16   S    
C12   C30   S    
C17   N2    A    
C4    C5    A    
C14   C34   A    
C12   O3    A    
C1    O1    A    
C6    C7    A    
C18   Cl1   S    
C32   C33   T    
O9    C35   S    
C23   O5    A    
C30   C31   T    
C27   H3    S    
C17   H4    S    
C37   H17   S    
C2    C14   A    
C10   C11   A    
C25   H2    S    
C20   C21   A    
N1    Zn1   S    
C2    C23   S    
C1    O2    A    
O5    Zn1   S    
C21   N2    A    
