data_mof_unit_23698.cif
_audit_creation_date              2012-12-11T14:38:16-0500
_audit_creation_method            fapswitch 2.2
_symmetry_space_group_name_H-M    P1
_symmetry_Int_Tables_number       1
_space_group_crystal_system       triclinic
_cell_length_a                    19.658062
_cell_length_b                    10.994824
_cell_length_c                    19.777771
_cell_angle_alpha                 89.941705
_cell_angle_beta                  96.186136
_cell_angle_gamma                 89.605896
_cell_volume                      4249.70823161

loop_
_atom_site_label
_atom_site_type_symbol
_atom_type_description
_atom_site_fract_x
_atom_site_fract_y
_atom_site_fract_z
_atom_type_partial_charge
C1    C     C_R   0.723840 0.952232 0.360085 0.536895
C2    C     C_R   0.291811 0.991901 0.632697 0.546090
C3    C     C_R   0.223840 0.452232 0.360085 0.536895
C4    C     C_R   0.791811 0.491902 0.632697 0.546090
C5    C     C_3   0.680458 0.372360 0.475451 -0.263084
C6    C     C_3   0.320367 0.396883 0.535138 -0.236953
C7    C     C_3   0.180458 0.872363 0.475450 -0.263083
C8    C     C_3   0.820367 0.896877 0.535138 -0.236952
C9    C     C_3   0.807505 0.527931 0.508870 -0.257767
C10   C     C_3   0.190906 0.517488 0.470907 -0.206046
C11   C     C_3   0.307508 0.027928 0.508870 -0.257765
C12   C     C_3   0.690909 0.017491 0.470908 -0.206048
C13   C     C_3   0.814955 0.314775 0.552102 -0.093432
C14   C     C_3   0.206584 0.293262 0.449789 -0.111294
C15   C     C_3   0.314953 0.814772 0.552103 -0.093430
C16   C     C_3   0.706581 0.793264 0.449789 -0.111293
C17   C     C_3   0.778887 0.442657 0.561952 0.058253
C18   C     C_3   0.232598 0.422784 0.432553 0.080189
C19   C     C_3   0.278887 0.942657 0.561951 0.058252
C20   C     C_3   0.732598 0.922784 0.432553 0.080187
C21   C     C_3   0.744696 0.364975 0.437864 0.047503
C22   C     C_3   0.250282 0.389819 0.564196 0.042737
C23   C     C_3   0.244696 0.864975 0.437864 0.047503
C24   C     C_3   0.750282 0.889819 0.564196 0.042738
C25   C     C_3   0.777468 0.491827 0.436099 -0.222764
C26   C     C_3   0.210887 0.509471 0.548669 -0.263341
C27   C     C_3   0.277471 0.991824 0.436099 -0.222762
C28   C     C_3   0.710890 0.009474 0.548669 -0.263342
C29   C     C_3   0.800126 0.280629 0.476977 -0.212101
C30   C     C_3   0.204117 0.288420 0.526623 -0.200114
C31   C     C_3   0.300124 0.780625 0.476978 -0.212104
C32   C     C_3   0.704114 0.788423 0.526623 -0.200114
C33   C     C_3   0.482928 0.313418 0.963595 -0.132007
C34   C     C_3   0.511446 0.307928 0.037771 -0.117906
C35   C     C_3   0.982916 0.813422 0.963598 -0.131994
C36   C     C_3   0.011446 0.807923 0.037770 -0.117870
C37   C     C_3   0.411196 0.126269 0.975188 -0.158207
C38   C     C_3   0.550340 0.086237 0.030881 -0.175907
C39   C     C_3   0.911198 0.626252 0.975187 -0.158217
C40   C     C_3   0.050339 0.586233 0.030878 -0.175901
C41   C     C_3   0.536039 0.097355 0.952309 0.496772
C42   C     C_3   0.426625 0.131312 0.054199 0.491438
C43   C     C_3   0.036044 0.597373 0.952306 0.496773
C44   C     C_3   0.926625 0.631307 0.054198 0.491437
C45   C     C_R   0.536083 0.180316 0.338887 0.524166
C46   C     C_R   0.463999 0.180013 0.661160 0.529713
C47   C     C_R   0.036083 0.680316 0.338887 0.524165
C48   C     C_R   0.963999 0.680013 0.661160 0.529714
C49   C     C_3   0.468998 0.179866 0.937136 0.011132
C50   C     C_3   0.504965 0.173811 0.068104 -0.006682
C51   C     C_3   0.968996 0.679867 0.937136 0.011140
C52   C     C_3   0.004965 0.673807 0.068103 -0.006688
C53   C     C_1   0.776174 0.462794 0.912578 -0.031085
C54   C     C_1   0.235663 0.432674 0.093718 -0.021468
C55   C     C_1   0.276174 0.962790 0.912578 -0.031077
C56   C     C_1   0.735661 0.932681 0.093716 -0.021487
C57   C     C_1   0.757038 0.422927 0.039623 0.004832
C58   C     C_1   0.249213 0.411315 0.963846 -0.048669
C59   C     C_1   0.257041 0.922925 0.039625 0.004821
C60   C     C_1   0.749204 0.911328 0.963841 -0.048649
C61   C     C_1   0.766307 0.443718 0.970764 -0.017393
C62   C     C_1   0.243483 0.421955 0.034302 -0.024479
C63   C     C_1   0.266309 0.943714 0.970765 -0.017394
C64   C     C_1   0.743478 0.921966 0.034299 -0.024517
C65   C     C_1   0.748412 0.401155 0.097873 -0.022138
C66   C     C_1   0.254042 0.395423 0.904133 -0.057854
C67   C     C_1   0.248413 0.901160 0.097874 -0.022122
C68   C     C_1   0.754033 0.895435 0.904128 -0.057802
C69   C     C_R   0.727555 0.318847 0.368218 0.547502
C70   C     C_R   0.260661 0.360954 0.637888 0.536770
C71   C     C_R   0.227555 0.818846 0.368218 0.547502
C72   C     C_R   0.760661 0.860954 0.637888 0.536767
C73   C     C_R   0.721186 0.956471 0.162200 0.526496
C74   C     C_R   0.292220 0.991753 0.845326 0.534393
C75   C     C_R   0.221186 0.456470 0.162200 0.526497
C76   C     C_R   0.792221 0.491754 0.845326 0.534391
C77   C     C_R   0.531882 0.179271 0.140856 0.520551
C78   C     C_R   0.443811 0.182630 0.863900 0.528233
C79   C     C_R   0.031883 0.679270 0.140856 0.520538
C80   C     C_R   0.943809 0.682630 0.863899 0.528232
C81   C     C_R   0.736865 0.360366 0.164581 0.529829
C82   C     C_R   0.263382 0.359329 0.835861 0.517029
C83   C     C_R   0.236865 0.860369 0.164582 0.529822
C84   C     C_R   0.763379 0.859334 0.835859 0.517018
C85   C     C_1   0.485220 0.172207 0.594041 -0.038571
C86   C     C_1   0.514948 0.172683 0.406031 -0.041636
C87   C     C_1   0.985220 0.672207 0.594041 -0.038571
C88   C     C_1   0.014948 0.672683 0.406031 -0.041635
C89   C     C_1   0.504599 0.169272 0.465050 -0.076263
C90   C     C_1   0.495634 0.169056 0.535034 -0.075756
C91   C     C_1   0.004599 0.669272 0.465050 -0.076263
C92   C     C_1   0.995634 0.669056 0.535034 -0.075757
C93   C     C_3   0.699573 0.426036 0.545836 -0.233532
C94   C     C_3   0.310206 0.427063 0.459041 -0.263748
C95   C     C_3   0.199572 0.926041 0.545835 -0.233532
C96   C     C_3   0.810206 0.927058 0.459040 -0.263749
Cr1   Cr    Cr6+3 0.765780 0.160710 0.267420 0.991987
Cr2   Cr    Cr6+3 0.234220 0.160710 0.732580 0.994558
Cr3   Cr    Cr6+3 0.265780 0.660710 0.267420 0.991985
Cr4   Cr    Cr6+3 0.734220 0.660710 0.732580 0.994557
Cr5   Cr    Cr6+3 0.612200 0.009560 0.248850 0.964433
Cr6   Cr    Cr6+3 0.387800 0.009560 0.751150 1.000717
Cr7   Cr    Cr6+3 0.112200 0.509560 0.248850 0.964437
Cr8   Cr    Cr6+3 0.887800 0.509560 0.751150 1.000728
Cr9   Cr    Cr6+3 0.616030 0.323720 0.248510 0.979466
Cr10  Cr    Cr6+3 0.383970 0.323720 0.751490 0.973115
Cr11  Cr    Cr6+3 0.116030 0.823720 0.248510 0.979485
Cr12  Cr    Cr6+3 0.883970 0.823720 0.751490 0.973121
H1    H     H_    0.671953 0.513822 0.548808 0.124571
H2    H     H_    0.333164 0.516081 0.449632 0.127422
H3    H     H_    0.171953 0.013828 0.548806 0.124569
H4    H     H_    0.833165 0.016076 0.449633 0.127422
H5    H     H_    0.847167 0.291237 0.451597 0.154895
H6    H     H_    0.150818 0.303178 0.538656 0.135918
H7    H     H_    0.347165 0.791228 0.451597 0.154895
H8    H     H_    0.650815 0.803187 0.538656 0.135918
H9    H     H_    0.863869 0.517637 0.511507 0.121284
H10   H     H_    0.135570 0.498529 0.461469 0.127713
H11   H     H_    0.363872 0.017628 0.511508 0.121287
H12   H     H_    0.635572 0.998537 0.461469 0.127711
H13   H     H_    0.819089 0.493318 0.402115 0.132641
H14   H     H_    0.164073 0.513620 0.575679 0.115249
H15   H     H_    0.319092 0.993312 0.402116 0.132642
H16   H     H_    0.664076 0.013628 0.575680 0.115246
H17   H     H_    0.522149 0.348993 0.932453 0.187074
H18   H     H_    0.477976 0.361932 0.068308 0.190378
H19   H     H_    0.022127 0.849027 0.932454 0.187072
H20   H     H_    0.977988 0.861940 0.068312 0.190367
H21   H     H_    0.361285 0.171531 0.958757 0.099633
H22   H     H_    0.605477 0.103374 0.047252 0.130450
H23   H     H_    0.861283 0.671496 0.958754 0.099631
H24   H     H_    0.105477 0.603354 0.047254 0.130461
H25   H     H_    0.540651 0.992023 0.046981 0.128054
H26   H     H_    0.404453 0.030339 0.958026 0.165868
H27   H     H_    0.040641 0.492017 0.046969 0.128051
H28   H     H_    0.904466 0.530318 0.958028 0.165859
H29   H     H_    0.680381 0.364693 0.584323 0.132773
H30   H     H_    0.339357 0.360074 0.431057 0.106927
H31   H     H_    0.180378 0.864699 0.584322 0.132773
H32   H     H_    0.839356 0.860069 0.431056 0.106928
H33   H     H_    0.657224 0.281978 0.480632 0.109155
H34   H     H_    0.348645 0.309432 0.543363 0.126688
H35   H     H_    0.157223 0.781982 0.480631 0.109155
H36   H     H_    0.848643 0.809424 0.543362 0.126685
H37   H     H_    0.640492 0.429907 0.446752 0.132553
H38   H     H_    0.352474 0.467794 0.562426 0.135308
H39   H     H_    0.140492 0.929910 0.446750 0.132553
H40   H     H_    0.852476 0.967784 0.562425 0.135307
H41   H     H_    0.302944 0.124351 0.519175 0.084076
H42   H     H_    0.694195 0.109275 0.450304 0.094178
H43   H     H_    0.802938 0.624353 0.519176 0.084078
H44   H     H_    0.194190 0.609273 0.450304 0.094176
H45   H     H_    0.237501 0.054008 0.413687 0.115522
H46   H     H_    0.743223 0.085353 0.566798 0.108351
H47   H     H_    0.737497 0.554008 0.413688 0.115523
H48   H     H_    0.243217 0.585354 0.566798 0.108350
H49   H     H_    0.788598 0.250636 0.582913 0.131360
H50   H     H_    0.248674 0.234021 0.437857 0.106277
H51   H     H_    0.288594 0.750636 0.582913 0.131358
H52   H     H_    0.748670 0.734020 0.437857 0.106278
H53   H     H_    0.788084 0.184760 0.473241 0.102739
H54   H     H_    0.215507 0.196772 0.546405 0.125588
H55   H     H_    0.288078 0.684757 0.473242 0.102738
H56   H     H_    0.715500 0.696774 0.546405 0.125590
O1    O     O_R   0.783100 0.287550 0.345460 -0.541626
O2    O     O_R   0.216900 0.287550 0.654540 -0.539712
O3    O     O_R   0.283100 0.787550 0.345460 -0.541628
O4    O     O_R   0.716900 0.787550 0.654540 -0.539715
O5    O     O_R   0.554710 0.081900 0.170950 -0.528925
O6    O     O_R   0.445290 0.081900 0.829050 -0.471305
O7    O     O_R   0.054710 0.581900 0.170950 -0.528926
O8    O     O_R   0.945290 0.581900 0.829050 -0.471298
O9    O     O_R   0.545650 0.284910 0.163740 -0.537256
O10   O     O_R   0.454350 0.284910 0.836260 -0.555826
O11   O     O_R   0.045650 0.784910 0.163740 -0.537225
O12   O     O_R   0.954350 0.784910 0.836260 -0.555818
O13   O     O_R   0.677950 0.374280 0.185410 -0.517925
O14   O     O_R   0.322050 0.374280 0.814590 -0.519555
O15   O     O_R   0.177950 0.874280 0.185410 -0.517953
O16   O     O_R   0.822050 0.874280 0.814590 -0.519553
O17   O     O_3   0.664670 0.164660 0.254930 -0.251109
O18   O     O_3   0.335330 0.164660 0.745070 -0.286614
O19   O     O_3   0.164670 0.664660 0.254930 -0.251109
O20   O     O_3   0.835330 0.664660 0.745070 -0.286617
O21   O     O_R   0.760020 0.037400 0.337700 -0.522685
O22   O     O_R   0.239980 0.037400 0.662300 -0.502825
O23   O     O_R   0.260020 0.537400 0.337700 -0.522687
O24   O     O_R   0.739980 0.537400 0.662300 -0.502825
O25   O     O_R   0.666600 0.921990 0.332020 -0.532791
O26   O     O_R   0.333400 0.921990 0.667980 -0.535461
O27   O     O_R   0.166600 0.421990 0.332020 -0.532792
O28   O     O_R   0.833400 0.421990 0.667980 -0.535460
O29   O     O_R   0.557260 0.082670 0.312540 -0.518023
O30   O     O_R   0.442740 0.082670 0.687460 -0.519057
O31   O     O_R   0.057260 0.582670 0.312540 -0.518023
O32   O     O_R   0.942740 0.582670 0.687460 -0.519052
O33   O     O_R   0.548410 0.285740 0.316480 -0.517081
O34   O     O_R   0.451590 0.285740 0.683520 -0.510091
O35   O     O_R   0.048410 0.785740 0.316480 -0.517076
O36   O     O_R   0.951590 0.785740 0.683520 -0.510091
O37   O     O_R   0.680500 0.375040 0.327000 -0.503970
O38   O     O_R   0.319500 0.375040 0.673000 -0.499439
O39   O     O_R   0.180500 0.875040 0.327000 -0.503968
O40   O     O_R   0.819500 0.875040 0.673000 -0.499439
O41   O     O_R   0.780350 0.286720 0.192720 -0.512253
O42   O     O_R   0.219650 0.286720 0.807280 -0.518861
O43   O     O_R   0.280350 0.786720 0.192720 -0.512251
O44   O     O_R   0.719650 0.786720 0.807280 -0.518868
O45   O     O_R   0.757470 0.036630 0.196110 -0.493331
O46   O     O_R   0.242530 0.036630 0.803890 -0.487120
O47   O     O_R   0.257470 0.536630 0.196110 -0.493334
O48   O     O_R   0.742530 0.536630 0.803890 -0.487113
O49   O     O_R   0.663840 0.921160 0.179280 -0.524275
O50   O     O_R   0.336160 0.921160 0.820720 -0.505316
O51   O     O_R   0.163840 0.421160 0.179280 -0.524267
O52   O     O_R   0.836160 0.421160 0.820720 -0.505320
C97   C     C_3   0.421704 0.405844 0.953460 -0.246915
C98   C     C_3   0.441120 0.527257 0.921538 -0.309151
C99   C     C_3   0.385847 0.624723 0.924765 -0.426561
H57   H     H_    0.337981 0.597574 0.893816 0.172753
H58   H     H_    0.375390 0.640108 0.978193 0.161460
H59   H     H_    0.403472 0.711596 0.904107 0.175448
H60   H     H_    0.489472 0.562129 0.948164 0.156247
H61   H     H_    0.449607 0.512884 0.867505 0.190960
H62   H     H_    0.380997 0.364000 0.920587 0.189385
H63   H     H_    0.397729 0.424768 0.000675 0.169798
C100  C     C_3   0.582816 0.373605 0.046196 -0.224758
C101  C     C_3   0.575558 0.507187 0.071496 -0.286384
C102  C     C_3   0.619397 0.599883 0.038402 -0.451555
H64   H     H_    0.619696 0.582121 0.983172 0.148298
H65   H     H_    0.598124 0.692616 0.044480 0.135903
H66   H     H_    0.672245 0.600409 0.063935 0.168543
H67   H     H_    0.521938 0.540026 0.061219 0.145829
H68   H     H_    0.587536 0.511412 0.127510 0.194307
H69   H     H_    0.619318 0.320848 0.080474 0.186217
H70   H     H_    0.609003 0.372558 0.999222 0.156424
C103  C     C_3   0.921679 0.905820 0.953475 -0.246935
C104  C     C_3   0.941079 0.027259 0.921570 -0.309164
C105  C     C_3   0.885781 0.124685 0.924782 -0.426540
H71   H     H_    0.837940 0.097536 0.893790 0.172753
H72   H     H_    0.875279 0.140016 0.978201 0.161469
H73   H     H_    0.903408 0.211589 0.904162 0.175436
H74   H     H_    0.989411 0.062159 0.948219 0.156298
H75   H     H_    0.949592 0.012908 0.867542 0.190932
H76   H     H_    0.880980 0.863970 0.920595 0.189377
H77   H     H_    0.897703 0.924709 0.000693 0.169852
C106  C     C_3   0.082826 0.873565 0.046181 -0.224770
C107  C     C_3   0.075596 0.007176 0.071444 -0.286381
C108  C     C_3   0.119346 0.099844 0.038216 -0.451626
H78   H     H_    0.119547 0.081997 0.982983 0.148284
H79   H     H_    0.098070 0.192575 0.044290 0.135895
H80   H     H_    0.172232 0.100433 0.063654 0.168561
H81   H     H_    0.021963 0.039990 0.061263 0.145839
H82   H     H_    0.087684 0.011483 0.127443 0.194275
H83   H     H_    0.119320 0.820820 0.080476 0.186187
H84   H     H_    0.109018 0.872442 0.999209 0.156524
O53   O     O_3   0.381454 0.222974 0.075267 -0.588461
C109  C     C_3   0.366244 0.211564 0.142992 -0.093585
H85   H     H_    0.412554 0.216040 0.179950 0.115294
H86   H     H_    0.335172 0.129363 0.149795 0.148759
H87   H     H_    0.334661 0.290477 0.154956 0.124013
O54   O     O_3   0.595790 0.152151 0.930027 -0.602186
C110  C     C_3   0.597679 0.158206 0.858873 -0.088247
H88   H     H_    0.580389 0.249249 0.839810 0.146705
H89   H     H_    0.568768 0.085949 0.829659 0.172576
H90   H     H_    0.651757 0.148125 0.848451 0.120507
O55   O     O_3   0.881454 0.722971 0.075262 -0.588465
C111  C     C_3   0.866243 0.711568 0.142987 -0.093584
H91   H     H_    0.912553 0.716043 0.179946 0.115296
H92   H     H_    0.835169 0.629369 0.149792 0.148757
H93   H     H_    0.834661 0.790483 0.154949 0.124011
O56   O     O_3   0.095792 0.652200 0.930036 -0.602225
C112  C     C_3   0.097683 0.658301 0.858884 -0.088319
H94   H     H_    0.080417 0.749370 0.839842 0.146692
H95   H     H_    0.068753 0.586086 0.829651 0.172595
H96   H     H_    0.151759 0.648184 0.848460 0.120505
O57   O     O_3   0.522589 0.978967 0.923855 -0.567612
C113  C     C_3   0.579936 0.899907 0.929347 -0.087393
H97   H     H_    0.561222 0.805316 0.922453 0.119499
H98   H     H_    0.610576 0.903471 0.979565 0.116233
H99   H     H_    0.612587 0.917721 0.888283 0.149794
O58   O     O_3   0.406628 0.011403 0.073678 -0.584169
C114  C     C_3   0.436088 0.958832 0.134965 -0.106872
H100  H     H_    0.439454 0.020745 0.178974 0.118897
H101  H     H_    0.401984 0.884554 0.148080 0.143367
H102  H     H_    0.485264 0.913513 0.128021 0.136356
O59   O     O_3   0.022609 0.478990 0.923841 -0.567618
C115  C     C_3   0.079971 0.399968 0.929313 -0.087345
H103  H     H_    0.061283 0.305387 0.922263 0.119549
H104  H     H_    0.110533 0.403349 0.979579 0.116138
H105  H     H_    0.112690 0.417992 0.888333 0.149856
O60   O     O_3   0.906626 0.511401 0.073681 -0.584175
C116  C     C_3   0.936089 0.458832 0.134967 -0.106876
H106  H     H_    0.939453 0.520747 0.178976 0.118901
H107  H     H_    0.901987 0.384552 0.148084 0.143370
H108  H     H_    0.985266 0.413517 0.128022 0.136363
C117  C     C_3   0.893895 0.300619 0.578998 -0.243834
C118  C     C_3   0.937877 0.213301 0.540687 -0.338914
C119  C     C_3   0.005344 0.180792 0.582846 -0.447964
H109  H     H_    0.034514 0.264551 0.597680 0.152367
H110  H     H_    0.995560 0.129903 0.629331 0.157702
H111  H     H_    0.036843 0.122546 0.552306 0.143311
H112  H     H_    0.909815 0.128526 0.527165 0.157354
H113  H     H_    0.950748 0.257869 0.493659 0.157312
H114  H     H_    0.919728 0.390138 0.582357 0.166625
H115  H     H_    0.897166 0.263414 0.631579 0.184135
C120  C     C_3   0.141419 0.232565 0.411457 -0.237389
C121  C     C_3   0.071444 0.296594 0.413055 -0.282053
C122  C     C_3   0.014593 0.221697 0.374630 -0.453086
H116  H     H_    0.025330 0.206979 0.321226 0.149854
H117  H     H_    0.010138 0.132174 0.399840 0.151072
H118  H     H_    0.965004 0.270986 0.373818 0.136563
H119  H     H_    0.059431 0.308968 0.465966 0.138114
H120  H     H_    0.069909 0.387128 0.388945 0.213302
H121  H     H_    0.150525 0.212919 0.358046 0.169262
H122  H     H_    0.136337 0.141867 0.434982 0.121708
C123  C     C_3   0.393892 0.800612 0.579001 -0.243832
C124  C     C_3   0.437876 0.713305 0.540686 -0.338915
C125  C     C_3   0.505342 0.680790 0.582846 -0.447966
H123  H     H_    0.534510 0.764548 0.597688 0.152367
H124  H     H_    0.495556 0.629888 0.629325 0.157703
H125  H     H_    0.536844 0.622554 0.552302 0.143311
H126  H     H_    0.409817 0.628531 0.527157 0.157353
H127  H     H_    0.450748 0.757886 0.493662 0.157313
H128  H     H_    0.419724 0.890131 0.582367 0.166634
H129  H     H_    0.397161 0.763396 0.631580 0.184126
C126  C     C_3   0.641416 0.732569 0.411457 -0.237389
C127  C     C_3   0.571442 0.796602 0.413056 -0.282051
C128  C     C_3   0.514589 0.721709 0.374631 -0.453087
H130  H     H_    0.525326 0.706990 0.321226 0.149850
H131  H     H_    0.510132 0.632187 0.399840 0.151071
H132  H     H_    0.465001 0.771002 0.373819 0.136564
H133  H     H_    0.559429 0.808977 0.465966 0.138112
H134  H     H_    0.569909 0.887136 0.388946 0.213304
H135  H     H_    0.650521 0.712922 0.358047 0.169262
H136  H     H_    0.636332 0.641872 0.434983 0.121706

loop_
_geom_bond_atom_site_label_1
_geom_bond_atom_site_label_2
_ccdc_geom_bond_type
C123  H129  S    
C72   O4    A    
Cr3   O23   S    
Cr4   O44   S    
Cr1   O21   S    
O58   C114  S    
C124  H126  S    
C14   H50   S    
Cr7   O19   S    
C47   O31   A    
Cr4   O24   S    
C42   O53   S    
Cr5   O25   S    
C6    H38   S    
C46   O34   A    
Cr8   O28   S    
C112  H96   S    
C49   C78   S    
C120  H121  S    
C13   H49   S    
C37   C42   S    
C84   O16   A    
C51   C80   S    
C55   C74   S    
C40   C43   S    
C35   C36   S    
Cr5   O49   S    
O56   C112  S    
C6    C94   S    
C97   H63   S    
Cr9   O33   S    
C74   O50   A    
Cr6   O30   S    
C41   C49   S    
C126  H136  S    
Cr3   O3    S    
C39   H28   S    
C40   H27   S    
C108  H79   S    
Cr12  O20   S    
Cr6   O18   S    
C115  H105  S    
C12   H42   S    
Cr8   O52   S    
C21   C29   S    
Cr3   O43   S    
C23   C31   S    
C24   C32   S    
C102  H64   S    
C79   O11   A    
C66   C82   S    
C100  C101  S    
C11   C27   S    
C16   C20   S    
C11   C19   S    
C12   C20   S    
C33   H17   S    
C48   C87   S    
C103  H76   S    
C32   H8    S    
C35   H19   S    
C111  H92   S    
C1    O21   A    
C35   C51   S    
C118  C119  S    
C30   H54   S    
C50   C77   S    
C110  H89   S    
C29   H5    S    
C9    H43   S    
C1    C20   S    
C56   C73   S    
Cr11  O15   S    
C2    C19   S    
C59   C63   S    
C2    O26   A    
Cr9   O13   S    
C3    O23   A    
C85   C90   T    
C57   C61   S    
C33   C97   S    
C95   H31   S    
C83   O15   A    
C60   C64   S    
C4    O24   A    
C39   H23   S    
C10   C18   S    
C75   O51   A    
C37   H21   S    
C121  H119  S    
C5    C21   S    
C12   C28   S    
Cr2   O22   S    
Cr2   O42   S    
C25   H13   S    
C70   O38   A    
C39   C51   S    
C125  H124  S    
C67   C83   S    
C16   H52   S    
C14   C120  S    
C35   C103  S    
C7    H35   S    
C98   H60   S    
Cr3   O47   S    
C108  H78   S    
Cr1   O45   S    
C73   O45   A    
C41   O54   S    
C102  H66   S    
Cr10  O38   S    
C45   O33   A    
C78   O6    A    
O53   C109  S    
C83   O43   A    
C59   C67   T    
C53   C61   T    
C55   C63   T    
C56   C64   T    
C52   C79   S    
Cr3   O19   S    
C36   C52   S    
C106  H84   S    
C76   O48   A    
C20   C96   S    
Cr9   O9    S    
O57   C113  S    
C114  H102  S    
Cr7   O7    S    
C128  H131  S    
C47   O35   A    
C36   H20   S    
C117  H114  S    
Cr6   O50   S    
C46   O30   A    
C44   O55   S    
C7    H39   S    
C122  H117  S    
C5    H37   S    
C38   C41   S    
C91   C92   S    
C107  H81   S    
C97   C98   S    
C104  H74   S    
C21   C69   S    
C115  H104  S    
Cr11  O39   S    
C116  H106  S    
C84   O44   A    
C13   C17   S    
Cr9   O37   S    
C88   C91   T    
C105  H72   S    
C101  H67   S    
Cr2   O2    S    
C42   C50   S    
Cr7   O27   S    
C82   O42   A    
Cr5   O17   S    
C24   C72   S    
C123  H128  S    
C21   C25   S    
C108  H80   S    
C22   C30   S    
C24   C28   S    
C127  C128  S    
C96   H32   S    
O55   C111  S    
C28   H16   S    
C15   C31   S    
O54   C110  S    
C16   C32   S    
Cr8   O8    S    
C45   C86   S    
C81   O13   A    
C99   H59   S    
Cr11  O35   S    
C16   C126  S    
C7    C23   S    
C32   H56   S    
C8    C24   S    
C118  H112  S    
C31   H7    S    
C119  H111  S    
C69   O1    A    
C41   O57   S    
C54   C75   S    
C17   C93   S    
C114  H100  S    
C36   C106  S    
C37   H26   S    
Cr9   O17   S    
Cr10  O14   S    
C93   H1    S    
C1    O25   A    
C58   C62   S    
Cr6   O6    S    
C4    O28   A    
C105  H71   S    
C126  H135  S    
C9    C25   S    
C110  H88   S    
C15   C19   S    
C100  H70   S    
C75   O47   A    
C48   O36   A    
C38   H22   S    
C13   C29   S    
C116  H108  S    
C114  H101  S    
C33   C49   S    
C6    C22   S    
C117  C118  S    
C79   O7    A    
C101  C102  S    
C127  H134  S    
C10   H44   S    
C11   H41   S    
C113  H99   S    
Cr5   O5    S    
C6    H34   S    
C72   O40   A    
Cr10  O34   S    
C46   C85   S    
C87   C92   T    
C73   O49   A    
C8    H40   S    
Cr7   O31   S    
Cr5   O29   S    
C45   O29   A    
C120  C121  S    
C68   C84   S    
C23   C71   S    
C99   H57   S    
C54   C62   T    
C94   H2    S    
Cr2   O18   S    
C119  H109  S    
C15   H51   S    
Cr2   O46   S    
C76   O52   A    
C65   C81   S    
O59   C115  S    
C34   H18   S    
Cr10  O10   S    
C43   O56   S    
C39   C44   S    
C121  H120  S    
C4    C17   S    
Cr8   O20   S    
C94   H30   S    
C53   C76   S    
Cr7   O51   S    
C100  H69   S    
C107  C108  S    
C30   H6    S    
C104  C105  S    
C77   O9    A    
C57   C65   T    
C86   C89   T    
C98   H61   S    
C124  H127  S    
C126  C127  S    
C102  H65   S    
C115  H103  S    
C43   C51   S    
Cr11  O11   S    
Cr1   O1    S    
Cr12  O12   S    
Cr6   O26   S    
C103  H77   S    
C109  H85   S    
Cr4   O20   S    
C125  H123  S    
C111  H91   S    
C60   C68   T    
Cr12  O40   S    
C22   C26   S    
C26   H14   S    
Cr1   O41   S    
C89   C90   S    
C106  H83   S    
C27   H45   S    
C110  H90   S    
C69   O37   A    
C25   H47   S    
C9    H9    S    
C128  H130  S    
C14   C18   S    
C26   H48   S    
C8    C96   S    
C11   H11   S    
C15   C123  S    
C122  H116  S    
C71   O39   A    
C96   H4    S    
C127  H133  S    
C74   O46   A    
O60   C116  S    
C70   O2    A    
C107  H82   S    
C104  H75   S    
C37   C49   S    
Cr12  O16   S    
C3    C18   S    
C38   H25   S    
Cr10  O18   S    
C112  H95   S    
C12   H12   S    
C58   C66   T    
C23   C27   S    
C101  H68   S    
C10   C26   S    
C40   H24   S    
C125  H125  S    
C48   O32   A    
C28   H46   S    
C82   O14   A    
C14   C30   S    
C13   C117  S    
C42   O58   S    
C43   O59   S    
Cr8   O32   S    
C31   H55   S    
C34   C50   S    
C29   H53   S    
C80   O12   A    
C19   C95   S    
C27   H15   S    
C40   C52   S    
Cr4   O48   S    
Cr11  O19   S    
Cr12  O36   S    
C109  H86   S    
C2    O22   A    
C124  C125  S    
C10   H10   S    
C3    O27   A    
C99   H58   S    
C5    H33   S    
C111  H93   S    
C33   C34   S    
C8    H36   S    
C118  H113  S    
C119  H110  S    
C9    C17   S    
C18   C94   S    
C128  H132  S    
C113  H98   S    
C109  H87   S    
C117  H115  S    
C121  C122  S    
C81   O41   A    
C122  H118  S    
C44   O60   S    
C113  H97   S    
C5    C93   S    
C106  C107  S    
Cr1   O17   S    
C38   C50   S    
C7    C95   S    
Cr4   O4    S    
C47   C88   S    
C34   C100  S    
C116  H107  S    
C95   H3    S    
C44   C52   S    
C98   C99   S    
C22   C70   S    
C105  H73   S    
C123  C124  S    
C93   H29   S    
C77   O5    A    
C97   H62   S    
C78   O10   A    
C80   O8    A    
C71   O3    A    
C120  H122  S    
C103  C104  S    
C112  H94   S    
