data_mof_unit_55536.cif
_audit_creation_date              2012-12-10T18:01:43-0500
_audit_creation_method            fapswitch 2.2
_symmetry_space_group_name_H-M    P1
_symmetry_Int_Tables_number       1
_space_group_crystal_system       triclinic
_cell_length_a                    10.979613
_cell_length_b                    9.622394
_cell_length_c                    19.342904
_cell_angle_alpha                 90.172575
_cell_angle_beta                  94.897782
_cell_angle_gamma                 90.009191
_cell_volume                      2036.10960398

loop_
_atom_site_label
_atom_site_type_symbol
_atom_type_description
_atom_site_fract_x
_atom_site_fract_y
_atom_site_fract_z
_atom_type_partial_charge
C1    C     C_R   0.262465 0.499997 0.501321 0.917839
C2    C     C_R   0.737535 0.500003 0.498679 0.917838
C3    C     C_R   0.503311 0.502425 0.930285 0.432850
C4    C     C_R   0.496690 0.497576 0.069715 0.432850
C5    C     C_R   0.500773 0.499765 0.367536 0.839170
C6    C     C_R   0.499227 0.500235 0.632464 0.839170
C7    C     C_R   0.064026 0.372769 0.501164 0.270578
C8    C     C_R   0.935974 0.627231 0.498836 0.270578
C9    C     C_R   0.935845 0.372780 0.498305 0.270898
C10   C     C_R   0.064155 0.627220 0.501694 0.270897
C11   C     C_R   0.871599 0.500012 0.497119 -0.204922
C12   C     C_R   0.128401 0.499988 0.502881 -0.204922
C13   C     C_R   0.423110 0.073886 0.453301 0.220087
C14   C     C_R   0.576890 0.926114 0.546699 0.220088
C15   C     C_R   0.576963 0.074442 0.546669 0.220303
C16   C     C_R   0.423037 0.925558 0.453331 0.220303
C17   C     C_R   0.498770 0.623954 0.254352 -0.254760
C18   C     C_R   0.501231 0.376046 0.745648 -0.254760
C19   C     C_R   0.498488 0.627368 0.744931 -0.134068
C20   C     C_R   0.501511 0.372632 0.255069 -0.134067
C21   C     C_R   0.495419 0.623903 0.181641 0.417291
C22   C     C_R   0.504584 0.376097 0.818360 0.417291
C23   C     C_R   0.504447 0.630579 0.817173 0.370236
C24   C     C_R   0.495552 0.369421 0.182827 0.370236
C25   C     C_R   0.494140 0.496302 0.145540 -0.097094
C26   C     C_R   0.505861 0.503698 0.854460 -0.097094
C27   C     C_R   0.500912 0.498886 0.291334 -0.157203
C28   C     C_R   0.499088 0.501114 0.708666 -0.157203
Cu1   Cu    Cu3+1 0.500000 0.640660 0.500000 1.050671
Cu2   Cu    Cu3+1 0.500000 0.359340 0.500000 1.050671
H1    H     H_    0.500654 0.722097 0.281905 0.186526
H2    H     H_    0.499349 0.277903 0.718095 0.186526
H3    H     H_    0.495929 0.725155 0.717310 0.204371
H4    H     H_    0.504069 0.274845 0.282690 0.204372
N1    N     N_R   0.500000 0.852070 0.500000 -0.226970
N2    N     N_R   0.500000 0.147930 0.500000 -0.226970
N3    N     N_R   0.578909 0.418904 0.038594 -0.199833
N4    N     N_R   0.421092 0.581096 0.961406 -0.199831
N5    N     N_R   0.581930 0.421001 0.970013 -0.141545
N6    N     N_R   0.418071 0.579000 0.029987 -0.141545
O1    O     O_R   0.319640 0.618740 0.500000 -0.519009
O2    O     O_R   0.680360 0.381260 0.500000 -0.519009
O3    O     O_R   0.680360 0.618740 0.500000 -0.519348
O4    O     O_R   0.319640 0.381260 0.500000 -0.519348
O5    O     O_R   0.499980 0.618820 0.400140 -0.570241
O6    O     O_R   0.500020 0.381180 0.599860 -0.570240
O7    O     O_R   0.500020 0.618820 0.599860 -0.577857
O8    O     O_R   0.499980 0.381180 0.400140 -0.577858
O9    O     O_3   0.127536 0.248782 0.502695 -0.679120
H5    H     H_    0.080805 0.180322 0.472639 0.353889
O10   O     O_3   0.872464 0.751217 0.497305 -0.679120
H6    H     H_    0.919195 0.819677 0.527361 0.353888
O11   O     O_3   0.872208 0.248805 0.496225 -0.678810
H7    H     H_    0.918819 0.180221 0.526031 0.353927
O12   O     O_3   0.127792 0.751195 0.503775 -0.678810
H8    H     H_    0.081181 0.819779 0.473969 0.353927
O13   O     O_3   0.496392 0.746989 0.145000 -0.672255
H9    H     H_    0.497439 0.826302 0.177912 0.350482
O14   O     O_3   0.503612 0.253012 0.855000 -0.672256
H10   H     H_    0.502567 0.173699 0.822089 0.350482
O15   O     O_3   0.511100 0.759623 0.848737 -0.678426
H11   H     H_    0.546880 0.749870 0.897158 0.349884
O16   O     O_3   0.488898 0.240377 0.151263 -0.678428
H12   H     H_    0.453122 0.250131 0.102841 0.349885
I1    I     I_    0.300079 0.177890 0.377964 -0.245508
I2    I     I_    0.699921 0.822110 0.622036 -0.245508
I3    I     I_    0.700733 0.179211 0.621718 -0.252035
I4    I     I_    0.299267 0.820789 0.378282 -0.252033

loop_
_geom_bond_atom_site_label_1
_geom_bond_atom_site_label_2
_ccdc_geom_bond_type
C19   C23   A    
O12   H8    S    
C18   C28   A    
C21   O13   S    
Cu1   Cu2   S    
C16   I4    S    
C20   C27   A    
Cu1   N1    S    
C1    O4    A    
Cu2   N2    S    
C2    O3    A    
C20   H4    S    
C5    C27   S    
C20   C24   A    
C4    C25   S    
C14   I2    S    
C15   I3    S    
O14   H10   S    
N3    N5    A    
C13   I1    S    
O11   H7    S    
Cu1   O3    S    
N4    N6    A    
C19   C28   A    
C9    C11   A    
C8    O10   S    
Cu2   O4    S    
O13   H9    S    
O15   H11   S    
C1    C12   S    
C10   C12   A    
C2    O2    A    
C8    C11   A    
C2    C11   S    
Cu2   O8    S    
Cu1   O7    S    
C22   O14   S    
C24   O16   S    
C16   N1    A    
C10   O12   S    
C7    C12   A    
C17   H1    S    
C5    O8    A    
C17   C21   A    
C23   C26   A    
C18   H2    S    
C6    O7    A    
C3    N5    A    
O16   H12   S    
C17   C27   A    
C4    N6    A    
C15   N2    A    
C23   O15   S    
C9    O11   S    
C24   C25   A    
C7    O9    S    
C13   N2    A    
C8    C10   A    
O9    H5    S    
C19   H3    S    
C13   C16   A    
C1    O1    A    
C14   N1    A    
C7    C9    A    
C21   C25   A    
C14   C15   A    
Cu2   O2    S    
C22   C26   A    
C6    O6    A    
Cu1   O1    S    
C18   C22   A    
C5    O5    A    
Cu2   O6    S    
C3    C26   S    
C6    C28   S    
O10   H6    S    
C3    N4    A    
Cu1   O5    S    
C4    N3    A    
