data_mof_unit_49871.cif
_audit_creation_date              2012-10-26T19:35:00-0400
_audit_creation_method            fapswitch 2.2
_symmetry_space_group_name_H-M    P1
_symmetry_Int_Tables_number       1
_space_group_crystal_system       triclinic
_cell_length_a                    13.86709
_cell_length_b                    18.126101
_cell_length_c                    19.465925
_cell_angle_alpha                 90.212217
_cell_angle_beta                  90.282279
_cell_angle_gamma                 85.011692
_cell_volume                      4874.26489827

loop_
_atom_site_label
_atom_site_type_symbol
_atom_type_description
_atom_site_fract_x
_atom_site_fract_y
_atom_site_fract_z
_atom_type_partial_charge
C1    C     C_R   0.496158 0.500451 0.632928 0.571155
C2    C     C_R   0.567454 0.536478 0.037703 0.222100
C3    C     C_R   0.503649 0.492616 0.929893 -0.059349
C4    C     C_R   0.504797 0.493720 0.074117 -0.058394
C5    C     C_R   0.574406 0.273799 0.529832 0.055408
C6    C     C_R   0.425249 0.725490 0.469958 0.044482
C7    C     C_R   0.575816 0.196070 0.530241 0.185084
C8    C     C_R   0.421175 0.803823 0.470772 0.197842
C9    C     C_R   0.499074 0.161366 0.499491 0.026906
C10   C     C_R   0.499228 0.838657 0.499551 0.041464
C11   C     C_R   0.421584 0.206424 0.470240 0.196947
C12   C     C_R   0.499252 0.499970 0.368019 0.654846
C13   C     C_R   0.577626 0.794184 0.528434 0.209528
C14   C     C_R   0.425506 0.284149 0.469500 0.021394
C15   C     C_R   0.574774 0.716407 0.529320 0.082453
C16   C     C_R   0.683189 0.488198 0.500842 0.556875
C17   C     C_R   0.316822 0.511807 0.499825 0.598205
C18   C     C_R   0.421154 0.044088 0.527282 -0.100929
C19   C     C_R   0.576947 0.956041 0.471400 -0.089262
C20   C     C_R   0.421142 0.966588 0.527319 -0.077605
C21   C     C_R   0.577030 0.033537 0.471473 -0.080256
C22   C     C_R   0.499042 0.921502 0.499362 0.102190
C23   C     C_R   0.412869 0.513972 0.255800 0.204417
C24   C     C_R   0.498977 0.078597 0.499198 0.083707
C25   C     C_1   0.213938 0.518771 0.496295 0.025965
C26   C     C_1   0.786105 0.481247 0.504691 -0.041930
C27   C     C_2   0.022558 0.528511 0.487531 0.287792
C28   C     C_2   0.977604 0.471511 0.512671 0.288968
C29   C     C_1   0.872798 0.476090 0.508410 -0.035975
C30   C     C_1   0.127302 0.523976 0.492327 0.000126
C31   C     C_R   0.588850 0.485717 0.259231 0.203261
C32   C     C_R   0.497603 0.431530 0.744770 0.202133
C33   C     C_R   0.589115 0.481381 0.187137 -0.102458
C34   C     C_R   0.479836 0.567201 0.749329 0.205953
C35   C     C_R   0.506221 0.429770 0.816252 -0.098314
C36   C     C_R   0.503250 0.496111 0.149736 -0.028899
C37   C     C_R   0.499847 0.495053 0.854347 -0.031732
C38   C     C_R   0.415790 0.513215 0.184191 -0.082391
C39   C     C_R   0.485176 0.562975 0.820955 -0.079631
C40   C     C_3   0.977761 0.355501 0.566143 -0.008828
C41   C     C_3   0.044985 0.293488 0.597091 -0.374530
C42   C     C_3   0.023353 0.642696 0.431019 -0.013311
C43   C     C_3   0.956690 0.704978 0.399994 -0.380209
C44   C     C_3   0.257250 0.198840 0.465069 -0.018838
C45   C     C_R   0.499824 0.499665 0.293249 0.020041
C46   C     C_3   0.183165 0.145253 0.445292 -0.360837
C47   C     C_3   0.742230 0.801876 0.534721 -0.019453
C48   C     C_3   0.815679 0.856341 0.553524 -0.365441
C49   C     C_3   0.749125 0.510701 0.272309 -0.019255
C50   C     C_3   0.821983 0.520898 0.329450 -0.342241
C51   C     C_3   0.404790 0.338399 0.717435 0.005266
C52   C     C_3   0.398273 0.269553 0.673431 -0.371966
C53   C     C_3   0.427908 0.336849 0.085023 0.006977
C54   C     C_3   0.363735 0.292509 0.129110 -0.350903
C55   C     C_3   0.720009 0.528423 0.919440 0.008170
C56   C     C_R   0.491131 0.500483 0.709493 -0.015791
C57   C     C_3   0.788086 0.570728 0.876654 -0.356294
C58   C     C_3   0.285848 0.456652 0.923388 0.012336
C59   C     C_3   0.216854 0.415839 0.879238 -0.374003
C60   C     C_3   0.582698 0.651436 0.080516 0.012002
C61   C     C_3   0.647348 0.698038 0.122709 -0.369336
C62   C     C_3   0.637911 0.144630 0.628672 -0.017416
C63   C     C_3   0.719232 0.092351 0.658204 -0.361889
C64   C     C_3   0.255328 0.827491 0.459573 -0.017014
C65   C     C_3   0.179896 0.891673 0.445221 -0.366558
C66   C     C_R   0.442462 0.449639 0.038144 0.221485
C67   C     C_R   0.569995 0.533163 0.965829 0.221609
C68   C     C_R   0.438677 0.451862 0.966262 0.222595
Cu1   Cu    Cu3+1 0.500030 0.426640 0.500000 0.998300
Cu2   Cu    Cu3+1 0.499970 0.573360 0.500000 1.042719
H1    H     H_    0.369281 0.318842 0.443789 0.160523
H2    H     H_    0.476874 0.613019 0.851651 0.203916
H3    H     H_    0.633285 0.300001 0.553647 0.152845
H4    H     H_    0.368989 0.697824 0.444649 0.161705
H5    H     H_    0.936660 0.331903 0.523240 0.141743
H6    H     H_    0.927093 0.377691 0.606946 0.134863
H7    H     H_    0.086227 0.315035 0.640764 0.153595
H8    H     H_    0.002069 0.248802 0.615946 0.096701
H9    H     H_    0.096672 0.270211 0.557666 0.147261
H10   H     H_    0.071322 0.618165 0.389616 0.163967
H11   H     H_    0.067455 0.666827 0.471986 0.136296
H12   H     H_    0.631946 0.682063 0.554361 0.155511
H13   H     H_    0.907765 0.730590 0.440064 0.147095
H14   H     H_    0.000353 0.747969 0.378648 0.103936
H15   H     H_    0.912471 0.683056 0.358118 0.151026
H16   H     H_    0.232365 0.254223 0.444032 0.150449
H17   H     H_    0.259992 0.201950 0.522324 0.102662
H18   H     H_    0.205399 0.089376 0.466168 0.149589
H19   H     H_    0.111267 0.164866 0.466544 0.093454
H20   H     H_    0.177221 0.141565 0.388486 0.172744
H21   H     H_    0.740564 0.796809 0.477577 0.105166
H22   H     H_    0.767019 0.747340 0.557560 0.146296
H23   H     H_    0.360832 0.077155 0.550147 0.105594
H24   H     H_    0.820651 0.861878 0.610246 0.169908
H25   H     H_    0.888010 0.836270 0.533267 0.091485
H26   H     H_    0.793513 0.911488 0.531033 0.151006
H27   H     H_    0.723107 0.566806 0.252891 0.129236
H28   H     H_    0.786991 0.478059 0.230477 0.141832
H29   H     H_    0.849250 0.466259 0.350828 0.171796
H30   H     H_    0.884117 0.548589 0.308976 0.112083
H31   H     H_    0.787298 0.555869 0.370960 0.177539
H32   H     H_    0.346126 0.380623 0.700682 0.131024
H33   H     H_    0.392479 0.323000 0.771813 0.136321
H34   H     H_    0.637436 0.922988 0.448729 0.111494
H35   H     H_    0.456363 0.226436 0.688074 0.136188
H36   H     H_    0.326965 0.247324 0.681019 0.083741
H37   H     H_    0.405461 0.283562 0.618475 0.164797
H38   H     H_    0.149924 0.553611 0.266706 0.358790
H39   H     H_    0.412230 0.767232 0.753428 0.369658
H40   H     H_    0.497777 0.340494 0.112910 0.122946
H41   H     H_    0.441800 0.306789 0.035554 0.155597
H42   H     H_    0.400225 0.236493 0.138715 0.098823
H43   H     H_    0.349582 0.321015 0.179140 0.185491
H44   H     H_    0.293785 0.286774 0.102428 0.165910
H45   H     H_    0.360685 0.941711 0.550027 0.119918
H46   H     H_    0.705917 0.477019 0.890830 0.118777
H47   H     H_    0.756474 0.513194 0.969156 0.155937
H48   H     H_    0.804830 0.621936 0.904110 0.169227
H49   H     H_    0.856574 0.535674 0.867521 0.089501
H50   H     H_    0.753848 0.585917 0.826362 0.175783
H51   H     H_    0.297685 0.509739 0.897257 0.128844
H52   H     H_    0.251235 0.468872 0.974153 0.170889
H53   H     H_    0.203082 0.362577 0.903803 0.162254
H54   H     H_    0.147070 0.450236 0.873285 0.099716
H55   H     H_    0.248648 0.404543 0.827613 0.139672
H56   H     H_    0.637759 0.058425 0.449153 0.139272
H57   H     H_    0.512665 0.649971 0.108161 0.128083
H58   H     H_    0.569259 0.678535 0.029682 0.171162
H59   H     H_    0.717815 0.701041 0.096442 0.165048
H60   H     H_    0.611845 0.754967 0.128897 0.104342
H61   H     H_    0.660304 0.673123 0.174322 0.145656
H62   H     H_    0.568342 0.119651 0.637560 0.128183
H63   H     H_    0.636973 0.198555 0.656411 0.143210
H64   H     H_    0.789818 0.115906 0.651147 0.152815
H65   H     H_    0.707176 0.084299 0.713928 0.101349
H66   H     H_    0.721193 0.037790 0.631796 0.171106
H67   H     H_    0.655774 0.466027 0.159945 0.141526
H68   H     H_    0.253744 0.815350 0.515710 0.130667
H69   H     H_    0.234769 0.778642 0.429964 0.142199
H70   H     H_    0.178239 0.904800 0.389518 0.171509
H71   H     H_    0.107270 0.876589 0.460903 0.089288
H72   H     H_    0.197521 0.941414 0.474633 0.146285
H73   H     H_    0.516376 0.376825 0.842148 0.154136
H74   H     H_    0.349819 0.525371 0.154872 0.202041
N1    N     N_R   0.500010 0.316380 0.499980 -0.289086
N2    N     N_R   0.499990 0.683620 0.500020 -0.271748
O1    O     O_R   0.500040 0.438020 0.599820 -0.467527
O2    O     O_3   0.966798 0.588920 0.458706 -0.596501
O3    O     O_3   0.347889 0.173336 0.436895 -0.550979
O4    O     O_3   0.650980 0.828064 0.561500 -0.550515
O5    O     O_3   0.672863 0.471969 0.298237 -0.558144
O6    O     O_3   0.497081 0.364985 0.709676 -0.544677
O7    O     O_2   0.281772 0.465073 0.340405 -0.307566
O8    O     O_2   0.301292 0.598196 0.342408 -0.323752
O9    O     O_3   0.209735 0.545258 0.239102 -0.536370
O10   O     O_2   0.544333 0.680542 0.680816 -0.282512
O11   O     O_2   0.373807 0.657620 0.662742 -0.282492
O12   O     O_R   0.499960 0.561980 0.400180 -0.484723
O13   O     O_3   0.421444 0.718741 0.776946 -0.543400
O14   O     O_3   0.380301 0.407685 0.073219 -0.540352
O15   O     O_3   0.633580 0.573806 0.930671 -0.539569
O16   O     O_3   0.373432 0.411648 0.931515 -0.555082
O17   O     O_3   0.629402 0.579624 0.072366 -0.554578
O18   O     O_3   0.654486 0.154333 0.557978 -0.575411
O19   O     O_3   0.347021 0.847115 0.438238 -0.558326
O20   O     O_R   0.500000 0.561930 0.599810 -0.427209
O21   O     O_R   0.500000 0.438070 0.400190 -0.469677
O22   O     O_R   0.637870 0.429290 0.499990 -0.505153
O23   O     O_R   0.362130 0.570710 0.500010 -0.486364
O24   O     O_R   0.637830 0.553200 0.499980 -0.518030
O25   O     O_R   0.362170 0.446800 0.500020 -0.506865
O26   O     O_3   0.033619 0.411376 0.541748 -0.584962
S1    S     S_3+6 0.299622 0.530976 0.297141 -0.023848
S2    S     S_3+6 0.454629 0.657359 0.714552 0.004957

loop_
_geom_bond_atom_site_label_1
_geom_bond_atom_site_label_2
_ccdc_geom_bond_type
C53   H40   S    
C66   C68   A    
C4    C36   S    
C42   H10   S    
C23   C45   A    
C48   H25   S    
C43   H13   S    
C14   H1    S    
C3    C68   A    
C42   O2    S    
C60   O17   S    
C12   O21   A    
C66   O14   S    
C46   H19   S    
C64   H68   S    
C53   C54   S    
C10   C22   S    
C51   H32   S    
C34   C56   A    
C14   N1    A    
O10   S2    D    
C50   H29   S    
C62   C63   S    
C48   H24   S    
C18   C24   A    
C62   H63   S    
C28   C29   S    
C35   C37   A    
Cu2   O23   S    
C13   O4    S    
Cu2   O20   S    
C41   H7    S    
C6    N2    A    
C11   C14   A    
C17   O23   A    
C55   H46   S    
C51   H33   S    
C54   H43   S    
O7    S1    D    
C25   C30   T    
C33   C36   A    
Cu1   N1    S    
C47   H22   S    
C49   H28   S    
C65   H70   S    
C34   C39   A    
C28   O26   S    
C62   O18   S    
C52   H37   S    
C33   H67   S    
C27   O2    S    
C53   O14   S    
O13   S2    S    
C39   H2    S    
C31   C33   A    
Cu2   N2    S    
C44   H17   S    
C61   H59   S    
O11   S2    D    
C57   H49   S    
O9    S1    S    
C52   H36   S    
C27   C30   S    
C59   H53   S    
C43   H14   S    
C42   H11   S    
C38   H74   S    
C44   H16   S    
C11   O3    S    
C6    H4    S    
C15   H12   S    
C46   H18   S    
C16   C26   S    
C58   H52   S    
C5    N1    A    
C49   O5    S    
C51   C52   S    
C43   H15   S    
C32   C35   A    
C62   H62   S    
C60   H58   S    
C19   C22   A    
C55   O15   S    
C2    C67   A    
C41   H8    S    
C5    C7    A    
C6    C8    A    
C44   C46   S    
C58   C59   S    
C40   H6    S    
C60   C61   S    
Cu2   O12   S    
C63   H65   S    
C2    C4    A    
C63   H64   S    
C41   H9    S    
C64   O19   S    
C34   S2    S    
C15   N2    A    
C65   H71   S    
C19   H34   S    
C67   O15   S    
C47   C48   S    
C32   O6    S    
C47   O4    S    
C31   O5    S    
C54   H42   S    
C9    C11   A    
C61   H60   S    
C26   C29   T    
C57   H50   S    
C46   H20   S    
C40   C41   S    
C20   C22   A    
C51   O6    S    
Cu1   O21   S    
C55   C57   S    
Cu1   O1    S    
C1    O1    A    
C42   C43   S    
C58   O16   S    
C40   O26   S    
C55   H47   S    
C59   H54   S    
C7    C9    A    
C58   H51   S    
C48   H26   S    
O8    S1    D    
C19   C21   A    
C47   H21   S    
C1    C56   S    
C60   H57   S    
C3    C67   A    
C12   C45   S    
C10   C13   A    
C2    O17   S    
C52   H35   S    
C20   H45   S    
C17   O25   A    
C9    C24   S    
C23   S1    S    
C68   O16   S    
C59   H55   S    
C23   C38   A    
C5    H3    S    
C7    O18   S    
C50   H30   S    
C44   O3    S    
C40   H5    S    
C17   C25   S    
C64   C65   S    
C13   C15   A    
Cu2   O24   S    
Cu1   O22   S    
C37   C39   A    
C63   H66   S    
C4    C66   A    
C65   H72   S    
C53   H41   S    
H38   O9    S    
C1    O20   A    
C16   O22   A    
C54   H44   S    
C36   C38   A    
C18   C20   A    
Cu1   O25   S    
Cu1   Cu2   S    
C8    O19   S    
C61   H61   S    
C49   H27   S    
C16   O24   A    
C3    C37   S    
C50   H31   S    
C8    C10   A    
C49   C50   S    
C31   C45   A    
C21   C24   A    
C27   C28   D    
C18   H23   S    
C12   O12   A    
C21   H56   S    
C32   C56   A    
C35   H73   S    
C57   H48   S    
C64   H69   S    
H39   O13   S    
