data_mof_unit_55084.cif
_audit_creation_date              2012-12-11T16:24:04-0500
_audit_creation_method            fapswitch 2.2
_symmetry_space_group_name_H-M    P1
_symmetry_Int_Tables_number       1
_space_group_crystal_system       triclinic
_cell_length_a                    14.750827
_cell_length_b                    14.769412
_cell_length_c                    33.27873
_cell_angle_alpha                 96.083223
_cell_angle_beta                  96.181504
_cell_angle_gamma                 61.190499
_cell_volume                      6303.6459325

loop_
_atom_site_label
_atom_site_type_symbol
_atom_type_description
_atom_site_fract_x
_atom_site_fract_y
_atom_site_fract_z
_atom_type_partial_charge
C1    C     C_R   0.390982 0.699710 0.446058 0.571885
C2    C     C_R   0.333823 0.350279 0.307856 0.027031
C3    C     C_R   0.431540 0.286840 0.325472 -0.117237
C4    C     C_R   0.450472 0.293932 0.367091 -0.134790
C5    C     C_R   0.393221 0.256624 0.165601 -0.107941
C6    C     C_R   0.384523 0.236367 0.123905 -0.124978
C7    C     C_R   0.209669 0.380509 0.121039 -0.125311
C8    C     C_R   0.218538 0.400397 0.162779 -0.108191
C9    C     C_R   0.309100 0.336434 0.185149 0.041692
C10   C     C_1   0.313249 0.346260 0.228387 -0.014277
C11   C     C_1   0.319790 0.349864 0.264694 -0.015335
C12   C     C_R   0.405533 0.386115 0.434025 0.539047
C13   C     C_R   0.291192 0.295731 0.101466 0.019672
C14   C     C_R   0.756546 0.373037 0.410175 0.021942
C15   C     C_R   0.790937 0.434061 0.393828 -0.124542
C16   C     C_R   0.820514 0.413206 0.354159 -0.120520
C17   C     C_R   0.816411 0.330869 0.330211 0.035632
C18   C     C_R   0.791471 0.264047 0.347789 -0.122575
C19   C     C_R   0.761692 0.285007 0.387497 -0.134747
C20   C     C_R   0.835598 0.311752 0.204896 0.347070
C21   C     C_R   0.828026 0.321373 0.286366 0.346854
C22   C     C_R   0.836201 0.390269 0.142413 -0.119573
C23   C     C_R   0.700742 0.409975 0.447521 0.543299
C24   C     C_R   0.865970 0.379119 0.103164 -0.129919
C25   C     C_R   0.909156 0.198098 0.099182 -0.131215
C26   C     C_R   0.879248 0.209305 0.138528 -0.120108
C27   C     C_R   0.847274 0.304317 0.161120 0.034275
C28   C     C_R   0.907439 0.281789 0.081959 0.021598
C29   C     C_R   0.370617 0.754473 0.408750 0.061321
C30   C     C_R   0.279900 0.774507 0.384312 -0.177783
C31   C     C_R   0.269414 0.801020 0.344648 -0.137617
C32   C     C_R   0.349065 0.808835 0.328510 0.002989
C33   C     C_R   0.434947 0.799783 0.353925 -0.113034
C34   C     C_R   0.393456 0.701309 0.561263 0.542128
C35   C     C_R   0.446606 0.772760 0.394163 0.235730
C36   C     C_R   0.344985 0.824518 0.203518 0.347987
C37   C     C_R   0.345924 0.818210 0.284710 0.353542
C38   C     C_R   0.260566 0.827988 0.134299 -0.119546
C39   C     C_R   0.240308 0.859852 0.094957 -0.130663
C40   C     C_R   0.381850 0.901083 0.104657 -0.131765
C41   C     C_R   0.402084 0.869245 0.144068 -0.120733
C42   C     C_R   0.338280 0.837279 0.159846 0.035219
C43   C     C_R   0.297469 0.901473 0.080516 0.021906
C44   C     C_R   0.371345 0.369259 0.585084 0.021414
C45   C     C_R   0.407273 0.388879 0.548999 0.543447
C46   C     C_R   0.284919 0.448844 0.604004 -0.132077
C47   C     C_R   0.265748 0.439550 0.643079 -0.121750
C48   C     C_R   0.332787 0.350608 0.663777 0.034820
C49   C     C_R   0.413399 0.267425 0.643396 -0.120533
C50   C     C_R   0.432420 0.276596 0.604369 -0.128954
C51   C     C_R   0.318539 0.347738 0.788462 0.346596
C52   C     C_R   0.325127 0.347832 0.707334 0.346822
C53   C     C_R   0.218563 0.403358 0.850522 -0.122130
C54   C     C_R   0.207419 0.383818 0.889287 -0.131715
C55   C     C_R   0.386325 0.248518 0.892865 -0.130340
C56   C     C_R   0.701216 0.413693 0.562708 0.539336
C57   C     C_R   0.397416 0.267989 0.854183 -0.121129
C58   C     C_R   0.312247 0.342151 0.831918 0.034479
C59   C     C_R   0.289831 0.302797 0.909941 0.022146
C60   C     C_R   0.753776 0.380810 0.602979 0.019936
C61   C     C_R   0.777702 0.448044 0.629605 -0.126508
C62   C     C_R   0.805865 0.427637 0.670391 -0.110478
C63   C     C_R   0.810906 0.339769 0.684948 0.040885
C64   C     C_R   0.793409 0.269254 0.658265 -0.110947
C65   C     C_R   0.765276 0.289407 0.617468 -0.125366
C66   C     C_R   0.886544 0.212674 0.822743 -0.110689
C67   C     C_R   0.372078 0.365538 0.392038 0.036180
C68   C     C_R   0.914188 0.201294 0.864118 -0.127446
C69   C     C_R   0.871670 0.382258 0.873483 -0.126115
C70   C     C_R   0.843897 0.393429 0.832169 -0.110986
C71   C     C_R   0.854192 0.308004 0.806600 0.041592
C72   C     C_1   0.838675 0.316883 0.763595 -0.022216
C73   C     C_1   0.826882 0.325999 0.727638 -0.022459
C74   C     C_R   0.910427 0.285190 0.889671 0.019609
C75   C     C_R   0.376280 0.754793 0.602004 0.021311
C76   C     C_R   0.280942 0.789946 0.619144 -0.125196
C77   C     C_R   0.271444 0.819140 0.660380 -0.110892
C78   C     C_R   0.269563 0.424167 0.374385 0.012024
C79   C     C_R   0.356815 0.813867 0.684887 0.041414
C80   C     C_R   0.450089 0.785175 0.667722 -0.111339
C81   C     C_R   0.459777 0.756137 0.626429 -0.126448
C82   C     C_R   0.396967 0.884249 0.832718 -0.111205
C83   C     C_R   0.377131 0.911762 0.873536 -0.126223
C84   C     C_R   0.228206 0.881769 0.862791 -0.126744
C85   C     C_R   0.248330 0.854178 0.822024 -0.111094
C86   C     C_R   0.330947 0.858151 0.806750 0.040279
C87   C     C_1   0.343236 0.842287 0.764002 -0.023018
C88   C     C_1   0.350471 0.830198 0.727960 -0.022587
C89   C     C_R   0.252420 0.416067 0.332020 -0.093589
C90   C     C_R   0.290484 0.914050 0.888701 0.019531
C91   C     C_R   0.963466 0.264251 0.045537 0.546034
C92   C     C_R   0.272728 0.259677 0.059951 0.544444
C93   C     C_R   0.259319 0.959476 0.043692 0.545977
C94   C     C_R   0.962690 0.267582 0.930708 0.542459
C95   C     C_R   0.270890 0.264005 0.945367 0.545290
C96   C     C_R   0.256138 0.965056 0.928941 0.542888
Cr1   Cr    Cr6+3 0.576280 0.580550 0.506370 1.058491
Cr2   Cr    Cr6+3 0.346780 0.572400 0.496520 1.000930
Cr3   Cr    Cr6+3 0.576960 0.347070 0.497150 1.011685
Cr4   Cr    Cr6+3 0.087320 0.083240 0.984860 1.013047
Cr5   Cr    Cr6+3 0.087720 0.316210 0.996740 1.012815
Cr6   Cr    Cr6+3 0.317350 0.090340 0.995890 1.012959
H1    H     H_    0.448618 0.170717 0.109709 0.129437
H2    H     H_    0.736273 0.236106 0.399411 0.126240
H3    H     H_    0.862388 0.445357 0.090414 0.130453
H4    H     H_    0.841542 0.464815 0.341668 0.133510
H5    H     H_    0.788747 0.199290 0.330191 0.132931
H6    H     H_    0.809627 0.465099 0.158783 0.136979
H7    H     H_    0.940285 0.122216 0.083426 0.131600
H8    H     H_    0.887393 0.141980 0.152016 0.136876
H9    H     H_    0.219418 0.763086 0.394881 0.137486
H10   H     H_    0.175698 0.857878 0.076803 0.130047
H11   H     H_    0.463755 0.207006 0.182843 0.117722
H12   H     H_    0.200912 0.810254 0.326058 0.147305
H13   H     H_    0.495557 0.808581 0.342001 0.122740
H14   H     H_    0.211402 0.801611 0.145337 0.135471
H15   H     H_    0.427843 0.931994 0.094189 0.130167
H16   H     H_    0.463545 0.875831 0.162860 0.135283
H17   H     H_    0.236003 0.520980 0.589755 0.129074
H18   H     H_    0.498883 0.213446 0.590368 0.131574
H19   H     H_    0.132215 0.427383 0.901812 0.130229
H20   H     H_    0.202208 0.504455 0.657854 0.132000
H21   H     H_    0.465128 0.196982 0.658279 0.133163
H22   H     H_    0.494606 0.234715 0.306839 0.120771
H23   H     H_    0.151904 0.461941 0.834274 0.132173
H24   H     H_    0.451627 0.186535 0.908308 0.129563
H25   H     H_    0.471314 0.221024 0.840966 0.133211
H26   H     H_    0.944319 0.125397 0.875563 0.127913
H27   H     H_    0.894566 0.146147 0.803130 0.111133
H28   H     H_    0.797415 0.200876 0.669283 0.111576
H29   H     H_    0.747222 0.236147 0.597813 0.127228
H30   H     H_    0.769201 0.519215 0.619491 0.126917
H31   H     H_    0.818564 0.467635 0.819913 0.110833
H32   H     H_    0.867901 0.448296 0.892317 0.127110
H33   H     H_    0.529120 0.247420 0.379346 0.133697
H34   H     H_    0.819555 0.482544 0.690878 0.112708
H35   H     H_    0.426386 0.936527 0.892629 0.128421
H36   H     H_    0.461264 0.887285 0.821118 0.112777
H37   H     H_    0.516550 0.781000 0.686520 0.110792
H38   H     H_    0.534380 0.728958 0.614226 0.127879
H39   H     H_    0.215278 0.789762 0.601187 0.127637
H40   H     H_    0.196992 0.833747 0.802087 0.113402
H41   H     H_    0.160839 0.882895 0.873465 0.127490
H42   H     H_    0.198831 0.841552 0.673458 0.110755
H43   H     H_    0.153216 0.462494 0.177794 0.117751
H44   H     H_    0.136769 0.427640 0.104599 0.130018
H45   H     H_    0.176153 0.462638 0.317649 0.111241
H46   H     H_    0.788994 0.501711 0.410761 0.140785
N1    N     N_R   0.829995 0.395267 0.228133 -0.230165
N2    N     N_R   0.243354 0.423131 0.727022 -0.236124
N3    N     N_R   0.403668 0.273059 0.729036 -0.234790
N4    N     N_R   0.400283 0.272827 0.768744 -0.235024
N5    N     N_R   0.825949 0.400132 0.268022 -0.229725
N6    N     N_R   0.833418 0.237758 0.263163 -0.231260
N7    N     N_R   0.837890 0.232701 0.223199 -0.230704
N8    N     N_R   0.271352 0.812189 0.219681 -0.230654
N9    N     N_R   0.272055 0.808689 0.259436 -0.227164
N10   N     N_R   0.420015 0.830009 0.268575 -0.228712
N11   N     N_R   0.419165 0.833766 0.228758 -0.229967
N12   N     N_R   0.239782 0.422679 0.766797 -0.236340
O1    O     O_R   0.679450 0.499830 0.463150 -0.497804
O2    O     O_R   0.356040 0.477400 0.534170 -0.503950
O3    O     O_R   0.495910 0.323070 0.537100 -0.517557
O4    O     O_R   0.663920 0.359620 0.542290 -0.502226
O5    O     O_3   0.500010 0.500010 0.500010 -0.244694
O6    O     O_R   0.170070 0.978950 0.027680 -0.519483
O7    O     O_R   0.001760 0.175230 0.026640 -0.501197
O8    O     O_R   0.984760 0.333570 0.037150 -0.519515
O9    O     O_R   0.183410 0.309240 0.041890 -0.501795
O10   O     O_R   0.340240 0.172500 0.045430 -0.519523
O11   O     O_R   0.309670 0.000990 0.032050 -0.502043
O12   O     O_R   0.480650 0.664000 0.464630 -0.428047
O13   O     O_R   0.168330 0.982130 0.939200 -0.520502
O14   O     O_R   0.000140 0.178170 0.944610 -0.502085
O15   O     O_R   0.983010 0.336750 0.948660 -0.519890
O16   O     O_R   0.181800 0.312190 0.959860 -0.502302
O17   O     O_R   0.338500 0.175680 0.956950 -0.519749
O18   O     O_R   0.308050 0.003930 0.950020 -0.501645
O19   O     O_3   0.164130 0.163270 0.992500 -0.236218
O20   O     O_R   0.323930 0.675950 0.455370 -0.542124
O21   O     O_R   0.354700 0.475360 0.451930 -0.504326
O22   O     O_R   0.494470 0.320860 0.448390 -0.520883
O23   O     O_R   0.662580 0.357570 0.460050 -0.506728
O24   O     O_R   0.680900 0.502040 0.551870 -0.521965
O25   O     O_R   0.481990 0.666040 0.546870 -0.502439
O26   O     O_R   0.325370 0.678160 0.544080 -0.520406
O27   O     O_3   0.533175 0.759636 0.418793 -0.683290
H47   H     H_    0.578391 0.774697 0.403749 0.313561
C97   C     C_3   0.177381 0.495423 0.398965 -0.270898
C98   C     C_3   0.153728 0.435423 0.427189 -0.424264
H48   H     H_    0.138803 0.375341 0.409427 0.158041
H49   H     H_    0.219019 0.397699 0.450026 0.160301
H50   H     H_    0.083530 0.489423 0.443415 0.133224
H51   H     H_    0.189575 0.557458 0.416252 0.174522
H52   H     H_    0.106654 0.536288 0.378670 0.127372

loop_
_geom_bond_atom_site_label_1
_geom_bond_atom_site_label_2
_ccdc_geom_bond_type
Cr6   O10   S    
C81   H38   S    
C66   C68   A    
C87   C88   T    
C69   H32   S    
C20   N7    A    
C55   C59   A    
C2    C89   A    
C41   C42   A    
C74   C94   S    
C36   C42   S    
C8    H43   S    
C45   O2    A    
Cr5   O8    S    
C6    H1    S    
C7    C8    A    
C85   C86   A    
C44   C45   S    
C25   C28   A    
Cr1   O25   S    
C78   C97   S    
C26   C27   A    
C98   H48   S    
Cr1   O12   S    
C59   C95   S    
Cr4   O7    S    
C50   H18   S    
C5    C6    A    
C91   O7    A    
N8    N9    A    
C38   C42   A    
C15   H46   S    
C80   C81   A    
C1    O20   A    
Cr1   O5    S    
C68   C74   A    
C15   C16   A    
C49   H21   S    
C51   N12   A    
C20   N1    A    
Cr4   O6    S    
C18   C19   A    
C37   N9    A    
C34   O26   A    
N1    N5    A    
C18   H5    S    
Cr3   O22   S    
C82   H36   S    
C36   N11   A    
C65   H29   S    
C97   H51   S    
C95   O17   A    
C40   C43   A    
C12   O22   A    
C47   C48   A    
C53   C54   A    
C92   O10   A    
C16   C17   A    
C70   H31   S    
N3    N4    A    
C23   O1    A    
Cr5   O9    S    
C70   C71   A    
C41   H16   S    
C29   C30   A    
C9    C10   S    
C26   H8    S    
C31   H12   S    
Cr3   O23   S    
C61   C62   A    
C61   H30   S    
C25   H7    S    
C34   C75   S    
C53   H23   S    
C7    H44   S    
C76   H39   S    
C40   H15   S    
C95   O16   A    
Cr6   O19   S    
C97   C98   S    
C67   C78   A    
C84   C90   A    
C2    C11   S    
C79   C88   S    
Cr2   O2    S    
C14   C23   S    
C44   C46   A    
C57   H25   S    
C54   C59   A    
C77   C79   A    
C78   C89   A    
C12   C67   S    
C33   H13   S    
C96   O13   A    
C91   O8    A    
C84   C85   A    
C86   C87   S    
C8    C9    A    
C47   H20   S    
C39   C43   A    
C63   C73   S    
C84   H41   S    
C25   C26   A    
C82   C86   A    
C17   C21   S    
C56   C60   S    
C32   C33   A    
C60   C61   A    
C37   N10   A    
C34   O25   A    
C75   C76   A    
C66   C71   A    
C5    C9    A    
C62   C63   A    
Cr5   O19   S    
C94   O15   A    
C38   H14   S    
C19   H2    S    
C97   H52   S    
C12   O21   A    
C55   H24   S    
C7    C13   A    
C92   O9    A    
C21   N6    A    
C1    C29   S    
C17   C18   A    
N6    N7    A    
C69   C74   A    
C51   C58   S    
C32   C37   S    
C76   C77   A    
C23   O23   A    
N2    N12   A    
C94   O14   A    
C4    H33   S    
Cr3   O3    S    
C35   O27   S    
C40   C41   A    
C54   H19   S    
C64   H28   S    
C60   C65   A    
C49   C50   A    
Cr1   O1    S    
C22   C27   A    
C55   C57   A    
C13   C92   S    
Cr4   O14   S    
N10   N11   A    
Cr6   O18   S    
C22   C24   A    
C79   C80   A    
C98   H50   S    
Cr2   O20   S    
C3    C4    A    
C83   H35   S    
C3    H22   S    
C36   N8    A    
Cr1   O24   S    
C44   C50   A    
Cr6   O11   S    
C89   H45   S    
C83   C90   A    
C68   H26   S    
C46   C47   A    
C48   C49   A    
C98   H49   S    
C5    H11   S    
C14   C19   A    
C31   C32   A    
C75   C81   A    
C24   C28   A    
C72   C73   T    
C85   H40   S    
C93   O6    A    
C4    C67   A    
C53   C58   A    
C90   C96   S    
C20   C27   S    
C16   H4    S    
C80   H37   S    
C56   O24   A    
C51   N4    A    
C29   C35   A    
C1    O12   A    
C30   H9    S    
C43   C93   S    
C64   C65   A    
C66   H27   S    
Cr2   O21   S    
C2    C3    A    
C45   O3    A    
C77   H42   S    
O27   H47   S    
Cr2   O26   S    
C56   O4    A    
C6    C13   A    
C30   C31   A    
C57   C58   A    
C38   C39   A    
C52   N3    A    
C22   H6    S    
Cr3   O4    S    
C33   C35   A    
C46   H17   S    
C28   C91   S    
C62   H34   S    
C69   C70   A    
Cr2   O5    S    
Cr5   O15   S    
C10   C11   T    
C39   H10   S    
C63   C64   A    
C48   C52   S    
C71   C72   S    
C52   N2    A    
C82   C83   A    
Cr4   O13   S    
Cr6   O17   S    
C21   N5    A    
C14   C15   A    
Cr5   O16   S    
C24   H3    S    
C96   O18   A    
Cr4   O19   S    
Cr3   O5    S    
C93   O11   A    
