data_mof_unit_9642.cif
_audit_creation_date              2013-03-05T15:41:38-0500
_audit_creation_method            fapswitch 2.2
_symmetry_space_group_name_H-M    P1
_symmetry_Int_Tables_number       1
_space_group_crystal_system       triclinic
_cell_length_a                    7.762225
_cell_length_b                    8.583736
_cell_length_c                    15.720014
_cell_angle_alpha                 90.834359
_cell_angle_beta                  85.870364
_cell_angle_gamma                 93.607187
_cell_volume                      1042.56504141

loop_
_atom_site_label
_atom_site_type_symbol
_atom_site_description
_atom_site_fract_x
_atom_site_fract_y
_atom_site_fract_z
_atom_type_partial_charge
O1    O     O_R   0.389240 0.738570 0.505550 -0.628654
O2    O     O_R   0.678400 0.711630 0.491050 -0.588647
C1    C     C_R   0.546143 0.794691 0.501896 0.848199
O3    O     O_R   0.355360 0.513470 0.630110 -0.599990
O4    O     O_R   0.644510 0.486530 0.615610 -0.594809
C2    C     C_R   0.502087 0.500015 0.661615 0.909200
Zn1   Zn    Zn3+2 0.306930 0.517990 0.509680 1.004516
Zn2   Zn    Zn3+2 0.693070 0.482010 0.490320 1.029280
O5    O     O_R   0.321600 0.288370 0.508950 -0.612435
O6    O     O_R   0.610760 0.261430 0.494450 -0.571685
O7    O     O_R   0.355490 0.513470 0.384390 -0.627059
O8    O     O_R   0.644640 0.486530 0.369890 -0.619380
C3    C     C_R   0.454975 0.205699 0.506749 0.978146
C4    C     C_R   0.497950 0.499971 0.338375 0.891916
C5    C     C_3   0.442103 0.656915 0.953562 -0.345561
C6    C     C_3   0.689812 0.471217 0.946325 0.193229
C7    C     C_3   0.685142 0.475513 0.045061 -0.457241
H1    H     H_    0.533586 0.755471 0.072181 0.190266
H2    H     H_    0.522441 0.758299 0.926378 0.219006
H3    H     H_    0.721437 0.351209 0.924879 0.112639
H4    H     H_    0.776017 0.569826 0.068011 0.207329
H5    H     H_    0.728705 0.363420 0.068152 0.151696
C8    C     C_1   0.493925 0.500431 0.249615 -0.168967
C9    C     C_3   0.506525 0.500306 0.917137 0.194522
C10   C     C_3   0.442978 0.658740 0.051639 -0.389553
C11   C     C_3   0.498727 0.500398 0.082677 0.297778
C12   C     C_3   0.374118 0.367224 0.051206 -0.404261
C13   C     C_3   0.378434 0.367149 0.952846 -0.445152
C14   C     C_1   0.494258 0.500548 0.174245 -0.093536
C15   C     C_1   0.507959 0.499814 0.825603 -0.029703
C16   C     C_1   0.506600 0.499734 0.750316 -0.076224
H6    H     H_    0.246020 0.382596 0.932619 0.230463
H7    H     H_    0.418041 0.252058 0.927340 0.185347
H8    H     H_    0.239711 0.382869 0.078315 0.188254
H9    H     H_    0.307901 0.670970 0.935398 0.209731
H10   H     H_    0.311418 0.681566 0.080264 0.179687
H11   H     H_    0.412389 0.252410 0.073143 0.178489
C17   C     C_2   0.570535 0.956564 0.518298 0.123179
C18   C     C_2   0.432969 0.042104 0.510799 -0.472497
H12   H     H_    0.306473 0.991547 0.495899 0.198835
N1    N     N_2   0.950340 0.457950 0.477370 -0.151461
H13   H     H_    0.013528 0.381748 0.436740 0.201808
N2    N     N_2   0.049660 0.542050 0.522630 -0.146853
H14   H     H_    0.986443 0.618189 0.563294 0.224953
N3    N     N_R   0.731238 0.017395 0.550551 0.233192
O9    O     O_R   0.878708 0.977893 0.514685 -0.394603
O10   O     O_R   0.729372 0.096732 0.621793 -0.362249
N4    N     N_R   0.825583 0.581413 0.908453 0.209949
O11   O     O_R   0.834533 0.727873 0.931335 -0.413525
O12   O     O_R   0.945634 0.530482 0.855004 -0.397562

loop_
_geom_bond_atom_site_label_1
_geom_bond_atom_site_label_2
_geom_bond_distance
_ccdc_geom_bond_type
C4    C8    1.397981 S    
O4    Zn2   1.978746 S    
Zn1   O7    1.978746 S    
N2    H14   1.029347 S    
Zn1   N2    2.015980 S    
N1    H13   1.029292 S    
C7    H5    1.113854 S    
C6    H3    1.115722 S    
Zn2   O8    1.957897 S    
C6    N4    1.469843 S    
N4    O12   1.301256 A    
C2    C16   1.397380 S    
C6    C9    1.561747 S    
N3    O9    1.301345 A    
C5    H2    1.110398 S    
N1    N2    1.271105 D    
C11   C12   1.549321 S    
O4    C2    1.287286 A    
H1    C10   1.113453 S    
C12   H11   1.113523 S    
O3    Zn1   1.957898 S    
C7    C11   1.549537 S    
C8    C14   1.184644 T    
C5    H9    1.113962 S    
N4    O11   1.301589 A    
O8    C4    1.286347 A    
C13   H7    1.113631 S    
O2    C1    1.286341 A    
N3    O10   1.301898 A    
C12   H8    1.113568 S    
C15   C16   1.184311 T    
O7    C4    1.287613 A    
C9    C15   1.438105 S    
C3    C18   1.405717 S    
C5    C10   1.542125 S    
C10   H10   1.113620 S    
C13   H6    1.113805 S    
C17   C18   1.346319 D    
Zn2   N1    2.015980 S    
C11   C14   1.437360 S    
O3    C2    1.286563 A    
O2    Zn2   1.981244 S    
C18   H12   1.088046 S    
Zn1   O5    1.981243 S    
O5    C3    1.289628 A    
C5    C9    1.551115 S    
C17   N3    1.444701 S    
O1    C1    1.278900 A    
C10   C11   1.548021 S    
O1    Zn1   1.960299 S    
Zn2   O6    1.960299 S    
C7    H4    1.113286 S    
C9    C13   1.550933 S    
C1    C17   1.412968 S    
C6    C7    1.549890 S    
C12   C13   1.544156 S    
O6    C3    1.274645 A    
