data_mof_unit_30686.cif
_audit_creation_date              2012-12-10T19:00:49-0500
_audit_creation_method            fapswitch 2.2
_symmetry_space_group_name_H-M    P1
_symmetry_Int_Tables_number       1
_space_group_crystal_system       triclinic
_cell_length_a                    15.018226
_cell_length_b                    10.804944
_cell_length_c                    9.564102
_cell_angle_alpha                 90.003946
_cell_angle_beta                  89.703826
_cell_angle_gamma                 90.306928
_cell_volume                      1551.9342611

loop_
_atom_site_label
_atom_site_type_symbol
_atom_type_description
_atom_site_fract_x
_atom_site_fract_y
_atom_site_fract_z
_atom_type_partial_charge
C1    C     C_R   0.498384 0.262381 0.499968 0.776865
C2    C     C_R   0.185508 0.397763 0.495310 -0.277564
C3    C     C_R   0.233303 0.507520 0.501077 -0.101306
C4    C     C_R   0.329271 0.500709 0.500321 0.787411
C5    C     C_R   0.190354 0.622632 0.507318 0.126883
C6    C     C_R   0.490191 0.063609 0.625514 0.108823
C7    C     C_R   0.489477 0.129195 0.499897 -0.085348
C8    C     C_R   0.476008 0.064288 0.374278 -0.199281
C9    C     C_R   0.475983 0.935305 0.374311 -0.200617
C10   C     C_R   0.489459 0.870647 0.499943 -0.065882
C11   C     C_R   0.490239 0.936309 0.625539 0.116964
C12   C     C_R   0.905268 0.627658 0.505785 -0.017522
C13   C     C_3   0.553887 0.930372 0.744855 -0.448343
C14   C     C_3   0.553689 0.070876 0.744968 -0.436452
C15   C     C_R   0.549402 0.584855 0.072474 0.161921
C16   C     C_R   0.498293 0.737590 0.499967 0.843050
C17   C     C_R   0.446555 0.421811 0.074834 -0.035476
C18   C     C_R   0.447046 0.421144 0.926049 -0.049876
C19   C     C_R   0.546473 0.588375 0.925597 0.173584
C20   C     C_3   0.643464 0.615771 0.913214 -0.482521
C21   C     C_3   0.648686 0.602994 0.070915 0.189608
C22   C     C_R   0.670709 0.500633 0.499698 0.906372
C23   C     C_R   0.954844 0.287071 0.490400 -0.138919
C24   C     C_R   0.810353 0.621794 0.502399 0.293750
C25   C     C_R   0.767104 0.506118 0.499127 -0.132856
C26   C     C_R   0.814283 0.395134 0.495748 0.054503
C27   C     C_R   0.907127 0.398431 0.495569 0.153923
C28   C     C_R   0.953070 0.513916 0.500985 -0.062937
C29   C     C_R   0.046803 0.287922 0.490197 -0.222437
C30   C     C_R   0.093231 0.399774 0.495637 0.146539
C31   C     C_R   0.047268 0.514025 0.501525 -0.009186
C32   C     C_R   0.095809 0.626910 0.507841 0.060991
C33   C     C_R   0.048633 0.739617 0.515057 0.167658
C34   C     C_R   0.955030 0.740646 0.514475 0.105146
Cl1   Cl    Cl    0.739762 0.753369 0.498264 -0.716116
Cl2   Cl    Cl    0.710604 0.467220 0.114969 -0.581516
Cu1   Cu    Cu3+1 0.500000 0.499980 0.640670 0.955736
Cu2   Cu    Cu3+1 0.500000 0.500020 0.359330 0.986327
H1    H     H_    0.469729 0.886993 0.275582 0.158375
H2    H     H_    0.670480 0.688995 0.124862 0.139990
H3    H     H_    0.921441 0.198066 0.486232 0.186785
H4    H     H_    0.081792 0.200449 0.485900 0.145504
H5    H     H_    0.220738 0.310335 0.490655 0.136024
H6    H     H_    0.469772 0.112469 0.275528 0.163288
H7    H     H_    0.727795 0.275495 0.403207 0.257363
H8    H     H_    0.727145 0.271319 0.580748 0.213540
H9    H     H_    0.283585 0.731173 0.600846 0.216884
H10   H     H_    0.283864 0.737627 0.423339 0.211851
H11   H     H_    0.076736 0.900562 0.616077 0.236441
H12   H     H_    0.522848 0.889424 0.840083 0.186605
H13   H     H_    0.077512 0.910787 0.438639 0.232887
H14   H     H_    0.874756 0.864514 0.615445 0.277066
H15   H     H_    0.880247 0.880859 0.433810 0.285127
H16   H     H_    0.619244 0.890427 0.714443 0.240133
H17   H     H_    0.522334 0.111058 0.840118 0.198362
H18   H     H_    0.618940 0.112414 0.714875 0.209563
H19   H     H_    0.404492 0.356912 0.130893 0.126088
H20   H     H_    0.405628 0.355407 0.870718 0.131392
H21   H     H_    0.681107 0.543862 0.855344 0.261189
H22   H     H_    0.656213 0.711762 0.876355 0.167808
N1    N     N_R   0.500570 0.500930 0.147930 -0.164812
N2    N     N_R   0.500570 0.500890 0.852020 -0.168635
N3    N     N_3   0.767953 0.278208 0.492152 -0.593113
N4    N     N_3   0.243129 0.733918 0.512262 -0.553842
N5    N     N_3   0.095497 0.855673 0.523721 -0.541153
N6    N     N_3   0.914453 0.860072 0.525582 -0.600797
O1    O     O_R   0.500000 0.319640 0.618810 -0.587041
O2    O     O_R   0.500010 0.319680 0.381230 -0.581762
O3    O     O_R   0.370250 0.499950 0.618800 -0.586114
O4    O     O_R   0.370260 0.499990 0.381220 -0.589462
O5    O     O_R   0.499990 0.680320 0.618770 -0.576979
O6    O     O_R   0.500000 0.680360 0.381190 -0.590859
O7    O     O_R   0.629740 0.500010 0.618780 -0.589396
O8    O     O_R   0.629750 0.500050 0.381200 -0.510195

loop_
_geom_bond_atom_site_label_1
_geom_bond_atom_site_label_2
_ccdc_geom_bond_type
C14   H18   S    
Cu2   O4    S    
Cu1   O3    S    
C29   H4    S    
C19   C20   S    
C16   O6    A    
C34   N6    S    
C4    O4    A    
Cu1   N2    S    
C33   N5    S    
C7    C8    A    
C21   Cl2   S    
C15   C19   A    
C26   C27   A    
C29   C30   A    
H11   N5    S    
C12   C28   A    
C23   C29   A    
C30   C31   A    
H10   N4    S    
C19   N2    A    
C9    H1    S    
C1    O2    A    
H13   N5    S    
C17   N1    A    
C18   H20   S    
C8    C9    A    
C22   C25   S    
C23   C27   A    
C20   H22   S    
C9    C10   A    
Cu2   N1    S    
C14   H17   S    
C13   C14   S    
C16   O5    A    
C4    O3    A    
C17   C18   A    
Cu2   O6    S    
C24   Cl1   S    
C24   C25   A    
H9    N4    S    
C18   N2    A    
C25   C26   A    
H7    N3    S    
C5    N4    S    
C26   N3    S    
Cu1   Cu2   S    
C6    C14   S    
C31   C32   A    
C2    H5    S    
C33   C34   A    
C15   N1    A    
C20   H21   S    
H15   N6    S    
Cu2   O2    S    
Cu1   O5    S    
C22   O8    A    
C12   C34   A    
C3    C4    S    
C6    C11   A    
H14   N6    S    
C13   H16   S    
Cu2   O8    S    
Cu1   O7    S    
C1    C7    S    
C28   C31   A    
C8    H6    S    
C3    C5    A    
C6    C7    A    
C12   C24   A    
C23   H3    S    
H8    N3    S    
C2    C30   A    
C32   C33   A    
C5    C32   A    
C2    C3    A    
C10   C16   S    
C11   C13   S    
C21   H2    S    
Cu1   O1    S    
C1    O1    A    
C10   C11   A    
C13   H12   S    
C15   C21   S    
C20   C21   S    
C27   C28   A    
C22   O7    A    
C17   H19   S    
