data_mof_unit_42369.cif
_audit_creation_date              2012-12-11T14:34:04-0500
_audit_creation_method            fapswitch 2.2
_symmetry_space_group_name_H-M    P1
_symmetry_Int_Tables_number       1
_space_group_crystal_system       triclinic
_cell_length_a                    14.01286
_cell_length_b                    14.042315
_cell_length_c                    27.206513
_cell_angle_alpha                 90.100493
_cell_angle_beta                  90.258563
_cell_angle_gamma                 119.230217
_cell_volume                      4671.72080186

loop_
_atom_site_label
_atom_site_type_symbol
_atom_type_description
_atom_site_fract_x
_atom_site_fract_y
_atom_site_fract_z
_atom_type_partial_charge
C1    C     C_R   0.234618 0.788360 0.568588 0.531665
C2    C     C_R   0.212134 0.445653 0.568244 0.535628
C3    C     C_R   0.555032 0.765967 0.568233 0.533917
C4    C     C_3   0.637357 0.736273 0.792291 -0.192074
C5    C     C_3   0.260058 0.897085 0.794178 -0.191293
C6    C     C_3   0.070995 0.317584 0.787974 -0.191309
C7    C     C_3   0.633152 0.722392 0.735320 0.148918
C8    C     C_3   0.276373 0.904431 0.737516 0.147246
C9    C     C_3   0.079022 0.346900 0.732375 0.148037
C10   C     C_1   0.705416 0.868200 0.860112 -0.080805
C11   C     C_1   0.128725 0.834113 0.860706 -0.079927
C12   C     C_1   0.126679 0.235494 0.852736 -0.080966
C13   C     C_1   0.641381 0.816423 0.656849 -0.034251
C14   C     C_1   0.184467 0.822624 0.657808 -0.037256
C15   C     C_1   0.174119 0.352260 0.654863 -0.031748
C16   C     C_1   0.610369 0.797777 0.614734 -0.036868
C17   C     C_1   0.203380 0.810999 0.615582 -0.040539
C18   C     C_1   0.189505 0.388574 0.613849 -0.035155
C19   C     C_R   0.065407 0.150696 0.095690 0.578780
C20   C     C_R   0.778377 0.884616 0.088351 0.547603
C21   C     C_R   0.116050 0.894282 0.088178 0.546986
C22   C     C_R   0.071351 0.162556 0.943098 0.562225
C23   C     C_R   0.779999 0.887702 0.950758 0.548885
C24   C     C_R   0.112375 0.892777 0.950849 0.546312
C25   C     C_R   0.619663 0.895742 0.362212 -0.133252
C26   C     C_R   0.097548 0.734877 0.363542 -0.134624
C27   C     C_R   0.263126 0.356084 0.364385 -0.135853
C28   C     C_R   0.646571 0.911779 0.312551 0.014038
C29   C     C_R   0.080663 0.746642 0.313776 0.014148
C30   C     C_R   0.239983 0.304311 0.318352 0.013730
C31   C     C_R   0.683409 0.930194 0.210787 0.016692
C32   C     C_R   0.061263 0.762035 0.211699 0.016457
C33   C     C_R   0.199274 0.223283 0.221336 0.016694
C34   C     C_R   0.232703 0.788504 0.432137 0.551689
C35   C     C_R   0.211823 0.444538 0.431618 0.553066
C36   C     C_R   0.555288 0.766920 0.432102 0.553654
C37   C     C_R   0.656497 0.001874 0.235115 -0.139221
C38   C     C_R   0.979236 0.674204 0.237674 -0.127876
C39   C     C_R   0.300661 0.254524 0.243864 -0.124188
C40   C     C_R   0.637903 0.992585 0.285738 -0.131856
C41   C     C_R   0.989573 0.665773 0.288389 -0.128687
C42   C     C_R   0.321002 0.295047 0.292015 -0.129159
C43   C     C_R   0.706222 0.940595 0.160376 -0.150893
C44   C     C_R   0.051855 0.772681 0.161080 -0.135092
C45   C     C_R   0.181612 0.193303 0.171593 -0.128317
C46   C     C_R   0.730138 0.865743 0.137123 -0.002480
C47   C     C_R   0.135248 0.861713 0.136257 -0.003334
C48   C     C_R   0.082626 0.170978 0.148689 -0.008299
C49   C     C_R   0.658652 0.744879 0.364617 -0.131631
C50   C     C_R   0.262904 0.911767 0.363138 -0.128271
C51   C     C_R   0.077029 0.325482 0.369009 -0.130398
C52   C     C_R   0.683519 0.758243 0.315027 0.013466
C53   C     C_R   0.251058 0.921536 0.313268 0.013726
C54   C     C_R   0.053313 0.275520 0.322979 0.011518
C55   C     C_R   0.674848 0.840215 0.288531 0.064037
C56   C     C_R   0.160857 0.837690 0.288140 0.063222
C57   C     C_R   0.135727 0.267158 0.296939 0.062717
C58   C     C_R   0.708576 0.685333 0.290845 -0.127190
C59   C     C_R   0.332837 0.009799 0.287646 -0.126720
C60   C     C_R   0.950680 0.240748 0.301218 -0.129385
C61   C     C_R   0.720903 0.690796 0.240210 -0.127590
C62   C     C_R   0.327511 0.013019 0.236811 -0.129303
C63   C     C_R   0.931607 0.203380 0.252834 -0.122894
C64   C     C_R   0.711326 0.771126 0.213693 0.010756
C65   C     C_R   0.238310 0.930196 0.211534 0.013921
C66   C     C_R   0.013845 0.197920 0.226049 0.016198
C67   C     C_3   0.584916 0.876891 0.731907 0.137240
C68   C     C_3   0.121114 0.706174 0.732640 0.135808
C69   C     C_3   0.276720 0.386148 0.733690 0.135282
C70   C     C_R   0.690377 0.847642 0.237694 0.065340
C71   C     C_R   0.153216 0.843323 0.237127 0.063643
C72   C     C_R   0.115654 0.227475 0.248387 0.062134
C73   C     C_R   0.725597 0.777666 0.163525 -0.122927
C74   C     C_R   0.230993 0.935581 0.161116 -0.132312
C75   C     C_R   0.997822 0.168956 0.176527 -0.130100
C76   C     C_R   0.618746 0.807691 0.387259 -0.002932
C77   C     C_R   0.192621 0.814323 0.387262 -0.003530
C78   C     C_R   0.183205 0.371252 0.388769 -0.004509
C79   C     C_3   0.780566 0.916629 0.722981 -0.177866
C80   C     C_3   0.082772 0.863376 0.723013 -0.178349
C81   C     C_3   0.122978 0.197258 0.712576 -0.181037
C82   C     C_3   0.796333 0.924785 0.779609 -0.219773
C83   C     C_3   0.068812 0.865126 0.779529 -0.221410
C84   C     C_3   0.113016 0.167089 0.767739 -0.230595
C85   C     C_1   0.733016 0.875400 0.902621 -0.028510
C86   C     C_1   0.123634 0.856671 0.903017 -0.025490
C87   C     C_1   0.102713 0.204006 0.894343 -0.018864
C88   C     C_3   0.660133 0.832987 0.710316 0.118384
C89   C     C_3   0.166417 0.824395 0.711285 0.118279
C90   C     C_3   0.163336 0.321013 0.707000 0.120064
C91   C     C_3   0.603910 0.894157 0.788787 -0.180847
C92   C     C_3   0.106234 0.707784 0.789615 -0.181729
C93   C     C_3   0.263647 0.356070 0.789573 -0.181503
C94   C     C_3   0.685583 0.857051 0.806594 0.012630
C95   C     C_3   0.139410 0.824478 0.807342 0.011614
C96   C     C_3   0.144530 0.268447 0.800826 0.008899
Cr1   Cr    Cr6+3 0.164410 0.584450 0.499910 0.990621
Cr2   Cr    Cr6+3 0.415550 0.579960 0.499910 0.993775
Cr3   Cr    Cr6+3 0.420040 0.835590 0.499910 0.984764
Cr4   Cr    Cr6+3 0.155170 0.075460 0.019960 1.016086
Cr5   Cr    Cr6+3 0.924540 0.079710 0.019960 1.007902
Cr6   Cr    Cr6+3 0.920290 0.844830 0.019960 1.004756
H1    H     H_    0.636427 0.981235 0.798885 0.148633
H2    H     H_    0.020216 0.652319 0.800130 0.150268
H3    H     H_    0.319471 0.325039 0.800807 0.148750
H4    H     H_    0.497137 0.815351 0.725609 0.058425
H5    H     H_    0.181241 0.677010 0.725849 0.057637
H6    H     H_    0.306387 0.475722 0.731049 0.057653
H7    H     H_    0.524489 0.847477 0.808118 0.071865
H8    H     H_    0.156767 0.677531 0.808566 0.072004
H9    H     H_    0.286700 0.430606 0.812035 0.076596
H10   H     H_    0.686115 0.703524 0.810246 0.138422
H11   H     H_    0.288969 0.977716 0.811398 0.138518
H12   H     H_    0.986736 0.258897 0.798989 0.136828
H13   H     H_    0.708837 0.007881 0.139816 0.104138
H14   H     H_    0.978015 0.715602 0.141659 0.114283
H15   H     H_    0.246236 0.192011 0.150341 0.122715
H16   H     H_    0.590363 0.945709 0.379947 0.127057
H17   H     H_    0.041559 0.660646 0.382513 0.123233
H18   H     H_    0.344872 0.390017 0.379719 0.124605
H19   H     H_    0.649769 0.064914 0.215022 0.098198
H20   H     H_    0.908231 0.611266 0.218667 0.098355
H21   H     H_    0.365522 0.251415 0.223655 0.100079
H22   H     H_    0.615413 0.047571 0.303786 0.099644
H23   H     H_    0.927117 0.595635 0.307629 0.100509
H24   H     H_    0.401190 0.322419 0.308058 0.101276
H25   H     H_    0.742255 0.718144 0.145734 0.129663
H26   H     H_    0.296078 0.003882 0.141862 0.123473
H27   H     H_    0.920479 0.148768 0.159026 0.118042
H28   H     H_    0.737988 0.632354 0.221772 0.098262
H29   H     H_    0.392549 0.080626 0.217304 0.094423
H30   H     H_    0.854228 0.183116 0.235691 0.111369
H31   H     H_    0.715048 0.621994 0.310831 0.100599
H32   H     H_    0.402755 0.074157 0.306722 0.097353
H33   H     H_    0.886833 0.247061 0.320832 0.102941
H34   H     H_    0.660178 0.678453 0.384248 0.127467
H35   H     H_    0.334538 0.975293 0.381653 0.131075
H36   H     H_    0.014162 0.334804 0.387970 0.129787
H37   H     H_    0.837521 0.892004 0.706169 0.141810
H38   H     H_    0.110480 0.946308 0.707892 0.142280
H39   H     H_    0.042200 0.148424 0.694155 0.142333
H40   H     H_    0.802880 0.997994 0.707611 0.142344
H41   H     H_    0.002595 0.808979 0.705253 0.144903
H42   H     H_    0.180320 0.174966 0.694377 0.146484
H43   H     H_    0.834718 0.011455 0.791365 0.102835
H44   H     H_    0.981312 0.813253 0.789059 0.111370
H45   H     H_    0.167642 0.132817 0.776295 0.117575
H46   H     H_    0.853736 0.894640 0.790115 0.120091
H47   H     H_    0.092497 0.949334 0.791627 0.112808
H48   H     H_    0.027972 0.102579 0.775509 0.106913
H49   H     H_    0.548875 0.660439 0.724199 0.064813
H50   H     H_    0.337033 0.877843 0.728639 0.068051
H51   H     H_    0.109748 0.436140 0.729154 0.066987
H52   H     H_    0.553122 0.688327 0.807205 0.067849
H53   H     H_    0.310252 0.863667 0.810872 0.068321
H54   H     H_    0.095298 0.392676 0.810269 0.075586
O1    O     O_R   0.137150 0.468200 0.553200 -0.524779
O2    O     O_R   0.531800 0.668950 0.553200 -0.524783
O3    O     O_R   0.331050 0.862850 0.553200 -0.527366
O4    O     O_R   0.179100 0.982980 0.967000 -0.518351
O5    O     O_R   0.017020 0.196120 0.967000 -0.494101
O6    O     O_R   0.803880 0.820900 0.967000 -0.505343
O7    O     O_R   0.173970 0.688730 0.549930 -0.517174
O8    O     O_R   0.311270 0.485240 0.549930 -0.517392
O9    O     O_R   0.514760 0.826030 0.549930 -0.519187
O10   O     O_R   0.140110 0.470540 0.446010 -0.520530
O11   O     O_R   0.529460 0.669570 0.446010 -0.521342
O12   O     O_R   0.330430 0.859890 0.446010 -0.523673
O13   O     O_R   0.176710 0.690910 0.450560 -0.500337
O14   O     O_R   0.309090 0.485800 0.450560 -0.500791
O15   O     O_R   0.514200 0.823290 0.450560 -0.503436
O16   O     O_3   0.333333 0.666667 0.499990 -0.257556
O17   O     O_R   0.176750 0.985260 0.074180 -0.534515
O18   O     O_R   0.014740 0.191490 0.074180 -0.498471
O19   O     O_R   0.808510 0.823250 0.074180 -0.518904
O20   O     O_R   0.146100 0.172630 0.068980 -0.481631
O21   O     O_R   0.827370 0.973470 0.068980 -0.520322
O22   O     O_R   0.026530 0.853900 0.068980 -0.497558
O23   O     O_3   1.000000 1.000000 0.020040 -0.270557
O24   O     O_R   0.148270 0.170520 0.969620 -0.478533
O25   O     O_R   0.829480 0.977750 0.969620 -0.516802
O26   O     O_R   0.022250 0.851730 0.969620 -0.496796
O27   O     O_3   0.611961 0.979266 0.710677 -0.612441
C97   C     C_3   0.544910 0.973201 0.670350 -0.006731
H55   H     H_    0.474281 0.978450 0.683846 0.153823
H56   H     H_    0.511626 0.896470 0.648953 0.140897
C98   C     C_3   0.610459 0.071275 0.636873 -0.268208
H57   H     H_    0.639800 0.147580 0.658528 0.153546
H58   H     H_    0.682750 0.067831 0.622366 0.171332
C99   C     C_3   0.542557 0.076370 0.594107 -0.457873
H59   H     H_    0.526116 0.010781 0.567285 0.206818
H60   H     H_    0.589003 0.155835 0.575052 0.121508
H61   H     H_    0.464265 0.068789 0.607370 0.168791
O28   O     O_3   0.017181 0.635484 0.711555 -0.606830
C100  C     C_3   0.021243 0.572925 0.671739 -0.001927
H62   H     H_    0.021452 0.500121 0.685989 0.146679
H63   H     H_    0.095368 0.615523 0.648960 0.141829
C101  C     C_3   0.919745 0.539162 0.639622 -0.261314
H64   H     H_    0.845173 0.494071 0.662266 0.154003
H65   H     H_    0.920393 0.613474 0.625165 0.176168
C102  C     C_3   0.914494 0.466993 0.596600 -0.465823
H66   H     H_    0.981181 0.514777 0.570377 0.199641
H67   H     H_    0.835161 0.436659 0.577001 0.124867
H68   H     H_    0.921545 0.395782 0.609674 0.170393
O29   O     O_3   0.351892 0.357194 0.713160 -0.606050
C103  C     C_3   0.420881 0.431085 0.677377 -0.001125
H69   H     H_    0.493826 0.494605 0.695882 0.135891
H70   H     H_    0.383685 0.472766 0.656634 0.133598
C104  C     C_3   0.455076 0.369137 0.641677 -0.259598
H71   H     H_    0.496562 0.331400 0.662343 0.156871
H72   H     H_    0.381031 0.302733 0.623635 0.176216
C105  C     C_3   0.532381 0.443728 0.602303 -0.470680
H73   H     H_    0.488889 0.473585 0.578125 0.202500
H74   H     H_    0.561323 0.397383 0.579457 0.127863
H75   H     H_    0.604458 0.514402 0.619250 0.159364
O30   O     O_3   0.710288 0.691227 0.718915 -0.581292
C106  C     C_3   0.688704 0.587528 0.736209 -0.016345
H76   H     H_    0.673624 0.533795 0.703787 0.143151
H77   H     H_    0.616332 0.546579 0.760771 0.115443
C107  C     C_3   0.789971 0.599864 0.763131 -0.253250
H78   H     H_    0.860719 0.643439 0.738711 0.233666
H79   H     H_    0.806141 0.649110 0.797112 0.140595
C108  C     C_3   0.778157 0.489716 0.776665 -0.475388
H80   H     H_    0.710874 0.448094 0.803386 0.142837
H81   H     H_    0.854358 0.500094 0.793952 0.149635
H82   H     H_    0.761662 0.439157 0.743123 0.141526
O31   O     O_3   0.311248 0.011768 0.719842 -0.586811
C109  C     C_3   0.412989 0.091548 0.739671 -0.015816
H83   H     H_    0.469619 0.131007 0.708533 0.150659
H84   H     H_    0.452082 0.058306 0.764974 0.121029
C110  C     C_3   0.396655 0.178818 0.765914 -0.254668
H85   H     H_    0.347994 0.200518 0.741254 0.242314
H86   H     H_    0.349662 0.147832 0.800280 0.134102
C111  C     C_3   0.504418 0.280018 0.778469 -0.470655
H87   H     H_    0.551375 0.258550 0.804838 0.140849
H88   H     H_    0.489324 0.342573 0.796098 0.150996
H89   H     H_    0.552518 0.316011 0.744699 0.143989
O32   O     O_3   0.976743 0.287549 0.707866 -0.585428
C112  C     C_3   0.895708 0.309908 0.726686 -0.025887
H90   H     H_    0.866098 0.341333 0.696296 0.145285
H91   H     H_    0.924159 0.371407 0.757033 0.124270
C113  C     C_3   0.799502 0.203001 0.743258 -0.243214
H92   H     H_    0.772196 0.148520 0.710988 0.227157
H93   H     H_    0.823317 0.163612 0.772204 0.151399
C114  C     C_3   0.706913 0.218727 0.762596 -0.480485
H94   H     H_    0.735431 0.275052 0.794636 0.140728
H95   H     H_    0.639183 0.139620 0.774869 0.166727
H96   H     H_    0.676146 0.250996 0.733057 0.129453

loop_
_geom_bond_atom_site_label_1
_geom_bond_atom_site_label_2
_ccdc_geom_bond_type
C15   C18   T    
C4    H52   S    
C10   C85   T    
C99   H59   S    
C82   C94   S    
Cr3   O3    S    
C26   C29   A    
C2    C18   S    
C33   C45   A    
C102  H66   S    
C79   H37   S    
C108  H80   S    
C48   C75   A    
Cr2   O14   S    
C27   C78   A    
C92   H8    S    
C25   H16   S    
C35   O10   A    
C6    C9    S    
C107  H79   S    
C53   C59   A    
C50   H35   S    
Cr1   O13   S    
C54   C60   A    
O29   C103  S    
C106  C107  S    
C67   C88   S    
C33   C39   A    
Cr1   O16   S    
C31   C43   A    
C60   C63   A    
C108  H81   S    
C8    H50   S    
C112  H90   S    
C28   C55   A    
C23   O25   A    
C37   C40   A    
C69   C93   S    
C80   C83   S    
C34   C77   S    
C64   C70   A    
C103  H70   S    
C53   C56   A    
C20   O19   A    
Cr3   O15   S    
C28   C40   A    
C11   C86   T    
C11   C95   S    
Cr1   O10   S    
C30   C57   A    
C104  C105  S    
C39   H21   S    
C97   H55   S    
C84   C96   S    
C80   C89   S    
C7    C88   S    
C19   O20   A    
C6    H12   S    
C98   C99   S    
C36   C76   S    
C33   C72   A    
C43   H13   S    
C69   H6    S    
C81   H42   S    
C66   C72   A    
Cr2   O2    S    
C65   C71   A    
Cr1   O7    S    
Cr4   O20   S    
C3    O2    A    
C113  H93   S    
C64   C73   A    
C101  H64   S    
C68   H5    S    
C32   C38   A    
C39   C42   A    
Cr2   O11   S    
C99   H61   S    
C44   C47   A    
C100  C101  S    
C93   H3    S    
C80   H41   S    
C58   C61   A    
C81   H39   S    
O28   C100  S    
C4    H10   S    
C63   C66   A    
C9    H51   S    
C105  H73   S    
C114  H94   S    
C27   C30   A    
Cr6   O23   S    
C102  H67   S    
C14   C17   T    
Cr5   O18   S    
C1    C17   S    
C111  H88   S    
C26   H17   S    
C4    C7    S    
C34   O12   A    
C109  H84   S    
C107  H78   S    
C5    C95   S    
C8    O31   S    
C68   C92   S    
C104  H71   S    
C32   C71   A    
C21   C47   S    
C31   C70   A    
C58   H31   S    
C40   H22   S    
C74   H26   S    
C108  H82   S    
C50   C53   A    
C98   H58   S    
C24   O26   A    
C113  C114  S    
C41   H23   S    
C1    O3    A    
O30   C106  S    
C38   C41   A    
C22   O24   A    
C2    O8    A    
C22   O5    A    
C92   H2    S    
C103  H69   S    
C109  C110  S    
Cr3   O16   S    
Cr6   O19   S    
C80   H38   S    
C36   O11   A    
C65   C74   A    
C31   C37   A    
C25   C28   A    
C111  H89   S    
Cr6   O26   S    
C61   C64   A    
O27   C97   S    
C14   C89   S    
Cr5   O23   S    
C5    C8    S    
C83   H44   S    
Cr4   O4    S    
C82   H46   S    
O31   C109  S    
C27   H18   S    
C105  H75   S    
Cr6   O6    S    
C56   C71   A    
C83   C95   S    
C101  C102  S    
C67   C91   S    
C113  H92   S    
C32   C44   A    
C49   C76   A    
C112  H91   S    
C22   C87   S    
C52   C58   A    
C60   H33   S    
C1    O7    A    
C38   H20   S    
C34   O13   A    
C67   O27   S    
C61   H28   S    
C93   H9    S    
C37   H19   S    
C81   C90   S    
Cr3   O9    S    
C21   O22   A    
C106  H76   S    
C49   H34   S    
C105  H74   S    
C93   C96   S    
C21   O17   A    
C114  H95   S    
Cr6   O22   S    
C102  H68   S    
C7    H49   S    
C114  H96   S    
C106  H77   S    
C111  H87   S    
C69   C90   S    
Cr4   O24   S    
C50   C77   A    
Cr4   O17   S    
C81   C84   S    
Cr5   O25   S    
C9    O32   S    
C3    O9    A    
Cr3   O12   S    
C45   C48   A    
C45   H15   S    
O32   C112  S    
C59   C62   A    
C99   H60   S    
C59   H32   S    
C62   C65   A    
C5    H11   S    
C19   C48   S    
C69   O29   S    
C62   H29   S    
C30   C42   A    
C7    O30   S    
C47   C74   A    
C91   H1    S    
C101  H65   S    
C91   C94   S    
C9    C90   S    
C79   C82   S    
Cr2   O8    S    
C24   O4    A    
C67   H4    S    
C20   O21   A    
C29   C56   A    
C84   H45   S    
C35   C78   S    
C6    C96   S    
C97   H56   S    
C97   C98   S    
C51   C54   A    
C49   C52   A    
C23   O6    A    
Cr5   O5    S    
C26   C77   A    
C51   C78   A    
Cr2   O16   S    
C98   H57   S    
C12   C87   T    
C73   H25   S    
C15   C90   S    
C52   C55   A    
C36   O15   A    
C103  C104  S    
C91   H7    S    
C4    C94   S    
C2    O1    A    
C66   C75   A    
C46   C73   A    
C13   C88   S    
C104  H72   S    
C63   H30   S    
C112  C113  S    
C92   C95   S    
C57   C72   A    
C5    H53   S    
C43   C46   A    
C20   C46   S    
C19   O18   A    
C55   C70   A    
Cr5   O21   S    
C110  C111  S    
C42   H24   S    
C109  H83   S    
C100  H62   S    
C79   H40   S    
C51   H36   S    
C79   C88   S    
C82   H43   S    
C44   H14   S    
C25   C76   A    
C110  H86   S    
C23   C85   S    
C13   C16   T    
C110  H85   S    
C35   O14   A    
C10   C94   S    
C29   C41   A    
C12   C96   S    
C83   H47   S    
C68   O28   S    
C8    C89   S    
C68   C89   S    
Cr4   O23   S    
C24   C86   S    
C107  C108  S    
C6    H54   S    
C3    C16   S    
C75   H27   S    
Cr1   O1    S    
C100  H63   S    
C54   C57   A    
C84   H48   S    
