data_mof_unit_65660.cif
_audit_creation_date              2012-12-10T18:12:37-0500
_audit_creation_method            fapswitch 2.2
_symmetry_space_group_name_H-M    P1
_symmetry_Int_Tables_number       1
_space_group_crystal_system       triclinic
_cell_length_a                    9.626801
_cell_length_b                    10.82783
_cell_length_c                    17.267418
_cell_angle_alpha                 87.933992
_cell_angle_beta                  87.38667
_cell_angle_gamma                 90.707172
_cell_volume                      1796.69307641

loop_
_atom_site_label
_atom_site_type_symbol
_atom_type_description
_atom_site_fract_x
_atom_site_fract_y
_atom_site_fract_z
_atom_type_partial_charge
C1    C     C_R   0.500238 0.739942 0.496972 0.925392
C2    C     C_R   0.380819 0.421256 0.774696 -0.191139
C3    C     C_R   0.448366 0.635261 0.154565 0.754800
C4    C     C_R   0.452803 0.620937 0.234559 -0.185541
C5    C     C_R   0.596717 0.439877 0.220692 -0.060519
C6    C     C_R   0.592495 0.453883 0.140437 -0.156997
C7    C     C_R   0.514729 0.549516 0.107146 -0.074681
C8    C     C_2   0.479935 0.463307 0.980202 0.444806
C9    C     C_2   0.504230 0.562003 0.022984 0.512873
C10   C     C_R   0.523134 0.521300 0.267556 -0.110262
C11   C     C_3   0.363079 0.933293 0.457736 0.636282
C12   C     C_R   0.483306 0.501772 0.649288 0.859028
C13   C     C_3   0.380970 0.075502 0.445765 0.394736
C14   C     C_3   0.505263 0.925153 0.580876 0.000046
C15   C     C_3   0.629574 0.936449 0.449009 0.726254
C16   C     C_3   0.497771 0.878992 0.496019 -0.373092
C17   C     C_3   0.498237 0.123123 0.497084 -0.380802
C18   C     C_3   0.474780 0.065309 0.581201 -0.026320
C19   C     C_3   0.637932 0.076649 0.461445 -0.303646
C20   C     C_3   0.920821 0.385839 0.464050 1.022843
C21   C     C_3   0.082737 0.374638 0.478311 0.755282
C22   C     C_3   0.926664 0.611009 0.455207 0.726721
C23   C     C_R   0.499330 0.260854 0.498218 0.943210
C24   C     C_3   0.911924 0.507788 0.578555 0.079157
C25   C     C_3   0.089902 0.592069 0.442261 0.042825
C26   C     C_3   0.076819 0.525267 0.576208 -0.448450
C27   C     C_R   0.517032 0.503387 0.350976 0.855191
C28   C     C_R   0.478276 0.499145 0.733754 -0.070400
C29   C     C_R   0.575520 0.566899 0.774370 0.299158
C30   C     C_R   0.577420 0.552076 0.854352 -0.108761
C31   C     C_R   0.479252 0.475365 0.895382 0.024219
C32   C     C_R   0.381640 0.409087 0.855242 -0.026225
Cu1   Cu    Cu3+1 0.357600 0.500140 0.499960 1.067227
Cu2   Cu    Cu3+1 0.642400 0.499860 0.500040 1.141458
H1    H     H_    0.649012 0.389864 0.104417 0.218986
H2    H     H_    0.281504 0.119948 0.460483 0.198629
H3    H     H_    0.364588 0.079218 0.600517 0.212998
H4    H     H_    0.667467 0.128495 0.406208 0.245474
H5    H     H_    0.400456 0.687068 0.270933 0.234064
H6    H     H_    0.721275 0.094651 0.502128 0.301540
H7    H     H_    0.612954 0.910236 0.599673 0.263130
H8    H     H_    0.866271 0.588871 0.606815 0.255057
H9    H     H_    0.653874 0.364221 0.246143 0.210149
H10   H     H_    0.120101 0.467892 0.623391 0.253989
H11   H     H_    0.103416 0.621928 0.590512 0.256866
H12   H     H_    0.142532 0.680973 0.451159 0.242063
H13   H     H_    0.305996 0.348522 0.886183 0.210915
H14   H     H_    0.306178 0.367822 0.744202 0.191336
H15   H     H_    0.656205 0.601049 0.884450 0.208823
N1    N     N_3   0.856560 0.499750 0.498270 -0.360773
N2    N     N_3   0.143860 0.496700 0.498910 -0.322309
O1    O     O_R   0.379740 0.682430 0.499960 -0.566621
O2    O     O_R   0.620260 0.682190 0.500020 -0.498007
O3    O     O_R   0.365800 0.500150 0.613560 -0.595830
O4    O     O_R   0.606310 0.499910 0.613620 -0.542315
O5    O     O_R   0.379740 0.317810 0.499980 -0.554186
O6    O     O_R   0.620260 0.317570 0.500040 -0.491244
O7    O     O_R   0.393690 0.500090 0.386380 -0.511230
O8    O     O_R   0.634200 0.499850 0.386440 -0.544272
Br1   Br    Br    0.702421 0.687498 0.725962 -0.352867
Br2   Br    Br    0.187439 0.902356 0.518099 -0.281198
F1    F     F_    0.343330 0.880556 0.387042 -0.564105
F2    F     F_    0.411018 0.107996 0.368274 -0.542319
Br3   Br    Br    0.390849 0.834893 0.661468 -0.346272
F3    F     F_    0.750591 0.887104 0.475814 -0.540062
Br4   Br    Br    0.631080 0.908101 0.337456 -0.203307
Br5   Br    Br    0.584701 0.142755 0.658894 -0.300745
F4    F     F_    0.899179 0.385725 0.385236 -0.589472
F5    F     F_    0.858569 0.279767 0.495302 -0.601916
Br6   Br    Br    0.112496 0.243088 0.558919 -0.336815
F6    F     F_    0.150660 0.331995 0.412325 -0.542401
Br7   Br    Br    0.844439 0.667225 0.358963 -0.185140
Br8   Br    Br    0.140166 0.563422 0.331856 -0.223975
Br9   Br    Br    0.853177 0.373782 0.652850 -0.292322
F7    F     F_    0.911510 0.714800 0.499448 -0.570887
F8    F     F_    0.510151 0.678056 0.989608 -0.585706
F9    F     F_    0.375299 0.730009 0.123714 -0.531197
F10   F     F_    0.449870 0.350646 0.015026 -0.621198

loop_
_geom_bond_atom_site_label_1
_geom_bond_atom_site_label_2
_ccdc_geom_bond_type
C10   C27   S    
Cu1   O7    S    
C24   H8    S    
C14   C18   S    
C11   F1    S    
C26   H10   S    
C23   O5    A    
Cu1   O1    S    
C15   C19   S    
C17   C23   S    
C21   F6    S    
C28   C29   A    
C18   H3    S    
C24   C26   S    
C3    C7    A    
C5    C6    A    
C15   C16   S    
C15   F3    S    
C6    H1    S    
C2    C32   A    
C1    O2    A    
C20   N1    S    
C26   H11   S    
C8    C9    D    
C22   C25   S    
Cu2   O6    S    
C29   Br1   S    
C9    F8    S    
C22   N1    S    
Cu1   O5    S    
C5    H9    S    
Cu2   O4    S    
C8    F10   S    
C22   F7    S    
C22   Br7   S    
C17   C18   S    
C24   N1    S    
Cu2   N1    S    
C13   H2    S    
C2    H14   S    
C18   Br5   S    
C15   Br4   S    
C25   N2    S    
C29   C30   A    
C19   H4    S    
C11   C16   S    
C31   C32   A    
C13   F2    S    
C4    H5    S    
C14   Br3   S    
Cu1   Cu2   S    
C1    C16   S    
C14   H7    S    
C23   O6    A    
C30   H15   S    
C12   C28   S    
Cu2   O8    S    
C32   H13   S    
C14   C16   S    
C20   F5    S    
C4    C10   A    
C3    C4    A    
C3    F9    S    
C21   N2    S    
Cu1   O3    S    
C7    C9    S    
C8    C31   S    
C20   F4    S    
C11   Br2   S    
C27   O7    A    
C6    C7    A    
Cu1   N2    S    
C13   C17   S    
C21   Br6   S    
C5    C10   A    
C27   O8    A    
C26   N2    S    
C11   C13   S    
C24   Br9   S    
C30   C31   A    
C17   C19   S    
C25   Br8   S    
C1    O1    A    
C12   O4    A    
C19   H6    S    
C20   C21   S    
Cu2   O2    S    
C2    C28   A    
C25   H12   S    
C12   O3    A    
