data_mof_unit_66928.cif
_audit_creation_date              2013-03-05T15:57:28-0500
_audit_creation_method            fapswitch 2.2
_symmetry_space_group_name_H-M    P1
_symmetry_Int_Tables_number       1
_space_group_crystal_system       triclinic
_cell_length_a                    17.223434
_cell_length_b                    18.504504
_cell_length_c                    8.446322
_cell_angle_alpha                 90.006401
_cell_angle_beta                  101.721309
_cell_angle_gamma                 89.944945
_cell_volume                      2635.80129516

loop_
_atom_site_label
_atom_site_type_symbol
_atom_site_description
_atom_site_fract_x
_atom_site_fract_y
_atom_site_fract_z
_atom_type_partial_charge
P1    P     P_3+3 0.834140 0.419320 0.003900 0.977353
P2    P     P_3+3 0.834140 0.580680 0.503900 0.976482
P3    P     P_3+3 0.334140 0.919320 0.003900 0.980648
P4    P     P_3+3 0.334140 0.080680 0.503900 0.976141
O1    O     O_2   0.841960 0.394640 0.833410 -0.465886
O2    O     O_2   0.841960 0.605360 0.333410 -0.464090
O3    O     O_2   0.341960 0.894640 0.833410 -0.463875
O4    O     O_2   0.341960 0.105360 0.333410 -0.465268
O5    O     O_3   0.907950 0.463080 0.102990 -0.468062
O6    O     O_3   0.907950 0.536920 0.602990 -0.468523
O7    O     O_3   0.407950 0.963080 0.102990 -0.469501
O8    O     O_3   0.407950 0.036920 0.602990 -0.469357
O9    O     O_3   0.972780 0.329600 0.629720 -0.467893
O10   O     O_3   0.972780 0.670400 0.129720 -0.468004
O11   O     O_3   0.472780 0.829600 0.629720 -0.467395
O12   O     O_3   0.472780 0.170400 0.129720 -0.466598
O13   O     O_2   0.838316 0.278051 0.692899 -0.453321
O14   O     O_2   0.838149 0.721887 0.192322 -0.450308
O15   O     O_2   0.336984 0.779599 0.690882 -0.444966
O16   O     O_2   0.338413 0.222106 0.190388 -0.450052
O17   O     O_3   0.755594 0.481476 0.972505 -0.654582
O18   O     O_3   0.755465 0.518668 0.472316 -0.655397
O19   O     O_3   0.255514 0.981466 0.972265 -0.656191
O20   O     O_3   0.255443 0.018762 0.472342 -0.655694
O21   O     O_3   0.935395 0.181172 0.638294 -0.590354
O22   O     O_3   0.935314 0.818835 0.139019 -0.590793
O23   O     O_3   0.433229 0.681345 0.640978 -0.579841
O24   O     O_3   0.436416 0.319930 0.143301 -0.587665
H1    H     H_    0.015787 0.166805 0.488798 0.075232
H2    H     H_    0.015771 0.833230 0.989740 0.075382
H3    H     H_    0.516341 0.667605 0.498643 0.067066
H4    H     H_    0.513765 0.340019 0.990132 0.076977
C1    C     C_3   0.962405 0.065868 0.541415 -0.336362
C2    C     C_3   0.962521 0.934235 0.043165 -0.335726
C3    C     C_3   0.462229 0.566269 0.544107 -0.338989
C4    C     C_3   0.458629 0.438588 0.052888 -0.337771
H5    H     H_    0.490215 0.555570 0.672005 0.129393
H6    H     H_    0.491890 0.467411 0.972801 0.056495
H7    H     H_    0.990063 0.055808 0.669796 0.129632
H8    H     H_    0.997582 0.960972 0.963567 0.059233
H9    H     H_    0.901589 0.042806 0.517896 0.110882
H10   H     H_    0.990124 0.944037 0.171666 0.129758
H11   H     H_    0.401397 0.543279 0.520296 0.109039
H12   H     H_    0.487399 0.447751 0.181033 0.126435
P5    P     P_3+3 0.165830 0.418670 0.685610 0.956798
P6    P     P_3+3 0.165830 0.581330 0.185610 0.956682
P7    P     P_3+3 0.665830 0.918670 0.685610 0.955894
P8    P     P_3+3 0.665830 0.081330 0.185610 0.956036
P9    P     P_3+3 0.101900 0.265513 0.115945 0.991011
P10   P     P_3+3 0.101671 0.734588 0.615565 0.991019
P11   P     P_3+3 0.603093 0.766368 0.115069 1.007226
P12   P     P_3+3 0.601669 0.234557 0.615685 0.994224
O25   O     O_2   0.157990 0.394030 0.856030 -0.471370
O26   O     O_2   0.157990 0.605970 0.356030 -0.477935
O27   O     O_2   0.657990 0.894030 0.856030 -0.473558
O28   O     O_2   0.657990 0.105970 0.356030 -0.474761
O29   O     O_3   0.027110 0.329490 0.059550 -0.498173
O30   O     O_3   0.027110 0.670510 0.559550 -0.497812
O31   O     O_3   0.527110 0.829490 0.059550 -0.475741
O32   O     O_3   0.527110 0.170510 0.559550 -0.497079
O33   O     O_2   0.163537 0.277113 0.009336 -0.462515
O34   O     O_2   0.163243 0.723062 0.508723 -0.463046
O35   O     O_2   0.665481 0.780126 0.011483 -0.466263
O36   O     O_2   0.662830 0.223527 0.507727 -0.463166
O37   O     O_3   0.248761 0.475064 0.724345 -0.647149
O38   O     O_3   0.248282 0.523947 0.221578 -0.647708
O39   O     O_3   0.748499 0.975648 0.722062 -0.647773
O40   O     O_3   0.748577 0.024320 0.222244 -0.647788
O41   O     O_3   0.059400 0.181849 0.057495 -0.571867
O42   O     O_3   0.058840 0.818191 0.557190 -0.570727
O43   O     O_3   0.561740 0.683251 0.048252 -0.551326
O44   O     O_3   0.558538 0.318212 0.558982 -0.569510
C5    C     C_3   0.980923 0.183431 0.081146 0.391864
C6    C     C_3   0.980581 0.816693 0.582110 0.392645
C7    C     C_3   0.511817 0.661120 0.151767 0.358797
C8    C     C_3   0.481238 0.317125 0.589405 0.396919
H13   H     H_    0.942405 0.212617 0.979500 0.084718
H14   H     H_    0.941758 0.787653 0.480739 0.083392
H15   H     H_    0.491404 0.705897 0.221660 -0.095775
H16   H     H_    0.440955 0.287972 0.490329 0.078468
H17   H     H_    0.975929 0.209350 0.197620 -0.120685
H18   H     H_    0.975989 0.790680 0.698698 -0.121331
H19   H     H_    0.543609 0.620159 0.237190 -0.017467
H20   H     H_    0.478454 0.291512 0.707443 -0.127794
C9    C     C_3   0.951594 0.106793 0.083952 -0.404131
C10   C     C_3   0.951361 0.893387 0.585747 -0.404449
C11   C     C_3   0.438183 0.627441 0.051145 -0.340323
C12   C     C_3   0.452536 0.393973 0.594066 -0.404282
H21   H     H_    0.401571 0.670422 0.980612 0.128458
H22   H     H_    0.389440 0.394974 0.605589 0.078487
H23   H     H_    0.888358 0.106192 0.094486 0.077572
H24   H     H_    0.888100 0.894116 0.596111 0.077838
H25   H     H_    0.958453 0.079883 0.970708 0.127126
H26   H     H_    0.958364 0.920486 0.472871 0.127235
H27   H     H_    0.455905 0.587718 0.967158 0.121320
H28   H     H_    0.459037 0.421112 0.480911 0.128044
C13   C     C_3   0.228846 0.457790 0.283968 0.273177
C14   C     C_3   0.228971 0.542997 0.777661 0.269452
C15   C     C_3   0.729300 0.957596 0.282253 0.272003
C16   C     C_3   0.729260 0.042259 0.782842 0.272280
H29   H     H_    0.231643 0.464072 0.415075 0.028143
H30   H     H_    0.236391 0.541646 0.910778 0.025466
H31   H     H_    0.733074 0.962657 0.413932 0.030188
H32   H     H_    0.733568 0.037000 0.914629 0.030692
H33   H     H_    0.169535 0.437444 0.223717 0.045392
H34   H     H_    0.168080 0.561207 0.722216 0.047112
H35   H     H_    0.669670 0.937680 0.222882 0.044087
H36   H     H_    0.669416 0.062124 0.724491 0.043806
C17   C     C_3   0.289715 0.402040 0.257719 -0.348878
C18   C     C_3   0.286050 0.597519 0.732046 -0.346931
C19   C     C_3   0.789612 0.902219 0.251508 -0.348573
C20   C     C_3   0.789152 0.097832 0.751448 -0.350882
H37   H     H_    0.349775 0.425709 0.288049 0.128195
H38   H     H_    0.347388 0.577250 0.769232 0.129674
H39   H     H_    0.849752 0.925816 0.279954 0.129006
H40   H     H_    0.849358 0.074198 0.777783 0.130540
H41   H     H_    0.287553 0.353857 0.334525 0.065104
H42   H     H_    0.280156 0.650246 0.790308 0.078920
H43   H     H_    0.788040 0.853425 0.326833 0.069174
H44   H     H_    0.788070 0.146277 0.828091 0.067103
H45   H     H_    0.278081 0.385429 0.129108 0.138236
H46   H     H_    0.273798 0.604461 0.599502 0.137741
H47   H     H_    0.776844 0.886681 0.122324 0.139527
H48   H     H_    0.775466 0.114009 0.622673 0.138042
Ba1   Ba    Ba6+2 0.000000 0.447380 0.844850 1.682680
Ba2   Ba    Ba6+2 1.000000 0.552620 0.344850 1.681766
Ba3   Ba    Ba6+2 0.500000 0.947380 0.844850 1.691259
Ba4   Ba    Ba6+2 0.500000 0.052620 0.344850 1.685435
C21   C     C_3   0.729424 0.495659 0.807742 0.284802
C22   C     C_3   0.729191 0.504399 0.307472 0.282228
C23   C     C_3   0.229647 0.995955 0.807504 0.284313
C24   C     C_3   0.229469 0.004436 0.307531 0.285305
H49   H     H_    0.717617 0.445481 0.735390 0.094490
H50   H     H_    0.718353 0.554492 0.234513 0.092534
H51   H     H_    0.218623 0.945934 0.734439 0.096294
H52   H     H_    0.218465 0.054520 0.234603 0.096051
H53   H     H_    0.774431 0.529059 0.766032 0.031124
H54   H     H_    0.773701 0.470055 0.266322 0.031139
H55   H     H_    0.274447 0.030004 0.766818 0.028937
H56   H     H_    0.274180 0.970292 0.266583 0.027732
C25   C     C_3   0.650746 0.534907 0.782139 -0.246979
C26   C     C_3   0.649671 0.466534 0.281496 -0.249640
C27   C     C_3   0.150382 0.034295 0.781045 -0.248230
C28   C     C_3   0.150170 0.966335 0.281095 -0.248243
H57   H     H_    0.622850 0.531532 0.651866 0.045952
H58   H     H_    0.621436 0.470774 0.151483 0.044317
H59   H     H_    0.122680 0.030394 0.650764 0.047535
H60   H     H_    0.122536 0.970226 0.150778 0.047397
H61   H     H_    0.611046 0.508182 0.852772 0.050373
H62   H     H_    0.610728 0.493698 0.353175 0.049538
H63   H     H_    0.110956 0.007217 0.851671 0.051675
H64   H     H_    0.110757 0.993603 0.351571 0.051544
O45   O     O_3   0.092100 0.536880 0.086720 -0.491996
O46   O     O_3   0.092100 0.463120 0.586720 -0.495009
O47   O     O_3   0.592100 0.036880 0.086720 -0.494139
O48   O     O_3   0.592100 0.963120 0.586720 -0.494008
P13   P     P_3+3 0.896174 0.733992 0.077857 0.999694
P14   P     P_3+3 0.896128 0.266120 0.577870 0.997551
P15   P     P_3+3 0.397245 0.235213 0.077968 0.998497
P16   P     P_3+3 0.395552 0.766542 0.578095 1.013539
C29   C     C_3   0.957986 0.146031 0.507183 0.319200
C30   C     C_3   0.958010 0.854133 0.008281 0.318537
C31   C     C_3   0.457982 0.646546 0.512080 0.329036
C32   C     C_3   0.455919 0.358532 0.013185 0.317469
H65   H     H_    0.915277 0.151904 0.391970 -0.065510
H66   H     H_    0.915333 0.848540 0.892999 -0.065471
H67   H     H_    0.416620 0.652729 0.395240 -0.086335
H68   H     H_    0.412309 0.353077 0.899179 -0.063084
H69   H     H_    0.496695 0.540200 0.462209 0.056925
H70   H     H_    0.397428 0.460720 0.033001 0.109979
H71   H     H_    0.997382 0.039157 0.461534 0.058942
H72   H     H_    0.901743 0.957484 0.019698 0.110453
H73   H     H_    0.402854 0.599959 0.129586 0.062495
H74   H     H_    0.489265 0.422694 0.698120 0.103315
H75   H     H_    0.987727 0.077604 0.187967 0.105379
H76   H     H_    0.987513 0.922317 0.690065 0.105125
C33   C     C_R   0.137337 0.676980 0.925942 -0.274601
C34   C     C_R   0.137068 0.322884 0.426616 -0.272875
C35   C     C_R   0.637401 0.176923 0.926064 -0.272919
C36   C     C_R   0.637379 0.823017 0.426235 -0.268022
C37   C     C_R   0.855065 0.328053 0.270520 -0.247203
C38   C     C_R   0.855400 0.672020 0.770491 -0.246360
C39   C     C_R   0.355233 0.827969 0.270149 -0.243362
C40   C     C_R   0.356501 0.172944 0.770036 -0.243147
C41   C     C_R   0.785491 0.217404 0.303913 -0.086863
C42   C     C_R   0.786005 0.782937 0.803442 -0.091462
C43   C     C_R   0.285816 0.717255 0.303257 -0.083689
C44   C     C_R   0.286233 0.283306 0.803556 -0.089638
C45   C     C_R   0.840313 0.271129 0.367153 0.022065
C46   C     C_R   0.840741 0.729114 0.866896 0.023479
C47   C     C_R   0.340481 0.771054 0.366720 0.016573
C48   C     C_R   0.341972 0.230217 0.866458 0.016868
C49   C     C_R   0.813222 0.335187 0.111645 0.013725
C50   C     C_R   0.813442 0.664835 0.611712 0.012779
C51   C     C_R   0.313261 0.835175 0.111410 0.023380
C52   C     C_R   0.313800 0.165137 0.611763 0.013140
C53   C     C_R   0.754514 0.281744 0.047186 -0.031234
C54   C     C_R   0.754724 0.718284 0.547246 -0.024988
C55   C     C_R   0.254451 0.781813 0.046979 -0.028272
C56   C     C_R   0.254809 0.218411 0.547488 -0.031510
C57   C     C_R   0.241777 0.720915 0.144026 -0.054781
C58   C     C_R   0.241950 0.279276 0.644521 -0.055574
C59   C     C_R   0.741622 0.220985 0.144479 -0.056482
C60   C     C_R   0.741943 0.779181 0.644262 -0.056419
C61   C     C_R   0.182911 0.667547 0.080733 0.048513
C62   C     C_R   0.182749 0.332387 0.581289 0.048181
C63   C     C_R   0.682813 0.167596 0.081031 0.047654
C64   C     C_R   0.682909 0.832448 0.580993 0.049187
C65   C     C_R   0.151667 0.733928 0.829024 -0.005373
C66   C     C_R   0.151834 0.266174 0.329457 -0.003073
C67   C     C_R   0.652079 0.233618 0.828864 -0.002355
C68   C     C_R   0.652134 0.766264 0.329170 -0.024917
C69   C     C_R   0.208054 0.786764 0.889499 -0.071785
C70   C     C_R   0.208492 0.213480 0.389886 -0.070685
C71   C     C_R   0.708468 0.286441 0.889335 -0.070188
C72   C     C_R   0.708585 0.713461 0.389587 -0.080044
H77   H     H_    0.279226 0.672461 0.380042 0.095443
H78   H     H_    0.278947 0.327848 0.880895 0.099163
H79   H     H_    0.778868 0.172608 0.380983 0.097290
H80   H     H_    0.779486 0.827893 0.880205 0.098793
H81   H     H_    0.716163 0.330032 0.810186 0.111843
H82   H     H_    0.716310 0.669876 0.310399 0.107963
H83   H     H_    0.215540 0.830530 0.810598 0.111443
H84   H     H_    0.216300 0.169914 0.310715 0.111759
H85   H     H_    0.093086 0.637164 0.876179 0.050733
H86   H     H_    0.092602 0.362605 0.376932 0.050199
H87   H     H_    0.593047 0.137182 0.876376 0.049679
H88   H     H_    0.593091 0.862858 0.376364 0.048253
H89   H     H_    0.898360 0.368437 0.321754 0.059277
H90   H     H_    0.898634 0.631537 0.821852 0.059702
H91   H     H_    0.398447 0.868404 0.321484 0.056067
H92   H     H_    0.400082 0.132704 0.821118 0.059667
C73   C     C_2   0.660837 0.612484 0.829275 0.889839
O49   O     O_2   0.698800 0.629737 0.962241 -0.585472
O50   O     O_R   0.625215 0.664642 0.719593 -0.787844
H93   H     H_    0.627402 0.714858 0.766250 0.340942
C74   C     C_2   0.658262 0.388650 0.326780 0.893509
O51   O     O_2   0.694852 0.370552 0.460304 -0.580674
O52   O     O_R   0.623096 0.337235 0.214639 -0.787676
H94   H     H_    0.624481 0.286745 0.259730 0.338655
C75   C     C_2   0.159215 0.112061 0.827098 0.890716
O53   O     O_2   0.196298 0.129884 0.960383 -0.579303
O54   O     O_R   0.123583 0.163693 0.715932 -0.788096
H95   H     H_    0.125259 0.214115 0.761434 0.338732
C76   C     C_2   0.158906 0.888586 0.327401 0.889078
O55   O     O_2   0.195428 0.870796 0.461203 -0.580638
O56   O     O_R   0.123866 0.836929 0.215835 -0.789106
H96   H     H_    0.125309 0.786542 0.261445 0.338681

loop_
_geom_bond_atom_site_label_1
_geom_bond_atom_site_label_2
_geom_bond_distance
_ccdc_geom_bond_type
C24   C28   1.513367 S    
C26   C74   1.490629 S    
C15   H31   1.104817 S    
C12   H28   1.105388 S    
P1    O17   1.753484 S    
P5    C62   1.874461 S    
C14   C18   1.512854 S    
C39   H91   1.082443 S    
C4    H70   1.110987 S    
P6    C61   1.877143 S    
C26   H58   1.109726 S    
P3    O19   1.754360 S    
O52   H94   1.007405 S    
C2    H10   1.107880 S    
O4    Ba4   2.873859 S    
C20   H40   1.105204 S    
C28   H60   1.109218 S    
C54   C72   1.408148 A    
C18   H42   1.106545 S    
C9    H23   1.110706 S    
C54   C60   1.436095 A    
C25   H61   1.111071 S    
O3    Ba3   2.875627 S    
O8    Ba3   2.848119 S    
C22   H50   1.107646 S    
C27   H59   1.109258 S    
O26   Ba2   2.879026 S    
C1    H7    1.107880 S    
P7    C64   1.875445 S    
C29   H65   1.099504 S    
P1    O1    1.542364 D    
O15   P16   1.540583 D    
O38   C13   1.400385 S    
P7    O27   1.541848 D    
C3    H5    1.107616 S    
P1    Ba1   3.434699 S    
O37   C14   1.400211 S    
C20   H48   1.106336 S    
P3    O3    1.542364 D    
O29   Ba1   2.814312 S    
P4    O20   1.754182 S    
P3    Ba3   3.434699 S    
C21   C25   1.513150 S    
P7    O48   1.598125 S    
O2    Ba2   2.873859 S    
O31   Ba3   2.814312 S    
O54   H95   1.007246 S    
C35   C67   1.386936 A    
C16   H32   1.104746 S    
P9    O29   1.742306 S    
C34   C66   1.386885 A    
O22   P13   1.745436 S    
C19   H43   1.108114 S    
C75   O53   1.221579 D    
C14   H34   1.110190 S    
C33   C65   1.387199 A    
C36   C68   1.386920 A    
P13   C46   1.844884 S    
O28   Ba4   2.879026 S    
P12   O32   1.741808 S    
Ba4   O47   2.959520 S    
O23   C31   1.403425 S    
C30   H66   1.099292 S    
C9    H25   1.105663 S    
P11   C68   1.833854 S    
C38   H90   1.082404 S    
C60   C64   1.438191 A    
P10   C65   1.833429 S    
O21   C29   1.405353 S    
O16   P15   1.542293 D    
C11   H27   1.106393 S    
P9    C66   1.833545 S    
P2    O18   1.755027 S    
P12   C67   1.833304 S    
C56   C70   1.409021 A    
O50   H93   1.007040 S    
C40   C48   1.389680 A    
O41   C5    1.406178 S    
C15   C19   1.517915 S    
C38   C50   1.394566 A    
P4    O8    1.593163 S    
O6    Ba1   2.848119 S    
C3    H11   1.111024 S    
C73   O49   1.221773 D    
C18   H38   1.104475 S    
C51   C55   1.440492 A    
C53   C71   1.408675 A    
C4    H12   1.108144 S    
P4    O4    1.542536 D    
O9    Ba1   2.815405 S    
C27   H63   1.110553 S    
P5    O25   1.541848 D    
P9    O41   1.741129 S    
C74   O51   1.221529 D    
O18   C22   1.399015 S    
O12   P15   1.757286 S    
C8    H20   1.113765 S    
P2    O2    1.542536 D    
P11   O43   1.740681 S    
C6    H18   1.113327 S    
C71   H81   1.073050 S    
C5    H17   1.113303 S    
Ba1   O45   2.849599 S    
C28   C76   1.490402 S    
C12   H74   1.108919 S    
C35   C63   1.392334 A    
C10   H26   1.105405 S    
C11   H73   1.110101 S    
C1    H71   1.107683 S    
H3    C31   1.105518 S    
C16   H36   1.110556 S    
C16   C20   1.518260 S    
P9    O33   1.540380 D    
P4    Ba4   3.433823 S    
O10   P13   1.754917 S    
C19   H47   1.106413 S    
P10   O30   1.742101 S    
C68   C72   1.398980 A    
O32   Ba4   2.814693 S    
C2    H72   1.111314 S    
P1    O5    1.594309 S    
C40   H92   1.082331 S    
P12   O36   1.540325 D    
P14   C45   1.845282 S    
C37   H89   1.082428 S    
C52   C56   1.439769 A    
C37   C45   1.387537 A    
C23   H55   1.104143 S    
O23   P16   1.745523 S    
C40   C52   1.396275 A    
C42   H80   1.074393 S    
O22   C30   1.405288 S    
O24   P15   1.751503 S    
P3    C51   1.874140 S    
O19   C23   1.398195 S    
C75   O54   1.391415 S    
C3    C31   1.508979 S    
C42   C46   1.400336 A    
C1    C29   1.510209 S    
C36   C64   1.392030 A    
O42   C6    1.406134 S    
P12   O44   1.740955 S    
C14   H30   1.105769 S    
P8    Ba4   3.436977 S    
C13   C17   1.518153 S    
O20   C24   1.398324 S    
C39   C51   1.394293 A    
C33   C61   1.392399 A    
C41   C59   1.405420 A    
C32   H68   1.099033 S    
C31   H67   1.099423 S    
C24   H52   1.107527 S    
O17   C21   1.397750 S    
P6    O26   1.541677 D    
C27   C75   1.490459 S    
P11   O35   1.538667 D    
O44   C8    1.406422 S    
P7    O39   1.748843 S    
C6    C10   1.507714 S    
P7    Ba3   3.436081 S    
O13   P14   1.541661 D    
C73   O50   1.390795 S    
C5    C9    1.507692 S    
O25   Ba1   2.877241 S    
O39   C16   1.400305 S    
C21   H49   1.107559 S    
P2    Ba2   3.433823 S    
C7    C11   1.510815 S    
P8    O47   1.599284 S    
C12   H22   1.110738 S    
O30   Ba2   2.814693 S    
C44   H78   1.074618 S    
C74   O52   1.391759 S    
C53   C59   1.436504 A    
P5    O37   1.746179 S    
Ba1   Ba2   4.650735 S    
P10   O34   1.540399 D    
C2    H8    1.107721 S    
C17   H41   1.107798 S    
P11   O31   1.744910 S    
H2    C30   1.107435 S    
Ba3   O47   2.849599 S    
Ba3   Ba4   4.650735 S    
P2    O6    1.593163 S    
Ba2   O46   2.848093 S    
O9    P14   1.755715 S    
C42   C60   1.404965 A    
C23   C27   1.513705 S    
Ba1   O46   2.959867 S    
O24   C32   1.407657 S    
C20   H44   1.108049 S    
C43   H77   1.072738 S    
C58   C62   1.437956 A    
P4    C52   1.877098 S    
P6    O45   1.599284 S    
C8    C12   1.508206 S    
C57   C61   1.438943 A    
C41   H79   1.074401 S    
C55   C69   1.408624 A    
C43   C47   1.400539 A    
P15   C48   1.848106 S    
P6    Ba2   3.436977 S    
C8    H16   1.112383 S    
P16   C47   1.845518 S    
O27   Ba3   2.877241 S    
C2    C30   1.510221 S    
C39   C47   1.387075 A    
Ba3   O48   2.959867 S    
C19   H39   1.104996 S    
O56   H96   1.007239 S    
P6    O38   1.748826 S    
C41   C45   1.400701 A    
P5    O46   1.598125 S    
C17   H37   1.104854 S    
C24   H56   1.104118 S    
C15   H35   1.110625 S    
C43   C57   1.405048 A    
C23   H51   1.107373 S    
O5    Ba2   2.849626 S    
O10   Ba2   2.815022 S    
P8    O40   1.748666 S    
C44   C48   1.400001 A    
C1    H9    1.111322 S    
C4    C32   1.517521 S    
C26   H62   1.110555 S    
C76   O56   1.391310 S    
C67   C71   1.399914 A    
P10   O42   1.740905 S    
O40   C15   1.400333 S    
C13   H33   1.110740 S    
O11   P16   1.757310 S    
C28   H64   1.110489 S    
O14   P13   1.541673 D    
C10   H24   1.110727 S    
C18   H46   1.103776 S    
O43   C7    1.406300 S    
C69   H83   1.073253 S    
C7    H19   1.110734 S    
C50   C54   1.439427 A    
C59   C63   1.438895 A    
C49   C53   1.440477 A    
H4    C32   1.107260 S    
P8    C63   1.876216 S    
C4    H6    1.108303 S    
C25   H57   1.109373 S    
C9    H75   1.108241 S    
C3    H69   1.108970 S    
C36   H88   1.082250 S    
O1    Ba1   2.875627 S    
O7    Ba4   2.849626 S    
C17   H45   1.107369 S    
C10   H76   1.108269 S    
O12   Ba4   2.815022 S    
C35   H87   1.082244 S    
C22   C26   1.514801 S    
C65   C69   1.400047 A    
C34   H86   1.082265 S    
C72   H82   1.073013 S    
P3    O7    1.594309 S    
Ba4   O48   2.848093 S    
C33   H85   1.082230 S    
Ba2   O45   2.959520 S    
C21   H53   1.104042 S    
P8    O28   1.541677 D    
C25   C73   1.490525 S    
C6    H14   1.112182 S    
C34   C62   1.392573 A    
P5    Ba1   3.436081 S    
O21   P14   1.745493 S    
C55   C57   1.436240 A    
C11   H21   1.109796 S    
C5    H13   1.112153 S    
P1    C49   1.875188 S    
C44   C58   1.405512 A    
O11   Ba3   2.815405 S    
C37   C49   1.394436 A    
C38   C46   1.387742 A    
H1    C29   1.107484 S    
P2    C50   1.873988 S    
C66   C70   1.399814 A    
C76   O55   1.221516 D    
C7    H15   1.114599 S    
C56   C58   1.436078 A    
C13   H29   1.104720 S    
C70   H84   1.073018 S    
C22   H54   1.104378 S    
