data_mof_unit_26061.cif
_audit_creation_date              2012-12-11T17:10:13-0500
_audit_creation_method            fapswitch 2.2
_symmetry_space_group_name_H-M    P1
_symmetry_Int_Tables_number       1
_space_group_crystal_system       triclinic
_cell_length_a                    14.787268
_cell_length_b                    14.886254
_cell_length_c                    14.880859
_cell_angle_alpha                 109.565611
_cell_angle_beta                  109.786406
_cell_angle_gamma                 109.007884
_cell_volume                      2523.19802298

loop_
_atom_site_label
_atom_site_type_symbol
_atom_type_description
_atom_site_fract_x
_atom_site_fract_y
_atom_site_fract_z
_atom_type_partial_charge
C1    C     C_R   0.185385 0.278983 0.253694 -0.142844
C2    C     C_R   0.449526 0.448618 0.775061 0.081617
C3    C     C_R   0.565634 0.196946 0.498439 0.082374
C4    C     C_R   0.198163 0.571257 0.496878 0.066798
C5    C     C_R   0.474332 0.720937 0.406893 -0.146243
C6    C     C_R   0.815506 0.566338 0.592915 -0.134758
C7    C     C_R   0.495506 0.403007 0.196253 -0.162888
C8    C     C_R   0.707055 0.799289 0.803529 -0.166854
C9    C     C_R   0.801476 0.710314 0.805119 -0.114834
C10   C     C_R   0.404272 0.495046 0.194492 -0.144577
C11   C     C_R   0.564014 0.815189 0.591280 -0.128785
C12   C     C_R   0.523643 0.431230 0.744711 -0.149354
C13   C     C_R   0.723271 0.476838 0.408780 -0.123888
C14   C     C_R   0.548120 0.824752 0.497870 0.069216
C15   C     C_R   0.827112 0.555623 0.501475 0.055339
C16   C     C_R   0.434757 0.432711 0.131714 0.091832
C17   C     C_R   0.801951 0.803422 0.868147 0.077561
C18   C     C_R   0.100147 0.597693 0.183622 -0.126319
C19   C     C_R   0.101827 0.623391 0.283787 -0.148355
C20   C     C_R   0.020366 0.548050 0.289874 0.114258
C21   C     C_R   0.936256 0.447617 0.193780 -0.178110
C22   C     C_R   0.934984 0.422374 0.093851 -0.105806
C23   C     C_R   0.504854 0.200829 0.407943 -0.157604
C24   C     C_R   0.016924 0.497241 0.088815 -0.100389
C25   C     C_R   0.928737 0.569417 0.400180 -0.234856
C26   C     C_R   0.930826 0.606301 0.501000 0.053494
C27   C     C_R   0.034502 0.676184 0.599294 0.031734
C28   C     C_R   0.126702 0.672642 0.596086 -0.234830
C29   C     C_R   0.117679 0.610347 0.495453 0.054710
C30   C     C_R   0.023176 0.575214 0.396433 0.030625
C31   C     C_R   0.998084 0.822286 0.695637 -0.141086
C32   C     C_R   0.015976 0.903654 0.791595 -0.101600
C33   C     C_R   0.086014 0.922582 0.894614 -0.083937
C34   C     C_R   0.291145 0.598378 0.589468 -0.132364
C35   C     C_R   0.136567 0.858712 0.901913 -0.124712
C36   C     C_R   0.118856 0.777029 0.806120 -0.177799
C37   C     C_R   0.049818 0.758408 0.701846 0.111593
C38   C     C_R   0.460052 0.353364 0.882716 0.137498
C39   C     C_R   0.406239 0.399586 0.832260 -0.005387
C40   C     C_R   0.324341 0.413083 0.854969 0.025875
C41   C     C_R   0.323637 0.411725 0.949100 -0.253313
C42   C     C_R   0.400734 0.393305 0.015670 0.019705
C43   C     C_R   0.456566 0.349549 0.972530 0.160467
C44   C     C_3   0.573551 0.372939 0.027305 -0.514798
C45   C     C_R   0.595673 0.290109 0.590715 -0.143823
C46   C     C_3   0.578111 0.377876 0.929473 -0.501483
C47   C     C_R   0.547323 0.925097 0.394102 0.168240
C48   C     C_R   0.592703 0.925366 0.493620 0.032954
C49   C     C_R   0.666744 0.027481 0.591357 -0.205522
C50   C     C_R   0.670588 0.122933 0.591978 -0.205521
C51   C     C_R   0.601095 0.115675 0.494594 0.031844
C52   C     C_R   0.551949 0.019257 0.394666 0.163205
C53   C     C_3   0.438781 0.957162 0.295299 -0.529052
C54   C     C_3   0.433185 0.854264 0.294914 -0.529010
C55   C     C_R   0.967411 0.074902 0.121422 0.166494
C56   C     C_R   0.199537 0.504518 0.407214 -0.155979
C57   C     C_R   0.067067 0.074748 0.168029 0.027441
C58   C     C_R   0.062638 0.972646 0.140968 -0.218536
C59   C     C_R   0.967983 0.877045 0.048591 -0.199934
C60   C     C_R   0.878352 0.884424 0.984874 0.026905
C61   C     C_R   0.874137 0.980707 0.031199 0.165967
C62   C     C_3   0.837676 0.042682 0.979844 -0.536008
C63   C     C_3   0.939782 0.145685 0.077973 -0.523760
C64   C     C_R   0.435500 0.527750 0.751235 -0.124507
C65   C     C_R   0.275965 0.184809 0.248973 -0.133339
C66   C     C_R   0.172507 0.175235 0.223840 0.066470
H1    H     H_    0.123759 0.302903 0.250755 0.112331
H2    H     H_    0.878379 0.616466 0.678687 0.117188
H3    H     H_    0.515399 0.338977 0.168390 0.101625
H4    H     H_    0.670056 0.846258 0.831116 0.104849
H5    H     H_    0.854573 0.678999 0.834539 0.088002
H6    H     H_    0.342991 0.518194 0.164886 0.088958
H7    H     H_    0.616961 0.879607 0.676522 0.093389
H8    H     H_    0.700822 0.446180 0.323355 0.093154
H9    H     H_    0.015890 0.477444 0.011414 0.096122
H10   H     H_    0.163416 0.655598 0.179487 0.106961
H11   H     H_    0.166927 0.701416 0.356699 0.115184
H12   H     H_    0.550072 0.372283 0.746742 0.113217
H13   H     H_    0.870631 0.344583 0.020365 0.111271
H14   H     H_    0.853037 0.532596 0.323686 0.122551
H15   H     H_    0.204549 0.717108 0.672285 0.119045
H16   H     H_    0.944983 0.810041 0.616520 0.115624
H17   H     H_    0.976240 0.952697 0.786145 0.109262
H18   H     H_    0.101142 0.986906 0.968722 0.123220
H19   H     H_    0.190017 0.872945 0.981919 0.107443
H20   H     H_    0.158635 0.728279 0.813430 0.107779
H21   H     H_    0.485446 0.153520 0.324340 0.100800
H22   H     H_    0.629851 0.453445 0.105092 0.201035
H23   H     H_    0.579024 0.302077 0.032900 0.185480
H24   H     H_    0.637124 0.461441 0.951937 0.203159
H25   H     H_    0.587065 0.310207 0.879532 0.186784
H26   H     H_    0.710366 0.032591 0.669333 0.125001
H27   H     H_    0.716943 0.198132 0.670445 0.123523
H28   H     H_    0.377425 0.975190 0.313004 0.199843
H29   H     H_    0.440806 0.960905 0.222581 0.187941
H30   H     H_    0.368788 0.814682 0.312857 0.197045
H31   H     H_    0.324623 0.659628 0.673617 0.084507
H32   H     H_    0.431217 0.798533 0.221581 0.191363
H33   H     H_    0.135821 0.967772 0.180424 0.129905
H34   H     H_    0.971560 0.801910 0.020138 0.131757
H35   H     H_    0.839207 0.024784 0.901700 0.197166
H36   H     H_    0.760039 0.038648 0.976271 0.190386
H37   H     H_    0.998740 0.185664 0.054750 0.200559
H38   H     H_    0.920755 0.201100 0.130384 0.193887
H39   H     H_    0.656987 0.321869 0.674812 0.084718
H40   H     H_    0.384768 0.562865 0.764643 0.113633
H41   H     H_    0.297016 0.120412 0.237381 0.092170
N1    N     N_R   0.291070 0.347930 0.293870 -0.039302
N2    N     N_R   0.708930 0.502750 0.556810 -0.042142
N3    N     N_R   0.502760 0.445970 0.293860 -0.038034
N4    N     N_R   0.652110 0.708890 0.706130 -0.038072
N5    N     N_R   0.708930 0.652070 0.706130 -0.040947
N6    N     N_R   0.445950 0.502780 0.293850 -0.038153
N7    N     N_R   0.502760 0.708900 0.556790 -0.039366
N8    N     N_R   0.652110 0.445950 0.443190 -0.040119
N9    N     N_R   0.554050 0.497220 0.706150 -0.041028
N10   N     N_R   0.497240 0.291100 0.443210 -0.036507
N11   N     N_R   0.347890 0.554050 0.556810 -0.038905
N12   N     N_R   0.554050 0.347900 0.556830 -0.037793
N13   N     N_R   0.291070 0.497250 0.443190 -0.039510
N14   N     N_R   0.497240 0.554030 0.706140 -0.042982
N15   N     N_R   0.347890 0.291110 0.293870 -0.038172
N16   N     N_R   0.445950 0.652100 0.443170 -0.038700
Ni1   Ni    Ni4+2 0.369690 0.500010 0.369700 0.212877
Ni2   Ni    Ni4+2 0.630310 0.499990 0.630300 0.207528
Ni3   Ni    Ni4+2 0.500000 0.369720 0.369720 0.207258
Ni4   Ni    Ni4+2 0.500000 0.630280 0.630280 0.206728
H42   H     H_    0.872848 0.388294 0.196612 0.109275
N17   N     N_3   0.249709 0.437224 0.789471 -0.221264
H43   H     H_    0.199428 0.368639 0.710147 0.112563
H44   H     H_    0.197119 0.447304 0.819501 0.097678
H45   H     H_    0.270945 0.435141 0.975216 0.125571
H46   H     H_    0.147879 0.475342 0.321578 0.120729
H47   H     H_    0.447056 0.696546 0.321545 0.111499

loop_
_geom_bond_atom_site_label_1
_geom_bond_atom_site_label_2
_ccdc_geom_bond_type
C34   N11   A    
C40   N17   S    
C53   H29   S    
C25   H14   S    
C41   C42   A    
C3    C23   A    
C19   C20   A    
C57   C66   S    
C2    C12   A    
C56   H46   S    
N16   Ni1   S    
C20   C30   S    
C53   C54   S    
N17   H44   S    
C26   C27   A    
C62   C63   S    
N8    Ni3   S    
C18   C24   A    
C28   C29   A    
C22   H13   S    
N14   Ni4   S    
N10   N12   A    
C38   C39   A    
C11   C14   A    
C64   N14   A    
C34   H31   S    
C18   C19   A    
C19   H11   S    
C11   N7    A    
C1    H1    S    
C6    C15   A    
C2    C39   S    
N4    N5    A    
C44   C46   S    
C12   H12   S    
N10   Ni3   S    
C54   H30   S    
C4    C29   S    
C62   H35   S    
C45   N12   A    
C9    N5    A    
C6    H2    S    
C28   H15   S    
C59   C60   A    
C23   H21   S    
C21   C22   A    
C4    C56   A    
C59   H34   S    
C56   N13   A    
N1    Ni1   S    
C45   H39   S    
C2    C64   A    
C50   C51   A    
C5    H47   S    
C4    C34   A    
N9    N14   A    
C51   C52   A    
C63   H37   S    
C11   H7    S    
C8    N4    A    
C39   C40   A    
C3    C51   S    
C15   C26   S    
C14   C48   S    
C46   H25   S    
C1    N1    A    
C36   H20   S    
C58   C59   A    
C3    C45   A    
C31   C37   A    
C55   C63   S    
C60   C61   A    
C35   C36   A    
N15   Ni3   S    
C43   C44   S    
C23   N10   A    
C29   C30   A    
C47   C48   A    
C1    C66   A    
C5    C14   A    
C24   H9    S    
C65   N15   A    
C13   H8    S    
C21   H42   S    
C31   H16   S    
N3    N6    A    
N5    Ni2   S    
C13   N8    A    
C10   N6    A    
N3    Ni3   S    
C47   C54   S    
N7    N16   A    
N12   Ni2   S    
C9    C17   A    
C40   C41   A    
C49   C50   A    
N9    Ni2   S    
C13   C15   A    
N4    Ni4   S    
C6    N2    A    
C22   C24   A    
N11   Ni4   S    
C49   H26   S    
C16   C42   S    
C52   C53   S    
N17   H43   S    
N2    Ni2   S    
C25   C30   A    
C32   H17   S    
C7    C16   A    
C18   H10   S    
C53   H28   S    
C31   C32   A    
C58   H33   S    
C9    H5    S    
N1    N15   A    
C63   H38   S    
C7    H3    S    
C41   H45   S    
C50   H27   S    
C64   H40   S    
C47   C52   A    
C46   H24   S    
C5    N16   A    
C8    H4    S    
C8    C17   A    
C7    N3    A    
C32   C33   A    
C55   C57   A    
C25   C26   A    
C38   C43   A    
C10   C16   A    
N7    Ni4   S    
C35   H19   S    
C57   C58   A    
N6    Ni1   S    
C27   C37   S    
C48   C49   A    
C55   C61   A    
C33   C35   A    
C61   C62   S    
C33   H18   S    
N11   N13   A    
C38   C46   S    
N2    N8    A    
C17   C60   S    
C20   C21   A    
C36   C37   A    
C65   C66   A    
C42   C43   A    
C27   C28   A    
C54   H32   S    
C62   H36   S    
C44   H22   S    
C65   H41   S    
C44   H23   S    
N13   Ni1   S    
C12   N9    A    
C10   H6    S    
