data_mof_unit_59752.cif
_audit_creation_date              2012-12-11T17:23:16-0500
_audit_creation_method            fapswitch 2.2
_symmetry_space_group_name_H-M    P1
_symmetry_Int_Tables_number       1
_space_group_crystal_system       triclinic
_cell_length_a                    22.397525
_cell_length_b                    7.096508
_cell_length_c                    19.409826
_cell_angle_alpha                 90.003664
_cell_angle_beta                  99.593701
_cell_angle_gamma                 90.003709
_cell_volume                      3041.93275286

loop_
_atom_site_label
_atom_site_type_symbol
_atom_type_description
_atom_site_fract_x
_atom_site_fract_y
_atom_site_fract_z
_atom_type_partial_charge
O1    O     O_R   0.443980 0.494320 0.557430 -0.533562
O2    O     O_R   0.556020 0.994320 0.442570 -0.533929
O3    O     O_R   0.441210 0.822520 0.414610 -0.537065
O4    O     O_R   0.558790 0.322520 0.585390 -0.537514
C1    C     C_R   0.426646 0.655320 0.388804 0.692936
C2    C     C_R   0.573350 0.155344 0.611199 0.691268
O5    O     O_R   0.436920 0.823940 0.555180 -0.536229
O6    O     O_R   0.563080 0.323940 0.444820 -0.536707
O7    O     O_R   0.551700 0.995760 0.584140 -0.534972
O8    O     O_R   0.448300 0.495760 0.415860 -0.534609
C3    C     C_R   0.421609 0.655407 0.574856 0.718476
C4    C     C_R   0.578394 0.155407 0.425148 0.717283
O9    O     O_3   0.537660 0.661290 0.509340 -0.370833
O10   O     O_3   0.462340 0.161290 0.490660 -0.369560
V1    V     V_3+5 0.493010 0.935560 0.498270 1.428438
V2    V     V_3+5 0.506990 0.435560 0.501730 1.427062
H1    H     H_    0.688731 0.825312 0.272877 0.126617
H2    H     H_    0.311304 0.325341 0.727169 0.126541
C5    C     C_R   0.758235 0.929094 0.217876 0.218593
C6    C     C_R   0.241803 0.429121 0.782174 0.220496
C7    C     C_R   0.793354 0.087885 0.204867 0.084475
C8    C     C_R   0.206683 0.587903 0.795180 0.083795
C9    C     C_R   0.784223 0.259801 0.237545 -0.174982
C10   C     C_R   0.215816 0.759811 0.762504 -0.169912
H3    H     H_    0.810644 0.382479 0.228522 0.161532
H4    H     H_    0.189395 0.882482 0.771525 0.163245
C11   C     C_R   0.741148 0.275644 0.282162 -0.147088
C12   C     C_R   0.258890 0.775652 0.717885 -0.141718
C13   C     C_R   0.706404 0.119420 0.295265 0.074212
C14   C     C_R   0.293630 0.619433 0.704779 0.073930
C15   C     C_R   0.715286 0.947080 0.262994 -0.153590
C16   C     C_R   0.284751 0.447105 0.737054 -0.150714
C17   C     C_1   0.838534 0.078757 0.158631 -0.051661
C18   C     C_1   0.161492 0.578767 0.841403 -0.047756
C19   C     C_1   0.661622 0.135085 0.341586 -0.043910
C20   C     C_1   0.338402 0.635089 0.658444 -0.038729
C21   C     C_1   0.623936 0.145815 0.379924 -0.186986
C22   C     C_1   0.376078 0.645816 0.620093 -0.183292
C23   C     C_1   0.876327 0.070988 0.120358 -0.186819
C24   C     C_1   0.123688 0.570994 0.879662 -0.184164
C25   C     C_R   0.633273 0.164672 0.804160 -0.162561
C26   C     C_R   0.366763 0.663258 0.195826 -0.163918
H5    H     H_    0.545828 0.188686 0.740236 0.106477
H6    H     H_    0.454215 0.687193 0.259743 0.106630
H7    H     H_    0.715632 0.153125 0.919037 0.123359
H8    H     H_    0.284425 0.651097 0.080943 0.122016
H9    H     H_    0.614782 0.181112 0.851981 0.113845
H10   H     H_    0.385277 0.679017 0.147992 0.113707
C27   C     C_R   0.615948 0.147462 0.677944 -0.040778
C28   C     C_R   0.384046 0.647321 0.322062 -0.039314
C29   C     C_R   0.911709 0.051198 0.758836 0.201690
C30   C     C_R   0.088233 0.552117 0.241175 0.131583
C31   C     C_R   0.874548 0.054639 0.693430 0.269436
C32   C     C_R   0.125583 0.555977 0.306765 0.260074
C33   C     C_R   0.811879 0.076923 0.688118 -0.291867
C34   C     C_R   0.188076 0.577879 0.311922 -0.198065
C35   C     C_R   0.784241 0.096892 0.748005 0.053373
C36   C     C_R   0.215730 0.597099 0.252011 0.016620
C37   C     C_R   0.822417 0.094326 0.814985 0.039310
C38   C     C_R   0.177575 0.594084 0.185025 0.036810
C39   C     C_R   0.719941 0.119542 0.743534 0.101890
C40   C     C_R   0.280046 0.619431 0.256476 0.100056
C41   C     C_R   0.695782 0.140442 0.806331 0.135417
C42   C     C_R   0.304236 0.639479 0.193665 0.140770
C43   C     C_R   0.733996 0.137486 0.871088 -0.204824
C44   C     C_R   0.266038 0.636093 0.128902 -0.202145
C45   C     C_R   0.796119 0.114550 0.875467 -0.160542
C46   C     C_R   0.203903 0.613528 0.124531 -0.160515
C47   C     C_R   0.678473 0.122699 0.679234 -0.213902
C48   C     C_R   0.321501 0.623046 0.320783 -0.213981
C49   C     C_R   0.593843 0.168814 0.740589 -0.167887
C50   C     C_R   0.406183 0.667763 0.259401 -0.168126
C51   C     C_R   0.886205 0.070969 0.820186 -0.195892
C52   C     C_R   0.113777 0.571110 0.179823 -0.159675
H11   H     H_    0.693033 0.107441 0.629358 0.095309
H12   H     H_    0.306918 0.608450 0.370671 0.095718
H13   H     H_    0.786203 0.078195 0.636026 0.126329
H14   H     H_    0.213734 0.579483 0.364026 0.144493
H15   H     H_    0.823470 0.113180 0.927016 0.108017
H16   H     H_    0.176566 0.611805 0.072974 0.105797
O11   O     O_R   0.051730 0.724670 0.084120 -0.534130
O12   O     O_R   0.948270 0.224670 0.915880 -0.533137
O13   O     O_R   0.063080 0.393540 0.944820 -0.537391
O14   O     O_R   0.936920 0.893540 0.055180 -0.537215
C53   C     C_R   0.078149 0.562057 0.924860 0.713906
C54   C     C_R   0.921855 0.062056 0.075146 0.713785
O15   O     O_R   0.058800 0.395030 0.085390 -0.537587
O16   O     O_R   0.941200 0.895030 0.914610 -0.537081
O17   O     O_R   0.943980 0.223310 0.057440 -0.534172
O18   O     O_R   0.056020 0.723310 0.942560 -0.534478
C55   C     C_R   0.072807 0.563540 0.111373 0.699163
C56   C     C_R   0.927193 0.063516 0.888625 0.696172
O19   O     O_3   0.962360 0.556290 0.990650 -0.368724
O20   O     O_3   0.037640 0.056290 0.009350 -0.369152
V3    V     V_3+5 0.006980 0.281990 0.001730 1.420474
V4    V     V_3+5 0.993020 0.781990 0.998270 1.420537
N1    N     N_3   0.900987 0.034832 0.631523 -0.610309
H17   H     H_    0.881350 0.917667 0.603908 0.224897
H18   H     H_    0.889655 0.154014 0.600412 0.226262
N2    N     N_3   0.100504 0.537297 0.369659 -0.650901
H19   H     H_    0.077363 0.408940 0.367794 0.253592
H20   H     H_    0.069136 0.645802 0.371000 0.254145
N3    N     N_3   0.764955 0.747800 0.186977 -0.689754
H21   H     H_    0.800584 0.746012 0.158532 0.235903
H22   H     H_    0.725341 0.720793 0.151576 0.223683
N4    N     N_3   0.235085 0.247838 0.813076 -0.688021
H23   H     H_    0.199462 0.246057 0.841532 0.236109
H24   H     H_    0.274703 0.220856 0.848470 0.222184
H25   H     H_    0.735010 0.410102 0.306487 0.138409
H26   H     H_    0.265027 0.910103 0.693558 0.140525
N5    N     N_3   0.975765 0.027752 0.761959 -0.614711
H27   H     H_    0.989398 0.906145 0.790730 0.224210
H28   H     H_    0.997864 0.143539 0.788073 0.220839
N6    N     N_3   0.024132 0.529109 0.237902 -0.677791
H29   H     H_    0.002136 0.644845 0.211653 0.229473
H30   H     H_    0.010466 0.407318 0.209254 0.232951

loop_
_geom_bond_atom_site_label_1
_geom_bond_atom_site_label_2
_ccdc_geom_bond_type
C36   C40   A    
C44   C46   A    
C41   C43   A    
O4    V2    S    
O15   C55   A    
C11   C13   A    
N5    H27   S    
O1    C3    A    
C5    C15   A    
C2    O7    A    
O16   V4    S    
N1    H17   S    
C34   H14   S    
N5    H28   S    
O5    C3    A    
C17   C23   T    
C35   C39   A    
C18   C24   T    
C5    C7    A    
C10   H4    S    
H8    C44   S    
C30   C52   A    
C33   H13   S    
C35   C37   A    
C7    C17   S    
N4    H23   S    
C36   C38   A    
O12   C56   A    
C40   C48   A    
O14   V4    S    
C38   C52   A    
C4    C21   S    
C39   C41   A    
C28   C50   A    
C40   C42   A    
C37   C45   A    
C5    N3    S    
O16   C56   A    
C43   C45   A    
O15   V3    S    
C29   N5    S    
C47   H11   S    
C9    C11   A    
C14   C16   A    
C37   C51   A    
C25   C49   A    
O5    V1    S    
O2    C4    A    
O19   V3    S    
C27   C47   A    
C32   N2    S    
C26   C50   A    
N1    H18   S    
C30   C32   A    
N6    H29   S    
C6    N4    S    
C31   C33   A    
C8    C18   S    
C32   C34   A    
C10   C12   A    
C45   H15   S    
O4    C2    A    
O11   V4    S    
C12   H26   S    
C29   C31   A    
C42   C44   A    
C24   C53   S    
O17   V3    S    
C3    C22   S    
O6    C4    A    
O13   V3    S    
N2    H20   S    
C25   H9    S    
N3    H22   S    
O1    V2    S    
C26   H10   S    
O20   V4    S    
O2    V1    S    
C52   C55   S    
C38   C46   A    
O13   C53   A    
C6    C8    A    
O19   V4    S    
C33   C35   A    
C48   H12   S    
H1    C15   S    
C8    C10   A    
C1    C28   S    
H2    C16   S    
C25   C41   A    
C46   H16   S    
C26   C42   A    
O3    V1    S    
C6    C16   A    
C39   C47   A    
H5    C49   S    
O12   V3    S    
C19   C21   T    
C29   C51   A    
C51   C56   S    
O14   C54   A    
O3    C1    A    
C54   O17   A    
N6    H30   S    
C53   O18   A    
O18   V4    S    
C30   N6    S    
C13   C19   S    
C14   C20   S    
C31   N1    S    
C7    C9    A    
C28   C48   A    
C12   C14   A    
C13   C15   A    
O8    V2    S    
H7    C43   S    
N4    H24   S    
C20   C22   T    
N2    H19   S    
C34   C36   A    
H6    C50   S    
C9    H3    S    
C2    C27   S    
O7    V1    S    
O20   V3    S    
O11   C55   A    
C1    O8    A    
C11   H25   S    
O6    V2    S    
C27   C49   A    
O9    V2    S    
N3    H21   S    
O10   V1    S    
C23   C54   S    
