data_mof_unit_19419.cif
_audit_creation_date              2013-03-05T16:46:53-0500
_audit_creation_method            fapswitch 2.2
_symmetry_space_group_name_H-M    P1
_symmetry_Int_Tables_number       1
_space_group_crystal_system       triclinic
_cell_length_a                    18.20921
_cell_length_b                    18.24161
_cell_length_c                    18.374165
_cell_angle_alpha                 120.064552
_cell_angle_beta                  89.978736
_cell_angle_gamma                 119.872039
_cell_volume                      4320.57524965

loop_
_atom_site_label
_atom_site_type_symbol
_atom_site_description
_atom_site_fract_x
_atom_site_fract_y
_atom_site_fract_z
_atom_type_partial_charge
Zn1   Zn    Zn3+2 0.456040 0.586770 0.543190 1.007867
Zn2   Zn    Zn3+2 0.456820 0.413240 0.543960 0.965698
Zn3   Zn    Zn3+2 0.631110 0.586750 0.543190 0.967427
Zn4   Zn    Zn3+2 0.456040 0.413240 0.369660 0.959713
O1    O     O_3   0.500000 0.500000 0.500000 -0.482873
O2    O     O_R   0.383400 0.268380 0.323710 -0.644342
O3    O     O_R   0.555060 0.731630 0.615290 -0.593695
O4    O     O_R   0.383950 0.439280 0.616600 -0.647721
O5    O     O_R   0.677590 0.560710 0.444390 -0.644549
O6    O     O_R   0.556370 0.439260 0.616600 -0.645968
O7    O     O_R   0.382640 0.439290 0.322940 -0.655118
O8    O     O_R   0.678360 0.560700 0.616060 -0.635299
O9    O     O_R   0.382640 0.560750 0.444390 -0.622992
O10   O     O_R   0.383400 0.560740 0.616060 -0.639279
O11   O     O_R   0.555060 0.439270 0.322940 -0.644472
O12   O     O_R   0.383950 0.268380 0.445700 -0.636725
O13   O     O_R   0.677590 0.731610 0.615290 -0.651742
C1    C     C_R   0.360855 0.220050 0.360991 0.787661
C2    C     C_R   0.640908 0.781032 0.639920 0.761700
C3    C     C_R   0.359092 0.500426 0.640573 0.783662
C4    C     C_R   0.640742 0.499941 0.359476 0.769030
C5    C     C_R   0.641858 0.500980 0.640902 0.794461
C6    C     C_R   0.358118 0.500210 0.359295 0.755834
C7    C     C_3   0.282356 0.423582 0.201265 -0.384294
H1    H     H_    0.248498 0.343716 0.183614 0.178869
H2    H     H_    0.347035 0.445800 0.187650 0.172457
C8    C     C_3   0.222915 0.423641 0.141967 -0.389558
H3    H     H_    0.259492 0.446722 0.100621 0.169802
H4    H     H_    0.161006 0.343761 0.095746 0.178345
H5    H     H_    0.174009 0.387639 0.302236 0.158156
H6    H     H_    0.084965 0.387130 0.213532 0.171032
C9    C     C_3   0.208524 0.466405 0.317273 -0.409308
C10   C     C_3   0.346428 0.609787 0.322765 -0.351205
C11   C     C_3   0.300207 0.500089 0.301548 0.175510
H7    H     H_    0.359571 0.666451 0.394070 0.212210
H8    H     H_    0.412408 0.635502 0.311710 0.171701
C12   C     C_3   0.198048 0.499737 0.199929 0.181285
C13   C     C_3   0.148403 0.466079 0.257450 -0.372159
C14   C     C_3   0.286367 0.609595 0.263009 -0.406745
H9    H     H_    0.323401 0.635255 0.223157 0.161936
H10   H     H_    0.271023 0.666240 0.305934 0.187041
H11   H     H_    0.218886 0.520111 0.388442 0.174619
H12   H     H_    0.129994 0.519574 0.300159 0.184484
C15   C     C_3   0.689757 0.942329 0.647781 0.210747
H13   H     H_    0.717554 0.919781 0.592569 0.073930
C16   C     C_3   0.747689 0.062760 0.710419 -0.457136
H14   H     H_    0.796202 0.094590 0.680143 0.129713
H15   H     H_    0.705352 0.092154 0.718045 0.203145
H16   H     H_    0.600593 0.906748 0.768088 0.218060
H17   H     H_    0.685296 0.084224 0.851638 0.202217
C17   C     C_3   0.673010 0.938300 0.784536 -0.377203
C18   C     C_3   0.799105 0.940792 0.729522 -0.468799
C19   C     C_3   0.698400 0.897650 0.698703 0.079148
H18   H     H_    0.808875 0.911573 0.766629 0.190610
H19   H     H_    0.821472 0.913734 0.670808 0.179023
C20   C     C_3   0.799497 0.102618 0.803259 0.126615
C21   C     C_3   0.730295 0.058166 0.844261 -0.351049
C22   C     C_3   0.857936 0.060173 0.790082 -0.393503
H20   H     H_    0.907353 0.089588 0.759425 0.184421
H21   H     H_    0.896450 0.087934 0.855765 0.184166
H22   H     H_    0.684530 0.910888 0.822625 0.152225
H23   H     H_    0.765750 0.087769 0.912031 0.183045
C23   C     C_3   0.677445 0.389843 0.240235 -0.447123
H24   H     H_    0.605079 0.332549 0.198868 0.171369
H25   H     H_    0.689831 0.365896 0.281262 0.200229
C24   C     C_3   0.735014 0.388463 0.177901 0.192547
H26   H     H_    0.688061 0.337613 0.108451 0.113520
H27   H     H_    0.609737 0.477911 0.201186 0.181860
H28   H     H_    0.698613 0.479715 0.113522 0.182488
C25   C     C_3   0.681468 0.532393 0.244181 -0.405087
C26   C     C_3   0.799354 0.576349 0.360126 -0.378226
C27   C     C_3   0.698483 0.499686 0.302205 0.144193
H29   H     H_    0.816573 0.655848 0.407242 0.175239
H30   H     H_    0.813705 0.552707 0.400532 0.193859
C28   C     C_3   0.799930 0.499582 0.200651 0.079507
C29   C     C_3   0.741605 0.533025 0.184751 -0.485732
C30   C     C_3   0.858715 0.578501 0.301008 -0.362588
H31   H     H_    0.905758 0.562627 0.316783 0.220344
H32   H     H_    0.901068 0.658068 0.317321 0.166327
H33   H     H_    0.695830 0.610907 0.287762 0.166488
H34   H     H_    0.785349 0.611989 0.200095 0.175209
H35   H     H_    0.459972 0.214961 0.677870 0.138501
C31   C     C_R   0.474940 0.182627 0.550922 -0.124578
H36   H     H_    0.545595 0.214973 0.572722 0.129158
C32   C     C_R   0.431947 0.140819 0.463452 -0.102941
H37   H     H_    0.469770 0.140940 0.417956 0.120965
C33   C     C_R   0.340190 0.098346 0.434812 0.153604
C34   C     C_R   0.292018 0.097948 0.494464 -0.143786
H38   H     H_    0.221096 0.064925 0.473121 0.118969
C35   C     C_R   0.335415 0.140503 0.582038 -0.134792
H39   H     H_    0.298187 0.140498 0.627980 0.131105
C36   C     C_R   0.426717 0.182540 0.610173 -0.115552
C37   C     C_R   0.236388 0.943736 0.286086 -0.254256
H40   H     H_    0.227583 0.900458 0.313565 0.172041
C38   C     C_R   0.193098 0.892314 0.195959 -0.025999
C39   C     C_R   0.206772 0.949207 0.159996 0.061420
C40   C     C_R   0.263033 0.056212 0.215630 -0.206983
H41   H     H_    0.271885 0.099352 0.187999 0.164037
C41   C     C_R   0.306111 0.107669 0.305894 -0.056009
C42   C     C_R   0.293593 0.050694 0.341482 -0.010340
C43   C     C_R   0.208172 0.890516 0.002368 0.361811
C44   C     C_R   0.163061 0.849051 0.915171 -0.206985
H42   H     H_    0.196053 0.839701 0.865382 0.172020
C45   C     C_R   0.074669 0.817839 0.890776 -0.188307
H43   H     H_    0.040908 0.785804 0.823374 0.158217
C46   C     C_R   0.029722 0.827326 0.952853 -0.117064
H44   H     H_    0.961087 0.802765 0.933612 0.132327
C47   C     C_R   0.073270 0.868847 0.039847 -0.191637
H45   H     H_    0.037759 0.876673 0.087575 0.123994
C48   C     C_R   0.162325 0.900943 0.065623 0.022002
H46   H     H_    0.977617 0.815885 0.622375 0.116823
C49   C     C_R   0.920199 0.665229 0.594586 -0.143524
H47   H     H_    0.941926 0.638863 0.537515 0.131519
C50   C     C_R   0.872048 0.599418 0.620381 -0.140488
H48   H     H_    0.856599 0.522138 0.582798 0.128320
C51   C     C_R   0.843669 0.633346 0.694265 0.148540
C52   C     C_R   0.864793 0.734037 0.742644 -0.124375
H49   H     H_    0.843771 0.761386 0.800127 0.106664
C53   C     C_R   0.912969 0.799582 0.716608 -0.133229
H50   H     H_    0.929252 0.877169 0.753968 0.115959
C54   C     C_R   0.940421 0.765104 0.642495 -0.113897
C55   C     C_R   0.842072 0.559291 0.774247 -0.271556
H51   H     H_    0.914453 0.604820 0.791211 0.181941
C56   C     C_R   0.799443 0.497318 0.804686 -0.041329
C57   C     C_R   0.704893 0.436854 0.781155 -0.016225
C58   C     C_R   0.655803 0.442266 0.729414 -0.276636
H52   H     H_    0.583483 0.397222 0.712894 0.178994
C59   C     C_R   0.698374 0.503565 0.698330 -0.042821
C60   C     C_R   0.792937 0.563971 0.721823 -0.018205
C61   C     C_R   0.635222 0.266111 0.758444 -0.131351
H53   H     H_    0.656480 0.240131 0.700890 0.118102
C62   C     C_R   0.589463 0.200019 0.784525 -0.124890
H54   H     H_    0.575284 0.123392 0.747109 0.166217
C63   C     C_R   0.562232 0.232965 0.859065 -0.101883
H55   H     H_    0.527011 0.181807 0.879294 0.134828
C64   C     C_R   0.580395 0.331914 0.907445 -0.146693
H56   H     H_    0.559176 0.357238 0.965080 0.121310
C65   C     C_R   0.626206 0.398314 0.881637 -0.148586
H57   H     H_    0.640500 0.475061 0.919854 0.118345
C66   C     C_R   0.654351 0.365924 0.807318 0.147790
H58   H     H_    0.367294 0.845527 0.650934 0.155434
C67   C     C_R   0.397937 0.821647 0.747130 -0.086849
H59   H     H_    0.453970 0.901694 0.794057 0.149174
C68   C     C_R   0.374398 0.750027 0.767322 -0.128364
H60   H     H_    0.412582 0.775270 0.830029 0.147822
C69   C     C_R   0.301883 0.646142 0.706502 0.136822
C70   C     C_R   0.252636 0.614892 0.625816 -0.117565
H61   H     H_    0.196244 0.535075 0.578519 0.115006
C71   C     C_R   0.276540 0.686724 0.605813 -0.146070
H62   H     H_    0.238703 0.662461 0.543481 0.121620
C72   C     C_R   0.349086 0.789995 0.666424 -0.046886
C73   C     C_R   0.223559 0.568277 0.782392 -0.230434
H63   H     H_    0.204434 0.621836 0.806482 0.183238
C74   C     C_R   0.194944 0.498132 0.805175 -0.059853
C75   C     C_R   0.220370 0.428527 0.773061 -0.016178
C76   C     C_R   0.273621 0.431256 0.719300 -0.256945
H64   H     H_    0.292696 0.377654 0.695171 0.175113
C77   C     C_R   0.302225 0.501373 0.696495 -0.055145
C78   C     C_R   0.276318 0.570540 0.728140 -0.012711
C79   C     C_R   0.243176 0.378719 0.870982 -0.111827
H65   H     H_    0.301849 0.457133 0.917808 0.113097
C80   C     C_R   0.217450 0.304965 0.888970 -0.133192
H66   H     H_    0.256257 0.326315 0.949226 0.115253
C81   C     C_R   0.141935 0.203448 0.828925 -0.104544
H67   H     H_    0.122164 0.146433 0.842896 0.117311
C82   C     C_R   0.092266 0.175366 0.750553 -0.152904
H68   H     H_    0.034318 0.096518 0.703740 0.114400
C83   C     C_R   0.117541 0.248933 0.732444 -0.144477
H69   H     H_    0.078582 0.226463 0.671586 0.115973
C84   C     C_R   0.192904 0.351129 0.792829 0.157442
Zn5   Zn    Zn3+2 0.041710 0.413240 0.959030 0.977563
Zn6   Zn    Zn3+2 0.866640 0.413270 0.959030 0.989619
Zn7   Zn    Zn3+2 0.040930 0.586780 0.958260 0.980240
Zn8   Zn    Zn3+2 0.041710 0.586770 0.132560 0.971376
O14   O     O_3   0.997750 0.500010 0.002220 -0.482400
O15   O     O_R   0.942690 0.560750 0.179280 -0.646932
O16   O     O_R   0.114340 0.439270 0.886160 -0.638108
O17   O     O_R   0.820160 0.268410 0.886930 -0.631737
O18   O     O_R   0.113800 0.731630 0.056520 -0.625693
O19   O     O_R   0.819390 0.439310 0.886160 -0.638901
O20   O     O_R   0.115110 0.560720 0.179280 -0.641210
O21   O     O_R   0.941380 0.560750 0.885620 -0.648390
O22   O     O_R   0.115110 0.439270 0.057830 -0.645791
O23   O     O_R   0.942690 0.268390 0.886930 -0.644253
O24   O     O_R   0.114340 0.731630 0.178520 -0.659871
O25   O     O_R   0.820160 0.439310 0.057830 -0.636810
O26   O     O_R   0.113800 0.560730 0.885620 -0.641109
C85   C     C_R   0.857200 0.500073 0.142893 0.799179
C86   C     C_R   0.138480 0.499424 0.861481 0.797239
C87   C     C_R   0.856936 0.219039 0.862528 0.776646
C88   C     C_R   0.137265 0.779956 0.141173 0.802796
C89   C     C_R   0.855907 0.499191 0.861468 0.786954
C90   C     C_R   0.139895 0.499915 0.142757 0.762544
N1    N     N_R   0.596203 0.899960 0.607930 0.220654
O27   O     O_R   0.550605 0.925542 0.657363 -0.454186
O28   O     O_R   0.559563 0.840477 0.521619 -0.430988
N2    N     N_R   0.782694 0.344113 0.181051 0.204465
O29   O     O_R   0.771285 0.264978 0.107808 -0.415838
O30   O     O_R   0.833073 0.379373 0.256420 -0.426858
N3    N     N_R   0.299017 0.920357 0.024663 0.194137
O31   O     O_R   0.348114 0.939955 0.976855 -0.421915
O32   O     O_R   0.330576 0.918687 0.086922 -0.393041

loop_
_geom_bond_atom_site_label_1
_geom_bond_atom_site_label_2
_geom_bond_distance
_ccdc_geom_bond_type
N1    O28   1.301167 A    
C33   C34   1.404181 A    
C23   H25   1.112712 S    
C9    C11   1.550432 S    
C37   H40   1.084947 S    
H46   C54   1.082342 S    
C47   H45   1.083367 S    
C38   C39   1.416099 A    
C17   H22   1.113129 S    
C7    C8    1.536829 S    
C26   C30   1.532788 S    
C61   C66   1.404679 A    
C59   C60   1.414018 A    
C49   C50   1.398535 A    
C40   H41   1.084838 S    
C43   N3    1.442450 S    
C21   H23   1.112916 S    
C14   H10   1.112963 S    
C30   H31   1.110397 S    
C51   C52   1.404434 A    
C31   C36   1.398560 A    
C10   C14   1.547530 S    
C57   C58   1.376649 A    
Zn1   O1    1.943954 S    
Zn5   O22   1.952784 S    
C76   H64   1.084947 S    
C70   C71   1.398486 A    
C7    H2    1.113469 S    
C33   C42   1.479574 S    
C52   C53   1.398554 A    
Zn8   O24   1.930974 S    
O17   C87   1.287072 A    
O26   C86   1.285611 A    
C8    H4    1.113483 S    
C46   H44   1.082379 S    
Zn7   O18   1.931706 S    
C22   H21   1.113246 S    
O8    C5    1.270281 A    
C10   H8    1.112955 S    
H35   C36   1.081860 S    
C20   C21   1.551296 S    
O9    C6    1.281758 A    
H28   C29   1.112936 S    
O7    C6    1.277043 A    
N2    O30   1.301448 A    
Zn8   O14   1.955204 S    
C45   H43   1.082020 S    
Zn3   O8    1.950486 S    
C70   H61   1.083122 S    
O22   C90   1.279087 A    
C5    C59   1.441288 S    
C15   C19   1.567297 S    
Zn7   O26   1.938869 S    
C51   C60   1.479352 S    
C28   C85   1.487700 S    
C18   H18   1.113223 S    
C62   H54   1.082086 S    
H16   C17   1.109721 S    
O24   C88   1.289031 A    
C17   C21   1.548566 S    
C9    C13   1.547468 S    
Zn2   O12   1.931808 S    
C55   C60   1.376503 A    
C18   H19   1.113448 S    
C38   C88   1.451076 S    
C53   C54   1.397983 A    
C34   H38   1.083158 S    
C2    C19   1.506070 S    
C83   C84   1.403535 A    
N1    O27   1.301122 A    
C23   C24   1.551735 S    
C37   C38   1.397010 A    
C3    C77   1.458614 S    
C82   C83   1.398395 A    
C71   C72   1.397943 A    
N2    O29   1.301188 A    
O21   C89   1.280834 A    
Zn8   O20   1.947137 S    
C45   C46   1.394067 A    
C49   H47   1.082297 S    
C40   C41   1.398139 A    
Zn5   O16   1.943559 S    
C15   C16   1.556495 S    
C50   H48   1.083054 S    
C80   C81   1.398155 A    
C30   H32   1.113786 S    
C57   C66   1.479504 S    
C9    H11   1.112579 S    
O2    C1    1.288174 A    
C20   C87   1.503653 S    
O16   C86   1.273138 A    
C32   C33   1.404082 A    
C25   H33   1.113003 S    
C43   C44   1.407705 A    
O10   C3    1.273005 A    
Zn5   O23   1.933007 S    
C24   H26   1.115617 S    
C7    H1    1.113465 S    
C64   C65   1.398774 A    
O19   C89   1.270420 A    
Zn6   O25   1.942387 S    
C14   H9    1.112962 S    
C26   H29   1.113634 S    
N3    O31   1.301695 A    
C63   C64   1.398387 A    
C69   C78   1.478643 S    
C4    C27   1.487269 S    
C43   C48   1.421238 A    
C32   H37   1.083083 S    
C39   C48   1.482770 S    
O6    C5    1.281089 A    
C17   C19   1.555667 S    
C12   C90   1.494171 S    
C67   C72   1.398251 A    
C61   C62   1.398347 A    
C28   C29   1.552310 S    
C12   C13   1.551710 S    
Zn3   O5    1.942387 S    
C68   C69   1.403639 A    
C35   C36   1.397422 A    
C31   H36   1.082243 S    
O11   C4    1.282999 A    
C6    C11   1.494653 S    
C39   C40   1.383530 A    
Zn5   O14   1.943954 S    
C10   C11   1.550991 S    
O4    C3    1.285903 A    
C23   C27   1.551729 S    
Zn4   O7    1.947141 S    
C44   C45   1.395607 A    
C28   C30   1.557299 S    
C37   C42   1.383581 A    
C74   C75   1.417546 A    
Zn7   O14   1.953659 S    
C18   C22   1.541829 S    
C62   C63   1.398040 A    
Zn4   O2    1.931019 S    
C83   H69   1.083219 S    
C31   C32   1.398458 A    
C74   C86   1.458403 S    
C73   C74   1.398712 A    
Zn7   O21   1.949940 S    
O3    C2    1.284210 A    
C25   C29   1.546237 S    
C82   H68   1.082265 S    
C67   C68   1.398543 A    
Zn2   O1    1.953511 S    
Zn1   O9    1.952886 S    
C1    C41   1.451495 S    
C55   C56   1.397289 A    
Zn2   O6    1.950041 S    
C56   C89   1.441138 S    
O20   C90   1.279426 A    
C18   C19   1.555440 S    
H58   C72   1.082302 S    
C69   C70   1.404309 A    
Zn6   O17   1.928606 S    
C16   H14   1.113246 S    
C81   H67   1.082434 S    
O15   C85   1.279992 A    
C58   C59   1.397709 A    
Zn1   O3    1.933109 S    
H17   C21   1.113139 S    
Zn6   O19   1.950341 S    
C16   H15   1.112586 S    
Zn2   O4    1.938824 S    
C15   H13   1.115114 S    
C34   C35   1.398077 A    
Zn4   O1    1.955204 S    
Zn3   O1    1.952809 S    
C29   H34   1.113183 S    
C26   H30   1.112974 S    
C50   C51   1.403295 A    
C53   H50   1.082091 S    
Zn6   O14   1.952810 S    
H6    C13   1.112980 S    
C63   H55   1.082368 S    
C65   C66   1.403274 A    
C80   H66   1.082216 S    
C15   N1    1.468970 S    
C41   C42   1.415828 A    
C68   H60   1.083105 S    
C79   H65   1.083077 S    
Zn4   O11   1.941104 S    
C81   C82   1.397998 A    
C61   H53   1.083086 S    
C22   H20   1.111956 S    
C49   C54   1.398139 A    
C12   C14   1.552246 S    
C52   H49   1.083045 S    
H5    C9    1.112940 S    
C75   C84   1.478415 S    
O5    C4    1.280734 A    
C35   H39   1.082457 S    
C77   C78   1.417820 A    
C47   C48   1.404892 A    
C46   C47   1.395389 A    
C8    C12   1.552637 S    
C58   H52   1.083516 S    
C24   C28   1.563760 S    
C76   C77   1.398589 A    
C10   H7    1.113180 S    
Zn8   O15   1.941101 S    
C20   C22   1.556671 S    
Zn3   O13   1.928607 S    
O23   C87   1.282797 A    
C44   H42   1.082702 S    
C7    C11   1.555830 S    
C73   C78   1.385411 A    
C24   N2    1.469105 S    
C65   H57   1.083036 S    
C23   H24   1.113278 S    
O13   C2    1.286304 A    
C13   H12   1.113018 S    
O18   C88   1.276899 A    
C73   H63   1.085012 S    
O12   C1    1.277865 A    
C16   C20   1.550406 S    
C75   C76   1.385274 A    
H27   C25   1.113045 S    
C79   C84   1.404018 A    
C67   H59   1.082463 S    
C64   H56   1.082348 S    
C25   C27   1.552547 S    
Zn1   O10   1.943661 S    
C26   C27   1.553563 S    
C55   H51   1.083781 S    
C71   H62   1.082228 S    
O25   C85   1.283216 A    
N3    O32   1.301001 A    
C79   C80   1.398717 A    
C56   C57   1.413790 A    
C8    H3    1.113001 S    
