data_mof_unit_36012.cif
_audit_creation_date              2012-12-11T15:09:41-0500
_audit_creation_method            fapswitch 2.2
_symmetry_space_group_name_H-M    P1
_symmetry_Int_Tables_number       1
_space_group_crystal_system       triclinic
_cell_length_a                    21.025565
_cell_length_b                    7.135696
_cell_length_c                    14.040063
_cell_angle_alpha                 89.999929
_cell_angle_beta                  98.582303
_cell_angle_gamma                 90.000071
_cell_volume                      2082.87226086

loop_
_atom_site_label
_atom_site_type_symbol
_atom_type_description
_atom_site_fract_x
_atom_site_fract_y
_atom_site_fract_z
_atom_type_partial_charge
O1    O     O_R   0.447130 0.507140 0.597350 -0.538399
O2    O     O_R   0.552870 0.007140 0.402650 -0.538398
O3    O     O_R   0.578910 0.181280 0.586990 -0.538355
O4    O     O_R   0.421090 0.681280 0.413010 -0.538355
C1    C     C_R   0.604461 0.344458 0.607412 0.725072
C2    C     C_R   0.395539 0.844458 0.392587 0.725070
O5    O     O_R   0.449230 0.177860 0.608640 -0.541720
O6    O     O_R   0.550770 0.677860 0.391360 -0.541717
O7    O     O_R   0.422260 0.000770 0.424450 -0.534902
O8    O     O_R   0.577740 0.500770 0.575550 -0.534903
C3    C     C_R   0.433088 0.346254 0.634325 0.689034
C4    C     C_R   0.566912 0.846254 0.365673 0.689027
O9    O     O_3   0.491310 0.336980 0.439550 -0.375216
O10   O     O_3   0.508690 0.836980 0.560450 -0.375214
V1    V     V_3+5 0.501610 0.064760 0.511210 1.434692
V2    V     V_3+5 0.498390 0.564760 0.488790 1.434691
C5    C     C_R   0.614305 0.866522 0.120081 -0.144646
C6    C     C_R   0.385703 0.366627 0.879927 -0.144639
H1    H     H_    0.524718 0.861702 0.175453 0.104496
H2    H     H_    0.475287 0.361892 0.824548 0.104497
H3    H     H_    0.693036 0.872435 0.993536 0.150236
H4    H     H_    0.306974 0.372451 0.006477 0.150224
H5    H     H_    0.590669 0.871293 0.046021 0.115245
H6    H     H_    0.409341 0.371451 0.953991 0.115233
C7    C     C_R   0.606038 0.854738 0.288852 -0.024987
C8    C     C_R   0.393961 0.354743 0.711144 -0.024985
C9    C     C_R   0.916949 0.854311 0.298649 -0.171219
C10   C     C_R   0.083048 0.354496 0.701345 -0.171197
C11   C     C_R   0.881024 0.849022 0.373335 -0.116936
C12   C     C_R   0.118969 0.349373 0.626647 -0.116924
C13   C     C_R   0.814396 0.850355 0.354203 -0.141902
C14   C     C_R   0.185597 0.350663 0.645778 -0.141875
C15   C     C_R   0.781315 0.856509 0.258510 0.057086
C16   C     C_R   0.218684 0.356598 0.741485 0.057089
C17   C     C_R   0.818242 0.860843 0.180259 0.021788
C18   C     C_R   0.181759 0.360860 0.819742 0.021754
C19   C     C_R   0.712593 0.858394 0.238805 0.070835
C20   C     C_R   0.287407 0.358418 0.761193 0.070829
C21   C     C_R   0.681685 0.864777 0.142039 0.103585
C22   C     C_R   0.318320 0.364823 0.857967 0.103588
C23   C     C_R   0.717680 0.868381 0.067116 -0.203300
C24   C     C_R   0.282327 0.368395 0.932893 -0.203279
C25   C     C_R   0.784473 0.865785 0.083880 0.084318
C26   C     C_R   0.215531 0.365765 0.916125 0.084326
C27   C     C_R   0.672979 0.853707 0.311862 -0.203526
C28   C     C_R   0.327019 0.353639 0.688133 -0.203533
C29   C     C_R   0.576670 0.861208 0.193257 -0.171255
C30   C     C_R   0.423334 0.361325 0.806744 -0.171247
C31   C     C_R   0.886898 0.860352 0.202998 -0.065525
C32   C     C_R   0.113103 0.360380 0.797003 -0.065533
H7    H     H_    0.692001 0.848247 0.387359 0.093942
H8    H     H_    0.307995 0.348013 0.612636 0.093945
H9    H     H_    0.968984 0.854003 0.315641 0.098894
H10   H     H_    0.031012 0.354243 0.684353 0.098894
H11   H     H_    0.790481 0.846546 0.416719 0.108317
H12   H     H_    0.209509 0.347069 0.583248 0.108305
H13   H     H_    0.905081 0.844348 0.447074 0.119402
H14   H     H_    0.094909 0.344894 0.552897 0.119383
C33   C     C_1   0.166519 0.857338 0.168452 -0.135959
C34   C     C_1   0.833481 0.357339 0.831548 -0.135959
C35   C     C_1   0.218946 0.855053 0.219511 0.037111
C36   C     C_1   0.781054 0.355053 0.780489 0.037111
C37   C     C_1   0.280724 0.853468 0.279462 0.014052
C38   C     C_1   0.719276 0.353468 0.720538 0.014053
C39   C     C_1   0.333114 0.851046 0.330644 -0.192587
C40   C     C_1   0.666886 0.351045 0.669356 -0.192586
O11   O     O_R   0.922300 0.202240 0.924350 -0.522192
O12   O     O_R   0.077700 0.702240 0.075650 -0.522196
O13   O     O_R   0.050780 0.535130 0.891350 -0.538960
O14   O     O_R   0.949220 0.035130 0.108650 -0.538957
C41   C     C_R   0.070054 0.368534 0.869185 0.730575
C42   C     C_R   0.929948 0.868531 0.130818 0.730567
O15   O     O_R   0.921100 0.531560 0.912990 -0.527644
O16   O     O_R   0.078900 0.031560 0.087010 -0.527641
O17   O     O_R   0.947120 0.708470 0.097370 -0.534229
O18   O     O_R   0.052880 0.208470 0.902630 -0.534230
C43   C     C_R   0.895947 0.363608 0.893349 0.732333
C44   C     C_R   0.104052 0.863608 0.106651 0.732330
O19   O     O_3   0.008710 0.375800 0.060400 -0.366844
O20   O     O_3   0.991290 0.875800 0.939600 -0.366843
V3    V     V_3+5 0.998380 0.648080 0.988790 1.500880
V4    V     V_3+5 0.001620 0.148080 0.011210 1.500885
I1    I     I_    0.821677 0.866909 0.950908 -0.401589
I2    I     I_    0.178322 0.366869 0.049096 -0.401590

loop_
_geom_bond_atom_site_label_1
_geom_bond_atom_site_label_2
_ccdc_geom_bond_type
C20   C22   A    
C37   C39   T    
C9    C11   A    
C25   I1    S    
O11   C43   A    
O2    C4    A    
C2    O7    A    
C18   C32   A    
C21   C23   A    
O5    C3    A    
C5    H5    S    
C6    H6    S    
O12   V3    S    
C41   O18   A    
O20   V3    S    
H1    C29   S    
C27   H7    S    
C28   H8    S    
C34   C36   T    
C5    C21   A    
O13   C41   A    
C6    C22   A    
C36   C38   S    
C10   C32   A    
C2    C39   S    
C31   C42   S    
O1    C3    A    
C17   C31   A    
C13   C15   A    
C17   C25   A    
C7    C29   A    
C8    C30   A    
O5    V1    S    
O6    V2    S    
C23   C25   A    
C24   C26   A    
O16   V4    S    
C42   O17   A    
C33   C44   S    
O15   V3    S    
O12   C44   A    
C34   C43   S    
C33   C35   T    
O20   V4    S    
O18   V4    S    
O19   V3    S    
C10   H10   S    
O17   V3    S    
C3    C8    S    
C26   I2    S    
C15   C19   A    
C14   C16   A    
O4    V2    S    
C32   C41   S    
O6    C4    A    
C35   C37   S    
O1    V2    S    
O2    V1    S    
H2    C30   S    
H3    C23   S    
O4    C2    A    
C11   H13   S    
C18   C26   A    
C19   C27   A    
C7    C27   A    
O3    V1    S    
C16   C20   A    
C5    C29   A    
C1    C40   S    
O3    C1    A    
C6    C30   A    
O19   V4    S    
C9    H9    S    
C4    C7    S    
C10   C12   A    
O7    V1    S    
C1    O8    A    
C11   C13   A    
O8    V2    S    
C12   C14   A    
H4    C24   S    
C12   H14   S    
C22   C24   A    
C15   C17   A    
C16   C18   A    
O14   V4    S    
C20   C28   A    
O13   V3    S    
C8    C28   A    
O11   V4    S    
C19   C21   A    
O16   C44   A    
O9    V2    S    
O15   C43   A    
O10   V1    S    
O14   C42   A    
C13   H11   S    
C14   H12   S    
C9    C31   A    
C38   C40   T    
