data_mof_unit_13636.cif
_audit_creation_date              2012-12-10T17:48:53-0500
_audit_creation_method            fapswitch 2.2
_symmetry_space_group_name_H-M    P1
_symmetry_Int_Tables_number       1
_space_group_crystal_system       triclinic
_cell_length_a                    10.798441
_cell_length_b                    14.784489
_cell_length_c                    14.99719
_cell_angle_alpha                 64.23594
_cell_angle_beta                  105.756841
_cell_angle_gamma                 102.382168
_cell_volume                      2062.37907605

loop_
_atom_site_label
_atom_site_type_symbol
_atom_type_description
_atom_site_fract_x
_atom_site_fract_y
_atom_site_fract_z
_atom_type_partial_charge
C1    C     C_R   0.479662 0.119446 0.312724 0.758361
C2    C     C_3   0.877006 0.004589 0.493585 0.038042
C3    C     C_3   0.927113 0.902103 0.569182 -0.478760
C4    C     C_3   0.965189 0.087704 0.526224 -0.388790
C5    C     C_R   0.465698 0.186113 0.204940 -0.042996
C6    C     C_R   0.523534 0.812432 0.793701 -0.085726
C7    C     C_R   0.401630 0.213197 0.028528 -0.177262
C8    C     C_R   0.419279 0.147588 0.130150 -0.203775
C9    C     C_R   0.497493 0.290013 0.176715 -0.261145
C10   C     C_R   0.468995 0.358254 0.075250 0.081666
C11   C     C_R   0.424567 0.318081 0.000745 0.083118
C12   C     C_R   0.259902 0.001708 0.497628 0.793343
C13   C     C_R   0.484138 0.464654 0.046487 0.009635
C14   C     C_R   0.466761 0.531023 0.941993 -0.052611
C15   C     C_R   0.419037 0.487077 0.868798 0.456560
C16   C     C_R   0.401568 0.382476 0.899319 -0.291482
C17   C     C_R   0.510609 0.506141 0.119635 -0.197259
C18   C     C_R   0.525151 0.609246 0.093043 -0.240569
C19   C     C_R   0.519275 0.675677 0.992809 0.165414
C20   C     C_R   0.494084 0.637802 0.916583 0.095934
C21   C     C_R   0.540927 0.780202 0.968342 -0.215888
C22   C     C_R   0.541521 0.848460 0.868868 -0.177547
C23   C     C_R   0.520266 0.880444 0.687165 0.806824
C24   C     C_R   0.502783 0.708658 0.818709 -0.251883
C25   C     C_R   0.730926 0.275198 0.670776 -0.270782
C26   C     C_R   0.690154 0.198213 0.636494 -0.034084
C27   C     C_R   0.518325 0.288711 0.514102 0.643541
C28   C     C_R   0.571238 0.376537 0.535828 -0.165999
C29   C     C_R   0.672570 0.365585 0.620297 -0.025102
C30   C     C_R   0.522748 0.472741 0.479131 0.072877
C31   C     C_R   0.552086 0.549651 0.518054 -0.033780
C32   C     C_R   0.659315 0.537419 0.602644 -0.024457
C33   C     C_R   0.716633 0.445117 0.652746 0.500244
C34   C     C_R   0.739652 0.000423 0.499294 0.768696
C35   C     C_R   0.461337 0.499398 0.377575 -0.157820
C36   C     C_R   0.400837 0.585959 0.321922 -0.234228
C37   C     C_R   0.403731 0.652629 0.364851 0.171314
C38   C     C_R   0.478872 0.636989 0.463313 0.009959
C39   C     C_R   0.336172 0.737468 0.307298 -0.324940
C40   C     C_R   0.345311 0.809370 0.345206 0.064464
C41   C     C_R   0.473092 0.709208 0.500484 0.009058
C42   C     C_3   0.031704 0.011709 0.386696 -0.142724
C43   C     C_3   0.888651 0.026469 0.383430 -0.067337
C44   C     C_3   0.072850 0.904660 0.575348 0.356178
C45   C     C_3   0.103220 0.095782 0.512494 -0.318839
C46   C     C_3   0.120430 0.004924 0.492074 0.000404
Cu1   Cu    Cu3+1 0.465900 0.918260 0.475680 0.918860
Cu2   Cu    Cu3+1 0.534100 0.081740 0.524320 0.950604
H1    H     H_    0.024587 0.934688 0.388290 0.129587
H2    H     H_    0.966929 0.068534 0.607034 0.190957
H3    H     H_    0.910636 0.884907 0.645169 0.199811
H4    H     H_    0.367289 0.351573 0.842140 0.166012
H5    H     H_    0.500884 0.686022 0.760203 0.228442
H6    H     H_    0.557013 0.928769 0.851093 0.161076
H7    H     H_    0.544302 0.637198 0.151951 0.142689
H8    H     H_    0.366514 0.182020 0.971664 0.136427
H9    H     H_    0.396106 0.067080 0.149987 0.151446
H10   H     H_    0.549048 0.315654 0.235076 0.138274
H11   H     H_    0.516606 0.460487 0.198737 0.122713
H12   H     H_    0.558046 0.809045 0.026378 0.133486
H13   H     H_    0.515393 0.698689 0.577364 0.160893
H14   H     H_    0.301789 0.878507 0.297971 0.114447
H15   H     H_    0.352664 0.601297 0.244049 0.140500
H16   H     H_    0.809644 0.263700 0.735737 0.186643
H17   H     H_    0.739017 0.130613 0.673606 0.148049
H18   H     H_    0.471022 0.458770 0.336805 0.119313
H19   H     H_    0.281025 0.750229 0.231540 0.136610
H20   H     H_    0.821679 0.967704 0.361064 0.137982
H21   H     H_    0.084197 0.840465 0.558460 0.059000
H22   H     H_    0.871976 0.840767 0.545587 0.133982
H23   H     H_    0.172297 0.099012 0.581520 0.230845
H24   H     H_    0.122568 0.167685 0.447904 0.170636
H25   H     H_    0.928134 0.162724 0.481957 0.171745
N1    N     N_R   0.585360 0.204570 0.560800 -0.208478
N2    N     N_R   0.414550 0.795430 0.439160 -0.186139
O1    O     O_R   0.455060 0.022100 0.338110 -0.591495
O2    O     O_R   0.512640 0.160150 0.379180 -0.601795
O3    O     O_R   0.288900 0.930980 0.479450 -0.599830
O4    O     O_R   0.346480 0.069030 0.520520 -0.538254
O5    O     O_R   0.487360 0.839850 0.620820 -0.597563
O6    O     O_R   0.544940 0.977900 0.661890 -0.575371
O7    O     O_R   0.653520 0.930970 0.479480 -0.586481
O8    O     O_R   0.711100 0.069020 0.520550 -0.598356
O9    O     O_3   0.144152 0.898261 0.672421 -0.568526
C47   C     C_3   0.180927 0.800207 0.732961 -0.337394
H26   H     H_    0.249299 0.782671 0.700573 0.178119
H27   H     H_    0.095325 0.742287 0.741407 0.143657
H28   H     H_    0.231075 0.796612 0.809323 0.206027
C48   C     C_3   0.091706 0.083821 0.291723 -0.365997
C49   C     C_3   0.068673 0.038200 0.212864 -0.356150
C50   C     C_3   0.078798 0.119960 0.107871 -0.850476
H29   H     H_    0.994524 0.164163 0.075930 0.257697
H30   H     H_    0.168342 0.172510 0.111805 0.268961
H31   H     H_    0.080482 0.084476 0.056481 0.239920
H32   H     H_    0.142631 0.986111 0.236392 0.208588
H33   H     H_    0.972920 0.992528 0.208558 0.204115
H34   H     H_    0.059812 0.159960 0.255822 0.215696
H35   H     H_    0.197929 0.098568 0.312859 0.161084
O10   O     O_3   0.387656 0.543895 0.766225 -0.614031
C51   C     C_3   0.253684 0.550454 0.737586 -0.379383
H36   H     H_    0.219606 0.576132 0.785683 0.156914
H37   H     H_    0.200971 0.476633 0.739615 0.173823
H38   H     H_    0.231844 0.606961 0.658522 0.194597
O11   O     O_3   0.812775 0.430278 0.738911 -0.586519
C52   C     C_3   0.936212 0.452656 0.714345 -0.407532
H39   H     H_    0.991012 0.512784 0.739464 0.180740
H40   H     H_    0.936111 0.478506 0.632389 0.148678
H41   H     H_    0.988570 0.384576 0.757364 0.186444
O12   O     O_3   0.385149 0.275790 0.479596 -0.577780
C53   C     C_3   0.350931 0.289029 0.377255 -0.277650
H42   H     H_    0.281232 0.346274 0.335656 0.155075
H43   H     H_    0.299444 0.219024 0.370306 0.176537
H44   H     H_    0.433221 0.312836 0.338634 0.131449
C54   C     C_3   0.841092 0.131431 0.307126 -0.363555
C55   C     C_3   0.780247 0.136071 0.200129 -0.373878
C56   C     C_3   0.780156 0.244937 0.121562 -0.808750
H45   H     H_    0.735552 0.290818 0.143847 0.262221
H46   H     H_    0.880921 0.279269 0.114197 0.242529
H47   H     H_    0.724391 0.246270 0.047019 0.255963
H48   H     H_    0.831768 0.094683 0.178360 0.236705
H49   H     H_    0.679312 0.098759 0.198579 0.219056
H50   H     H_    0.764326 0.148559 0.331964 0.182655
H51   H     H_    0.919202 0.193910 0.306832 0.196549
C57   C     C_3   0.733558 0.624144 0.631271 -0.385522
C58   C     C_3   0.717813 0.609499 0.735680 -0.293088
C59   C     C_3   0.775931 0.701875 0.759138 -0.913044
H52   H     H_    0.881196 0.715676 0.760501 0.257230
H53   H     H_    0.728141 0.769113 0.701769 0.259142
H54   H     H_    0.762430 0.688391 0.834873 0.258584
H55   H     H_    0.614307 0.592681 0.738762 0.243653
H56   H     H_    0.766145 0.544258 0.796479 0.267269
H57   H     H_    0.837905 0.628382 0.633068 0.192859
H58   H     H_    0.710014 0.698897 0.572417 0.179623

loop_
_geom_bond_atom_site_label_1
_geom_bond_atom_site_label_2
_ccdc_geom_bond_type
C59   H52   S    
C55   H49   S    
C45   H23   S    
C33   O11   S    
C1    O2    A    
C32   C57   S    
C19   C20   A    
C41   H13   S    
C54   C55   S    
C7    C8    A    
C22   H6    S    
C45   C46   S    
C56   H45   S    
C7    C11   A    
C52   H40   S    
C57   H58   S    
C1    C5    S    
C7    H8    S    
Cu2   O4    S    
C28   C29   A    
C19   C21   A    
Cu1   O1    S    
C18   C19   A    
C43   C54   S    
C30   C31   A    
C50   H30   S    
C55   C56   S    
C6    C22   A    
C12   O4    A    
C29   C33   A    
C40   H14   S    
Cu2   O6    S    
C57   H57   S    
C9    H10   S    
C42   C46   S    
Cu1   O7    S    
C20   C24   A    
C53   H42   S    
C58   H55   S    
O10   C51   S    
C43   H20   S    
C12   O3    A    
C23   O5    A    
C36   H15   S    
C9    C10   A    
C2    C34   S    
C21   C22   A    
C45   H24   S    
C1    O1    A    
Cu1   O5    S    
O11   C52   S    
C44   C46   S    
C4    C45   S    
C47   H27   S    
C25   C29   A    
C52   H41   S    
C3    C44   S    
Cu2   N1    S    
C49   H32   S    
C3    H22   S    
O9    C47   S    
C38   C41   A    
C12   C46   S    
C50   H29   S    
C3    H3    S    
C59   H54   S    
C24   H5    S    
C47   H26   S    
C51   H38   S    
C48   H34   S    
C35   C36   A    
Cu2   O2    S    
C2    C4    S    
C40   N2    A    
C5    C9    A    
C37   C38   A    
C14   C20   A    
C8    H9    S    
C41   N2    A    
C11   C16   A    
C58   H56   S    
Cu1   Cu2   S    
C2    C43   S    
C6    C24   A    
C51   H37   S    
C17   C18   A    
C44   H21   S    
C53   H44   S    
C4    H25   S    
C18   H7    S    
C21   H12   S    
C54   H51   S    
C30   C35   A    
C17   H11   S    
C58   C59   S    
C34   O8    A    
C27   N1    A    
C39   C40   A    
C47   H28   S    
C36   C37   A    
C59   H53   S    
C23   O6    A    
C26   H17   S    
C39   H19   S    
C31   C32   A    
C16   H4    S    
C15   O10   S    
C44   O9    S    
C10   C13   A    
C5    C8    A    
Cu2   O8    S    
C31   C38   A    
C49   H33   S    
C52   H39   S    
C35   H18   S    
C56   H47   S    
C13   C17   A    
C48   H35   S    
C42   C48   S    
C32   C33   A    
C28   C30   A    
C2    C3    S    
C25   C26   A    
Cu1   N2    S    
C37   C39   A    
O12   C53   S    
C50   H31   S    
C49   C50   S    
C6    C23   S    
C51   H36   S    
C26   N1    A    
C56   H46   S    
C53   H43   S    
C10   C11   A    
C42   H1    S    
C54   H50   S    
C27   O12   S    
C55   H48   S    
C42   C43   S    
C4    H2    S    
C27   C28   A    
C14   C15   A    
C34   O7    A    
Cu1   O3    S    
C48   C49   S    
C13   C14   A    
C25   H16   S    
C15   C16   A    
C57   C58   S    
