data_mof_unit_21601.cif
_audit_creation_date              2012-12-10T16:52:39-0500
_audit_creation_method            fapswitch 2.2
_symmetry_space_group_name_H-M    P1
_symmetry_Int_Tables_number       1
_space_group_crystal_system       triclinic
_cell_length_a                    7.836137
_cell_length_b                    8.56735
_cell_length_c                    13.845253
_cell_angle_alpha                 93.394397
_cell_angle_beta                  92.926386
_cell_angle_gamma                 94.311592
_cell_volume                      923.803981244

loop_
_atom_site_label
_atom_site_type_symbol
_atom_type_description
_atom_site_fract_x
_atom_site_fract_y
_atom_site_fract_z
_atom_type_partial_charge
C1    C     C_R   0.045257 0.794722 0.497591 0.969597
C2    C     C_R   0.937015 0.488650 0.318155 0.874942
C3    C     C_R   0.094777 0.527402 0.786251 -0.096384
C4    C     C_R   0.905223 0.472598 0.213749 -0.096384
C5    C     C_R   0.052587 0.660797 0.940165 -0.139842
C6    C     C_R   0.947413 0.339203 0.059834 -0.139842
C7    C     C_R   0.992782 0.614420 0.845688 -0.186302
C8    C     C_R   0.007218 0.385580 0.154312 -0.186302
C9    C     C_R   0.244637 0.472222 0.824044 -0.163760
C10   C     C_R   0.755363 0.527777 0.175956 -0.163760
C11   C     C_R   0.303600 0.510461 0.919669 0.093172
C12   C     C_R   0.954743 0.205278 0.502409 0.969597
C13   C     C_R   0.696399 0.489539 0.080330 0.093172
C14   C     C_R   0.211688 0.616261 0.975523 0.068893
C15   C     C_R   0.788312 0.383739 0.024477 0.068893
C16   C     C_R   0.461754 0.461531 0.956535 -0.145806
C17   C     C_R   0.538246 0.538469 0.043465 -0.145807
C18   C     C_R   0.452846 0.660193 0.090714 0.610790
C19   C     C_R   0.547155 0.339807 0.909286 0.610790
C20   C     C_R   0.287026 0.688516 0.061080 -0.270442
C21   C     C_R   0.712974 0.311484 0.938920 -0.270442
C22   C     C_2   0.068734 0.958514 0.496178 -0.360473
C23   C     C_2   0.931266 0.041486 0.503822 -0.360474
C24   C     C_R   0.062985 0.511350 0.681845 0.874942
F1    F     F_    0.531821 0.763467 0.159913 -0.687570
F2    F     F_    0.468179 0.236533 0.840087 -0.687570
H1    H     H_    0.223395 0.778254 0.100681 0.177898
H2    H     H_    0.801851 0.989782 0.511124 0.186378
H3    H     H_    0.487327 0.374448 0.427738 0.192929
H4    H     H_    0.512673 0.625552 0.572262 0.192929
H5    H     H_    0.776605 0.221747 0.899319 0.177898
H6    H     H_    0.676596 0.585772 0.225922 0.223629
H7    H     H_    0.323403 0.414228 0.774078 0.223629
H8    H     H_    0.124890 0.342766 0.182982 0.162063
H9    H     H_    0.875110 0.657234 0.817018 0.162063
H10   H     H_    0.979517 0.738350 0.983535 0.153586
H11   H     H_    0.020483 0.261650 0.016465 0.153586
H12   H     H_    0.198149 0.010218 0.488876 0.186378
N1    N     N_2   0.440860 0.456490 0.474790 -0.163709
N2    N     N_2   0.559140 0.543510 0.525210 -0.163709
O1    O     O_R   0.891570 0.738930 0.506190 -0.610485
O2    O     O_R   0.108430 0.261070 0.493810 -0.610485
O3    O     O_R   0.174650 0.711050 0.490030 -0.618356
O4    O     O_R   0.825350 0.288950 0.509970 -0.618356
O5    O     O_R   0.909850 0.521900 0.644940 -0.612175
O6    O     O_R   0.090150 0.478100 0.355060 -0.612175
O7    O     O_R   0.192930 0.494020 0.628780 -0.623736
O8    O     O_R   0.807070 0.505980 0.371220 -0.623736
Zn1   Zn    Zn3+2 0.810990 0.518620 0.510790 0.965163
Zn2   Zn    Zn3+2 0.189010 0.481380 0.489210 0.965163

loop_
_geom_bond_atom_site_label_1
_geom_bond_atom_site_label_2
_ccdc_geom_bond_type
O4    Zn1   S    
C2    C4    S    
O3    Zn2   S    
C3    C9    A    
C20   H1    S    
O5    Zn1   S    
C9    C11   A    
C11   C16   A    
O6    Zn2   S    
C18   C20   A    
C13   C17   A    
C4    C8    A    
H3    N1    S    
C17   C18   A    
C5    C14   A    
C6    H11   S    
H4    N2    S    
C1    C22   S    
C12   O4    A    
C8    H8    S    
C23   H2    S    
C2    O6    A    
C9    H7    S    
C21   H5    S    
C12   C23   S    
C3    C24   S    
C18   F1    S    
O2    Zn2   S    
C16   C19   A    
C6    C8    A    
C24   O5    A    
O1    Zn1   S    
O8    Zn1   S    
C19   C21   A    
O7    Zn2   S    
C3    C7    A    
C13   C15   A    
C11   C14   A    
C4    C10   A    
N2    Zn1   S    
C22   H12   S    
C5    H10   S    
C10   H6    S    
C15   C21   A    
N1    Zn2   S    
C14   C20   A    
C1    O1    A    
N1    N2    D    
C5    C7    A    
C19   F2    S    
C22   C23   D    
C12   O2    A    
C2    O8    A    
C6    C15   A    
C24   O7    A    
C7    H9    S    
C1    O3    A    
C16   C17   A    
C10   C13   A    
