data_mof_unit_67630.cif
_audit_creation_date              2013-03-05T16:14:30-0500
_audit_creation_method            fapswitch 2.2
_symmetry_space_group_name_H-M    P1
_symmetry_Int_Tables_number       1
_space_group_crystal_system       triclinic
_cell_length_a                    10.818483
_cell_length_b                    10.733922
_cell_length_c                    9.55542
_cell_angle_alpha                 89.550971
_cell_angle_beta                  92.506007
_cell_angle_gamma                 87.87722
_cell_volume                      1107.74913961

loop_
_atom_site_label
_atom_site_type_symbol
_atom_site_description
_atom_site_fract_x
_atom_site_fract_y
_atom_site_fract_z
_atom_type_partial_charge
O1    O     O_R   0.500060 0.316850 0.620870 -0.566342
O2    O     O_R   0.499940 0.683150 0.379130 -0.566163
O3    O     O_R   0.500000 0.316860 0.379090 -0.520195
O4    O     O_R   0.500000 0.683140 0.620910 -0.521330
C1    C     C_R   0.506220 0.260114 0.501078 0.967985
C2    C     C_R   0.492702 0.739836 0.498879 0.970101
O5    O     O_R   0.316880 0.499960 0.620870 -0.505059
O6    O     O_R   0.683120 0.500040 0.379130 -0.504202
O7    O     O_R   0.316830 0.499970 0.379090 -0.534776
O8    O     O_R   0.683170 0.500030 0.620910 -0.531696
C3    C     C_R   0.260016 0.502503 0.497504 0.965126
C4    C     C_R   0.740048 0.497027 0.502502 0.966970
Cu1   Cu    Cu3+1 0.500030 0.499990 0.643150 1.168135
Cu2   Cu    Cu3+1 0.499970 0.500010 0.356850 1.168072
C5    C     C_3   0.050214 0.501330 0.628736 0.257663
C6    C     C_3   0.950089 0.497728 0.371137 0.259222
C7    C     C_3   0.971501 0.395704 0.569894 0.243198
C8    C     C_3   0.028937 0.603163 0.430094 0.247703
C9    C     C_3   0.876638 0.494848 0.506224 -0.300754
C10   C     C_3   0.123561 0.504078 0.493784 -0.303342
C11   C     C_3   0.956886 0.599592 0.565295 0.279159
C12   C     C_3   0.043445 0.399491 0.434580 0.271036
C13   C     C_3   0.560034 0.031540 0.619886 0.280287
C14   C     C_3   0.437351 0.968548 0.380087 0.280469
C15   C     C_3   0.609884 0.946135 0.505017 0.236423
C16   C     C_3   0.387531 0.053946 0.495107 0.236517
C17   C     C_3   0.488221 0.876572 0.496476 -0.383221
C18   C     C_3   0.509279 0.123417 0.503499 -0.382497
C19   C     C_3   0.437242 0.962551 0.610904 0.243030
C20   C     C_3   0.560236 0.037401 0.389206 0.250591
C21   C     C_3   0.498120 0.613230 0.050317 -0.219503
C22   C     C_3   0.501954 0.386748 0.949666 -0.219481
C23   C     C_3   0.404244 0.557464 0.945256 0.433642
C24   C     C_3   0.595788 0.442555 0.054769 0.436686
H1    H     H_    0.504177 0.708206 0.093693 0.263248
H2    H     H_    0.497124 0.291728 0.906088 0.262798
N1    N     N_3   0.500090 0.499970 0.858290 -0.277345
N2    N     N_3   0.499910 0.500030 0.141710 -0.277580
C25   C     C_3   0.595003 0.554000 0.956275 0.377843
C26   C     C_3   0.405024 0.445954 0.043737 0.378902
S1    S     S_3+6 0.948914 0.255203 0.662980 0.082956
O9    O     O_2   0.854101 0.181788 0.583726 -0.243277
O10   O     O_2   0.069213 0.180724 0.674999 -0.221519
O11   O     O_3   0.902123 0.288433 0.824265 -0.492289
H3    H     H_    0.924798 0.213159 0.881661 0.357748
S2    S     S_3+6 0.056176 0.742877 0.337959 0.072988
O12   O     O_2   0.152492 0.812650 0.419449 -0.263041
O13   O     O_2   0.099583 0.712647 0.194660 -0.260682
O14   O     O_3   0.924437 0.830314 0.321981 -0.447785
H4    H     H_    0.950271 0.913575 0.291858 0.376254
O15   O     O_3   0.104481 0.506077 0.763894 -0.576648
H5    H     H_    0.040626 0.481690 0.828459 0.405094
O16   O     O_3   0.896117 0.492877 0.235845 -0.577396
H6    H     H_    0.958967 0.520580 0.171703 0.401069
O17   O     O_3   0.912262 0.704386 0.635729 -0.556192
H7    H     H_    0.986523 0.750553 0.665166 0.384724
O18   O     O_3   0.088089 0.294874 0.363852 -0.561360
H8    H     H_    0.013839 0.248747 0.334264 0.377624
O19   O     O_3   0.726365 0.885181 0.508258 -0.554748
H9    H     H_    0.786663 0.952212 0.505155 0.409452
O20   O     O_3   0.271072 0.114965 0.492176 -0.557805
H10   H     H_    0.210810 0.048150 0.498662 0.411380
S3    S     S_3+6 0.650077 0.063848 0.776065 0.110833
O21   O     O_2   0.675233 0.199968 0.782273 -0.275481
O22   O     O_2   0.580422 0.028992 0.901445 -0.152533
O23   O     O_3   0.785261 0.981177 0.778975 -0.439222
H11   H     H_    0.829273 0.004416 0.867387 0.349040
S4    S     S_3+6 0.347019 0.937708 0.223460 0.126818
O24   O     O_2   0.413486 0.979643 0.098494 -0.144763
O25   O     O_2   0.327122 0.800797 0.212209 -0.266325
O26   O     O_3   0.208915 0.014790 0.224749 -0.456328
H12   H     H_    0.162197 0.986030 0.140357 0.360586
S5    S     S_3+6 0.345301 0.917207 0.751349 0.122633
O27   O     O_2   0.239123 0.843150 0.695702 -0.270414
O28   O     O_2   0.423705 0.838842 0.853796 -0.192504
O29   O     O_3   0.290652 0.045762 0.830579 -0.417813
H13   H     H_    0.221034 0.017415 0.885164 0.374566
S6    S     S_3+6 0.652521 0.081847 0.248879 0.102669
O30   O     O_2   0.575817 0.164127 0.148831 -0.192472
O31   O     O_2   0.761712 0.151348 0.305015 -0.295447
O32   O     O_3   0.701838 0.952880 0.166449 -0.425137
H14   H     H_    0.771262 0.979881 0.110763 0.362268
O33   O     O_3   0.299613 0.619515 0.884255 -0.560355
H15   H     H_    0.254736 0.656112 0.963219 0.377196
O34   O     O_3   0.700467 0.380716 0.115929 -0.562684
H16   H     H_    0.744439 0.342537 0.037240 0.371819
S7    S     S_3+6 0.727997 0.634502 0.909622 0.115319
O35   O     O_2   0.823081 0.542436 0.859243 -0.273402
O36   O     O_2   0.693964 0.729821 0.797563 -0.165439
O37   O     O_3   0.786218 0.706474 0.052021 -0.453039
H17   H     H_    0.861220 0.746669 0.020381 0.387265
S8    S     S_3+6 0.271987 0.365525 0.090417 0.112295
O38   O     O_2   0.305866 0.270408 0.202779 -0.167289
O39   O     O_2   0.176607 0.457590 0.140236 -0.280878
O40   O     O_3   0.214206 0.293193 0.948101 -0.454324
H18   H     H_    0.144393 0.245899 0.982062 0.374673

loop_
_geom_bond_atom_site_label_1
_geom_bond_atom_site_label_2
_geom_bond_distance
_ccdc_geom_bond_type
S7    O35   1.497306 D    
S3    O22   1.495325 D    
C17   C19   1.543462 S    
C8    C11   1.538695 S    
S5    O28   1.498983 D    
S5    O27   1.501664 D    
O40   H18   0.990309 S    
C14   C17   1.550300 S    
C25   S7    1.776992 S    
O17   H7    0.990978 S    
C12   O18   1.396877 S    
O32   H14   0.989898 S    
O18   H8    0.991017 S    
O16   H6    0.987409 S    
O5    C3    1.305236 A    
S2    O14   1.677799 S    
O1    C1    1.303908 A    
C22   H2    1.106836 S    
C9    C11   1.541366 S    
C16   O20   1.397376 S    
C14   C16   1.539378 S    
S4    O26   1.681428 S    
S6    O31   1.501945 D    
C19   S5    1.780333 S    
S1    O9    1.499308 D    
O4    Cu1   1.975701 S    
C6    O16   1.397209 S    
O33   H15   0.990907 S    
S4    O24   1.495392 D    
O6    Cu2   1.983546 S    
C21   C23   1.537155 S    
C5    O15   1.397197 S    
Cu1   N1    2.055722 S    
C13   S3    1.789506 S    
O23   H11   0.989734 S    
S3    O23   1.681365 S    
O19   H9    0.990065 S    
Cu1   Cu2   2.735687 S    
S1    O10   1.501504 D    
O2    C2    1.304181 A    
C8    S2    1.773610 S    
C7    S1    1.774997 S    
C5    C10   1.544026 S    
S2    O13   1.500891 D    
C3    C10   1.474571 S    
C23   C26   1.516302 S    
C22   N1    1.489897 S    
O15   H5    0.987175 S    
O29   H13   0.990313 S    
O4    C2    1.309023 A    
C11   O17   1.396913 S    
S6    O30   1.498544 D    
O34   H16   0.990592 S    
S8    O40   1.679590 S    
C23   N1    1.477357 S    
C24   C25   1.515829 S    
C24   O34   1.394623 S    
C22   C24   1.537310 S    
O7    Cu2   2.001893 S    
Cu2   N2    2.055724 S    
C1    C18   1.466418 S    
C23   O33   1.394655 S    
C2    C17   1.466693 S    
C5    C11   1.535234 S    
O6    C4    1.305578 A    
S1    O11   1.679894 S    
S8    O39   1.497565 D    
C13   C18   1.549267 S    
C26   S8    1.777049 S    
O7    C3    1.311053 A    
O3    Cu2   1.975701 S    
O8    C4    1.311415 A    
S4    O25   1.497155 D    
C10   C12   1.539723 S    
S7    O36   1.499793 D    
S5    O29   1.679849 S    
C21   H1    1.106612 S    
O1    Cu1   1.978953 S    
C13   C19   1.544138 S    
O11   H3    0.990160 S    
C15   C20   1.537812 S    
C5    C7    1.538306 S    
S2    O12   1.499665 D    
C6    C12   1.535253 S    
C24   N2    1.477373 S    
O3    C1    1.308910 A    
O8    Cu1   2.001894 S    
C15   C17   1.536550 S    
C16   C18   1.536809 S    
C7    C12   1.539087 S    
C21   N2    1.489827 S    
C18   C20   1.542662 S    
O26   H12   0.990378 S    
N1    C25   1.495290 S    
N2    C26   1.495223 S    
S6    O32   1.679446 S    
O37   H17   0.990601 S    
C6    C9    1.545790 S    
C4    C9    1.475877 S    
S8    O38   1.500062 D    
C7    C9    1.552499 S    
C21   C25   1.533689 S    
C8    C10   1.550553 S    
C22   C26   1.534119 S    
O20   H10   0.990298 S    
O2    Cu2   1.978953 S    
C14   C20   1.544288 S    
C14   S4    1.791190 S    
S3    O21   1.497266 D    
C20   S6    1.778962 S    
O5    Cu1   1.983546 S    
C13   C15   1.538480 S    
C16   C19   1.538773 S    
C6    C8    1.537957 S    
O14   H4    0.990560 S    
S7    O37   1.680058 S    
C15   O19   1.397208 S    
