data_mof_unit_36321.cif
_audit_creation_date              2012-12-11T14:17:31-0500
_audit_creation_method            fapswitch 2.2
_symmetry_space_group_name_H-M    P1
_symmetry_Int_Tables_number       1
_space_group_crystal_system       triclinic
_cell_length_a                    6.945644
_cell_length_b                    13.630323
_cell_length_c                    20.414037
_cell_angle_alpha                 102.154096
_cell_angle_beta                  89.96027
_cell_angle_gamma                 90.648789
_cell_volume                      1889.18092349

loop_
_atom_site_label
_atom_site_type_symbol
_atom_type_description
_atom_site_fract_x
_atom_site_fract_y
_atom_site_fract_z
_atom_type_partial_charge
O1    O     O_R   0.506860 0.599390 0.449240 -0.541824
O2    O     O_R   0.180220 0.594600 0.586780 -0.544866
O3    O     O_R   0.004500 0.400610 0.550760 -0.538027
C1    C     C_R   0.349054 0.616055 0.613466 0.735201
O4    O     O_R   0.177490 0.611290 0.451970 -0.543085
O5    O     O_R   0.001750 0.417420 0.414990 -0.539565
C2    C     C_R   0.346934 0.638024 0.435271 0.688828
O6    O     O_R   0.509610 0.582580 0.585010 -0.545555
O7    O     O_3   0.337420 0.436370 0.488020 -0.363990
V1    V     V_3+5 0.064680 0.511800 0.502220 1.433498
O8    O     O_R   0.671710 0.405400 0.413220 -0.538539
C3    C     C_R   0.839789 0.383888 0.386595 0.748705
O9    O     O_R   0.674440 0.388710 0.548030 -0.539039
C4    C     C_R   0.842591 0.362071 0.564780 0.704926
V2    V     V_3+5 0.564010 0.488200 0.497780 1.449976
O10   O     O_3   0.841140 0.563630 0.511980 -0.378027
C5    C     C_R   0.850885 0.110837 0.612337 -0.157646
H1    H     H_    0.843336 0.161046 0.519579 0.129107
H2    H     H_    0.857712 0.985415 0.695376 0.122256
H3    H     H_    0.849944 0.032399 0.587223 0.117247
C6    C     C_R   0.849079 0.285142 0.604853 -0.036530
C7    C     C_R   0.863895 0.315463 0.928701 -0.169564
C8    C     C_R   0.860482 0.391634 0.893026 -0.119257
C9    C     C_R   0.857466 0.368868 0.823212 -0.157160
C10   C     C_R   0.857755 0.268006 0.786929 0.077496
C11   C     C_R   0.860462 0.190172 0.823952 0.067228
C12   C     C_R   0.855442 0.241789 0.715315 0.073631
C13   C     C_R   0.854811 0.138717 0.682592 0.139340
C14   C     C_R   0.857770 0.064068 0.720038 -0.201095
C15   C     C_R   0.860785 0.089169 0.789524 -0.194466
C16   C     C_R   0.853416 0.314138 0.674759 -0.216048
C17   C     C_R   0.847356 0.183697 0.573724 -0.157889
C18   C     C_R   0.863579 0.215075 0.894944 -0.072661
H4    H     H_    0.854095 0.393621 0.695609 0.092967
H5    H     H_    0.866913 0.334835 0.982979 0.101047
H6    H     H_    0.854956 0.432165 0.799381 0.106659
H7    H     H_    0.860498 0.469218 0.919713 0.118859
H8    H     H_    0.863184 0.028301 0.816085 0.116363
C19   C     C_2   0.005503 0.287436 0.285495 -0.101249
C20   C     C_2   0.842173 0.315245 0.319907 -0.286610
H9    H     H_    0.142826 0.315334 0.307708 0.149337
H10   H     H_    0.703380 0.287637 0.299424 0.158121
C21   C     C_2   0.013804 0.219337 0.217882 -0.100853
C22   C     C_2   0.858656 0.182887 0.180509 -0.298575
H11   H     H_    0.156650 0.199414 0.198152 0.149139
H12   H     H_    0.714534 0.201844 0.198717 0.146643
C23   C     C_2   0.204587 0.790841 0.782310 -0.136097
C24   C     C_2   0.363615 0.815676 0.819941 -0.305287
H13   H     H_    0.066928 0.821123 0.801638 0.130814
H14   H     H_    0.502086 0.785734 0.801919 0.127578
C25   C     C_2   0.202903 0.722322 0.714810 -0.131310
C26   C     C_2   0.361037 0.684345 0.680209 -0.309803
H15   H     H_    0.061664 0.703294 0.692664 0.133299
H16   H     H_    0.504144 0.702989 0.700296 0.124657
C27   C     C_R   0.398359 0.888772 0.388432 -0.094899
H17   H     H_    0.394933 0.837430 0.480791 0.106998
H18   H     H_    0.418540 0.965812 0.414728 0.176888
C28   C     C_R   0.358339 0.715331 0.395466 -0.026754
C29   C     C_R   0.329773 0.685562 0.072051 -0.166114
C30   C     C_R   0.315579 0.610066 0.108083 -0.122199
C31   C     C_R   0.325557 0.633018 0.177814 -0.136388
C32   C     C_R   0.350410 0.733447 0.213733 0.077826
C33   C     C_R   0.365558 0.810387 0.176327 -0.000382
C34   C     C_R   0.360662 0.759877 0.285279 0.020336
C35   C     C_R   0.386823 0.862568 0.317920 0.052872
C36   C     C_R   0.401245 0.937003 0.279637 0.370233
C37   C     C_R   0.390457 0.910770 0.210166 -0.231900
C38   C     C_R   0.346087 0.687534 0.325729 -0.185735
C39   C     C_R   0.384749 0.815686 0.426695 -0.198582
C40   C     C_R   0.354870 0.785359 0.105381 -0.049767
H19   H     H_    0.326033 0.608674 0.304940 0.088530
H20   H     H_    0.320957 0.666149 0.017846 0.099658
H21   H     H_    0.313238 0.570057 0.201754 0.101444
H22   H     H_    0.296298 0.532878 0.081751 0.116750
H23   H     H_    0.402129 0.970493 0.182749 0.152005
O11   O     O_R   0.203230 0.917310 0.915020 -0.539709
O12   O     O_R   0.535500 0.888690 0.048040 -0.540233
O13   O     O_R   0.711080 0.082610 0.085000 -0.540928
C41   C     C_R   0.366146 0.862287 0.064996 0.687051
O14   O     O_R   0.532630 0.905370 0.913230 -0.548832
O15   O     O_R   0.708190 0.099410 0.949230 -0.539310
C42   C     C_R   0.364366 0.884216 0.886520 0.741747
O16   O     O_R   0.206120 0.900510 0.050790 -0.537467
O17   O     O_3   0.375360 0.063570 0.011990 -0.372611
V3    V     V_3+5 0.648170 0.988200 0.997780 1.423362
O18   O     O_R   0.038240 0.111390 0.951940 -0.541874
C43   C     C_R   0.870108 0.137671 0.934973 0.683831
O19   O     O_R   0.041120 0.094710 0.086750 -0.542614
C44   C     C_R   0.872538 0.115542 0.113589 0.747645
V4    V     V_3+5 0.148810 0.011930 0.002180 1.428043
O20   O     O_3   0.871750 0.936430 0.988010 -0.373223
Cl1   Cl    Cl    0.433225 0.065574 0.316262 -0.704007

loop_
_geom_bond_atom_site_label_1
_geom_bond_atom_site_label_2
_ccdc_geom_bond_type
C1    O6    A    
V3    O20   S    
C23   H13   S    
C7    H5    S    
C6    C16   A    
H17   C39   S    
C9    H6    S    
C1    C26   S    
C34   C38   A    
C4    C6    S    
C13   C14   A    
O5    C3    A    
V2    O10   S    
C5    H3    S    
C15   H8    S    
C30   H22   S    
O16   V4    S    
C32   C34   A    
O8    V2    S    
C23   C25   S    
C22   H12   S    
C8    C9    A    
O1    V2    S    
C14   C15   A    
O7    V1    S    
C2    C28   S    
C29   H20   S    
C20   H10   S    
C36   C37   A    
O12   V3    S    
C29   C30   A    
O9    C4    A    
O17   V4    S    
C27   C35   A    
C26   H16   S    
O12   C41   A    
O13   C44   A    
C6    C17   A    
C33   C37   A    
C12   C16   A    
C25   C26   D    
C9    C10   A    
O14   C42   A    
O18   V4    S    
O11   C42   A    
C19   C20   D    
O4    C2    A    
O18   C43   A    
C19   C21   S    
C31   H21   S    
C10   C11   A    
C8    H7    S    
C30   C31   A    
C25   H15   S    
C3    C20   S    
O2    C1    A    
C21   C22   D    
O14   V3    S    
C11   C18   A    
C23   C24   D    
C33   C40   A    
C32   C33   A    
C16   H4    S    
O15   C43   A    
O17   V3    S    
C21   H11   S    
C27   C39   A    
O3    C4    A    
O13   V3    S    
C28   C38   A    
O19   V4    S    
C11   C15   A    
O6    V2    S    
O9    V2    S    
C37   H23   S    
O2    V1    S    
C7    C18   A    
C40   C41   S    
O1    C2    A    
C5    C13   A    
O5    V1    S    
C36   Cl1   S    
O8    C3    A    
C28   C39   A    
C10   C12   A    
C34   C35   A    
C27   H18   S    
O7    V2    S    
O4    V1    S    
O3    V1    S    
V1    O10   S    
C41   O16   A    
V4    O20   S    
C38   H19   S    
C24   H14   S    
C24   C42   S    
C18   C43   S    
C31   C32   A    
C29   C40   A    
H1    C17   S    
O19   C44   A    
C19   H9    S    
C35   C36   A    
C12   C13   A    
C5    C17   A    
C7    C8    A    
O15   V3    S    
C22   C44   S    
O11   V4    S    
H2    C14   S    
