data_mof_unit_53629.cif
_audit_creation_date              2012-12-11T15:45:32-0500
_audit_creation_method            fapswitch 2.2
_symmetry_space_group_name_H-M    P1
_symmetry_Int_Tables_number       1
_space_group_crystal_system       triclinic
_cell_length_a                    8.261223
_cell_length_b                    19.007709
_cell_length_c                    22.883476
_cell_angle_alpha                 95.06031
_cell_angle_beta                  89.557888
_cell_angle_gamma                 94.388748
_cell_volume                      3568.81954281

loop_
_atom_site_label
_atom_site_type_symbol
_atom_type_description
_atom_site_fract_x
_atom_site_fract_y
_atom_site_fract_z
_atom_type_partial_charge
Ba1   Ba    Ba6+2 0.850680 0.532880 0.472010 1.664462
Ba2   Ba    Ba6+2 0.339140 0.467180 0.527990 1.644224
C1    C     C_3   0.599501 0.728290 0.221436 -0.341983
C2    C     C_R   0.097641 0.556985 0.938356 -0.028600
C3    C     C_R   0.051164 0.552893 0.878401 0.596189
C4    C     C_3   0.096174 0.680070 0.312505 0.392637
C5    C     C_R   0.962291 0.430027 0.881413 0.571876
C6    C     C_R   0.007029 0.432609 0.941147 -0.016722
C7    C     C_R   0.075001 0.496409 0.969774 -0.052474
C8    C     C_R   0.165733 0.620419 0.967833 -0.074552
C9    C     C_R   0.210252 0.623542 0.027009 -0.075512
C10   C     C_R   0.188170 0.563355 0.058891 -0.018072
C11   C     C_R   0.120257 0.499579 0.030104 -0.052432
C12   C     C_3   0.584031 0.708627 0.284688 0.312395
C13   C     C_R   0.985533 0.372329 0.972896 -0.073834
C14   C     C_R   0.030540 0.375354 0.031875 -0.074696
C15   C     C_R   0.098112 0.438825 0.061310 -0.027397
C16   C     C_3   0.088591 0.700174 0.249892 -0.290882
C17   C     C_R   0.144616 0.442609 0.121071 0.590795
C18   C     C_R   0.232103 0.565733 0.118847 0.573963
C19   C     C_2   0.794423 0.452150 0.769269 -0.083977
C20   C     C_3   0.768834 0.429969 0.704865 -0.050684
C21   C     C_1   0.004563 0.511043 0.685237 0.034715
C22   C     C_2   0.050573 0.514604 0.741501 -0.105873
C23   C     C_3   0.502709 0.363786 0.351412 0.295454
C24   C     C_2   0.938281 0.485551 0.787756 0.194594
C25   C     C_R   0.408061 0.539343 0.231153 -0.100492
C26   C     C_R   0.448921 0.545568 0.290915 -0.031876
C27   C     C_R   0.190354 0.486297 0.314403 0.027157
C28   C     C_3   0.198739 0.683601 0.596718 0.316352
C29   C     C_R   0.145621 0.481866 0.254619 -0.104021
C30   C     C_R   0.253552 0.509379 0.212052 0.210007
C31   C     C_2   0.871006 0.474138 0.665139 -0.291543
C32   C     C_R   0.395484 0.701299 0.473756 -0.285575
C33   C     C_R   0.536778 0.724179 0.504811 0.092666
C34   C     C_3   0.496312 0.344657 0.285496 -0.354854
C35   C     C_R   0.586538 0.796574 0.512117 -0.117411
C36   C     C_R   0.492831 0.846768 0.489282 0.004841
C37   C     C_R   0.345191 0.822783 0.460699 -0.022075
C38   C     C_R   0.296241 0.750198 0.453831 -0.030396
C39   C     C_R   0.535421 0.967202 0.450501 0.595141
C40   C     C_3   0.207235 0.763375 0.611662 -0.380405
C41   C     C_R   0.588588 0.039033 0.457802 -0.109902
C42   C     C_R   0.653875 0.069865 0.511485 -0.016349
C43   C     C_R   0.667491 0.026591 0.557618 -0.084605
C44   C     C_R   0.614687 0.954452 0.550398 -0.159492
C45   C     C_3   0.088979 0.316245 0.690429 0.336019
C46   C     C_R   0.547273 0.923784 0.496841 -0.034521
C47   C     C_R   0.848855 0.173589 0.548245 -0.127271
C48   C     C_R   0.896235 0.246532 0.551975 0.010592
C49   C     C_R   0.657214 0.267332 0.497754 0.038271
C50   C     C_R   0.608710 0.195125 0.493715 -0.119835
C51   C     C_R   0.703306 0.147209 0.519114 0.011335
C52   C     C_3   0.995362 0.317660 0.406473 0.304483
C53   C     C_R   0.796255 0.293025 0.529017 -0.286211
C54   C     C_3   0.978031 0.237729 0.392239 -0.369626
C55   C     C_3   0.688658 0.618605 0.646211 0.297316
C56   C     C_3   0.112604 0.296227 0.752506 -0.312590
C57   C     C_3   0.693312 0.635653 0.712397 -0.355311
C58   C     C_2   0.589007 0.774664 0.326037 0.867561
C59   C     C_3   0.545754 0.278476 0.664721 0.361995
C60   C     C_3   0.508462 0.206750 0.688450 -0.363834
C61   C     C_R   0.339227 0.520223 0.331928 -0.290304
F1    F     F_    0.476283 0.940161 0.397438 -0.676282
H1    H     H_    0.288494 0.778414 0.649901 0.129681
H2    H     H_    0.599851 0.572442 0.635964 0.080495
H3    H     H_    0.712452 0.762605 0.215668 0.104471
H4    H     H_    0.786716 0.679697 0.724179 0.134454
H5    H     H_    0.723347 0.588582 0.734244 0.071225
H6    H     H_    0.572847 0.651314 0.728417 0.133861
H7    H     H_    0.463621 0.680374 0.289331 -0.092870
H8    H     H_    0.493835 0.756858 0.209504 0.124697
H9    H     H_    0.379089 0.375342 0.366776 0.019416
H10   H     H_    0.587471 0.411772 0.360171 0.059678
H11   H     H_    0.410923 0.297224 0.275240 0.142161
H12   H     H_    0.255185 0.791275 0.574054 0.045280
H13   H     H_    0.454016 0.389313 0.263095 0.070624
H14   H     H_    0.619059 0.333314 0.268796 0.132455
H15   H     H_    0.603548 0.679656 0.191011 0.132766
H16   H     H_    0.077538 0.651413 0.219425 0.103226
H17   H     H_    0.163902 0.366409 0.685087 0.089950
H18   H     H_    0.958808 0.324196 0.684483 -0.052150
H19   H     H_    0.229929 0.272463 0.756728 0.146886
H20   H     H_    0.114160 0.344473 0.783393 0.122254
H21   H     H_    0.012671 0.257563 0.764315 0.119232
H22   H     H_    0.680132 0.288580 0.663898 -0.066926
H23   H     H_    0.084031 0.780415 0.622419 0.126801
H24   H     H_    0.498099 0.275640 0.619215 0.075940
H25   H     H_    0.571103 0.165768 0.661215 0.067854
H26   H     H_    0.376033 0.191849 0.687051 0.150424
H27   H     H_    0.999954 0.637477 0.318318 0.103168
H28   H     H_    0.551782 0.208523 0.734416 0.121659
H29   H     H_    0.011777 0.327618 0.054422 0.126866
H30   H     H_    0.933774 0.322299 0.952171 0.124654
H31   H     H_    0.262121 0.673526 0.047778 0.123124
H32   H     H_    0.496427 0.557626 0.199679 0.095676
H33   H     H_    0.184975 0.668063 0.945195 0.124687
H34   H     H_    0.876453 0.336425 0.419783 0.002323
H35   H     H_    0.170960 0.537448 0.754111 0.130056
H36   H     H_    0.706320 0.432368 0.800446 0.119526
H37   H     H_    0.028093 0.456748 0.241375 0.126270
H38   H     H_    0.373475 0.523871 0.377698 0.078495
H39   H     H_    0.215112 0.659149 0.319877 -0.087707
H40   H     H_    0.850271 0.463164 0.618350 0.082541
H41   H     H_    0.499116 0.176411 0.469690 0.082423
H42   H     H_    0.580097 0.070492 0.420886 0.103335
H43   H     H_    0.697400 0.813571 0.535969 0.081095
H44   H     H_    0.715839 0.048845 0.599668 0.082049
H45   H     H_    0.083143 0.330363 0.442966 0.072740
H46   H     H_    0.624153 0.922842 0.587165 0.090450
H47   H     H_    0.928073 0.137594 0.565484 0.079473
H48   H     H_    0.266222 0.860235 0.445492 0.133160
H49   H     H_    0.833889 0.348991 0.531149 0.062414
H50   H     H_    0.981167 0.730420 0.243999 0.143155
H51   H     H_    0.356388 0.645447 0.468956 0.065949
H52   H     H_    0.199882 0.733211 0.239434 0.136488
H53   H     H_    0.322212 0.667339 0.587008 0.000322
H54   H     H_    0.119212 0.669996 0.557825 0.053486
H55   H     H_    0.710231 0.837510 0.389483 0.329969
H56   H     H_    0.884305 0.223442 0.357807 0.137650
H57   H     H_    0.941745 0.210843 0.431779 0.063288
H58   H     H_    0.095768 0.218771 0.376298 0.133450
H59   H     H_    0.810425 0.605470 0.630721 0.010033
N1    N     N_R   0.984728 0.489711 0.850054 -0.423147
N2    N     N_R   0.208594 0.505932 0.149891 -0.423502
O1    O     O_2   0.896730 0.461690 0.361000 -0.455634
O2    O     O_2   0.231599 0.250067 0.541531 -0.482286
O3    O     O_3   0.137710 0.261850 0.650294 -0.602169
O4    O     O_3   0.137170 0.462400 0.432040 -0.492805
O5    O     O_3   0.560670 0.583970 0.528500 -0.491824
O6    O     O_2   0.373560 0.329680 0.473470 -0.457693
O7    O     O_3   0.556396 0.306591 0.378810 -0.637179
O8    O     O_2   0.441146 0.468303 0.710094 -0.497702
O9    O     O_3   0.471670 0.331196 0.700417 -0.593836
O10   O     O_2   0.067689 0.605992 0.851848 -0.593992
O11   O     O_2   0.904055 0.374020 0.857290 -0.618366
O12   O     O_3   0.643814 0.678076 0.620176 -0.638917
O13   O     O_2   0.130458 0.389039 0.147108 -0.593462
O14   O     O_2   0.290604 0.621444 0.143391 -0.627430
O15   O     O_3   0.657500 0.588540 0.395070 -0.456696
O16   O     O_2   0.779722 0.537224 0.293350 -0.501762
O17   O     O_3   0.049445 0.348830 0.356139 -0.625153
O18   O     O_3   0.714829 0.668680 0.296886 -0.597160
O19   O     O_2   0.816140 0.670340 0.526560 -0.461150
O20   O     O_3   0.069580 0.624410 0.423530 -0.505196
O21   O     O_2   0.958304 0.750218 0.458127 -0.451241
O22   O     O_2   0.479389 0.814268 0.325196 -0.563978
O23   O     O_3   0.072256 0.739649 0.351438 -0.537809
O24   O     O_R   0.718467 0.790755 0.365137 -0.692094
O25   O     O_2   0.292960 0.538340 0.639040 -0.462997
O26   O     O_3   0.052540 0.537650 0.567960 -0.494889
O27   O     O_3   0.532200 0.411510 0.604930 -0.477108
O28   O     O_3   0.136760 0.651002 0.645334 -0.623285
O29   O     O_3   0.629030 0.416090 0.471500 -0.478354
O30   O     O_3   0.120120 0.375640 0.576470 -0.492698
P1    P     P_3+3 0.067040 0.441110 0.370020 0.996035
P2    P     P_3+3 0.640420 0.660110 0.543790 0.991993
P3    P     P_3+3 0.097903 0.716737 0.422929 1.014808
P4    P     P_3+3 0.122660 0.558950 0.629980 0.993749
P5    P     P_3+3 0.096634 0.283237 0.579454 0.944660
P6    P     P_3+3 0.647544 0.584818 0.318124 0.957501
P7    P     P_3+3 0.556098 0.327851 0.454798 0.953048
P8    P     P_3+3 0.552727 0.413512 0.680901 0.943003

loop_
_geom_bond_atom_site_label_1
_geom_bond_atom_site_label_2
_ccdc_geom_bond_type
H55   O24   S    
C19   C24   D    
C27   C61   A    
Ba2   O25   S    
Ba2   O30   S    
O20   P3    S    
Ba1   P1    S    
C22   H35   S    
C54   H56   S    
C12   H7    S    
Ba1   O20   S    
C5    N1    Am   
C1    H15   S    
C16   H50   S    
C13   H30   S    
C45   O3    S    
C49   C53   A    
C43   C44   A    
C42   C43   A    
O16   P6    D    
C3    N1    Am   
C14   H29   S    
O5    P2    S    
C32   C38   A    
C29   H37   S    
C18   O14   D    
C38   P3    S    
C33   C35   A    
C22   C24   S    
Ba1   Ba2   S    
Ba1   O4    S    
C34   H13   S    
C36   C37   A    
C32   C33   A    
C55   C57   S    
C13   C14   A    
C31   H40   S    
C60   H25   S    
Ba2   O4    S    
O9    P8    S    
C49   P7    S    
C23   H10   S    
C45   H18   S    
C7    C11   A    
C15   C17   A    
C42   C51   S    
C28   O28   S    
Ba2   P4    S    
C21   C31   D    
C60   H28   S    
C26   P6    S    
C40   H1    S    
C21   C22   D    
O19   P2    D    
C58   O22   D    
C55   H2    S    
C36   C46   S    
C43   H44   S    
C47   H47   S    
C25   C30   A    
Ba2   O29   S    
C19   C20   S    
C39   C41   A    
C25   H32   S    
C59   C60   S    
C24   N1    S    
C61   H38   S    
O8    P8    D    
C59   O9    S    
C44   C46   A    
Ba2   O27   S    
C4    C16   S    
C52   C54   S    
O25   P4    D    
C52   H34   S    
C49   C50   A    
C5    C6    A    
Ba1   O1    S    
Ba1   O5    S    
C8    C9    A    
C16   H52   S    
C37   C38   A    
C19   H36   S    
C14   C15   A    
C28   H54   S    
O6    P7    D    
C48   P5    S    
C32   H51   S    
C17   N2    Am   
C52   H45   S    
C21   P4    S    
C41   H42   S    
C54   H58   S    
C30   N2    S    
O28   P4    S    
C8    H33   S    
C41   C42   A    
C33   P2    S    
C35   C36   A    
C34   H11   S    
C56   H20   S    
C57   H4    S    
C55   H59   S    
C4    O23   S    
C29   C30   A    
C10   C18   A    
Ba2   O6    S    
C6    C7    A    
C55   O12   S    
O23   P3    S    
C4    H39   S    
Ba1   O15   S    
C1    C12   S    
C23   C34   S    
C57   H5    S    
C27   P1    S    
C37   H48   S    
C52   O17   S    
C50   H41   S    
C6    C13   A    
C44   H46   S    
C2    C8    A    
C56   H21   S    
C50   C51   A    
O3    P5    S    
C9    H31   S    
Ba2   O26   S    
C3    O10   D    
C20   C31   S    
C12   O18   S    
O30   P5    S    
O29   P7    S    
C1    H3    S    
C2    C3    A    
O4    P1    S    
C9    C10   A    
C35   H43   S    
O21   P3    D    
C28   H53   S    
C11   C15   A    
C12   C58   S    
C40   H12   S    
C48   C53   A    
O12   P2    S    
C54   H57   S    
Ba1   P2    S    
C1    H8    S    
O15   P6    S    
C5    O11   D    
C27   C29   A    
Ba1   O19   S    
C34   H14   S    
C56   H19   S    
C45   C56   S    
C20   P8    S    
C17   O13   D    
C47   C51   A    
C60   H26   S    
Ba2   O5    S    
C39   C46   A    
Ba1   O26   S    
C23   H9    S    
C58   O24   S    
C45   H17   S    
Ba1   O29   S    
O7    P7    S    
O27   P8    S    
C59   H22   S    
C57   H6    S    
C26   C61   A    
C53   H49   S    
C18   N2    Am   
C10   C11   A    
C16   H16   S    
C47   C48   A    
C25   C26   A    
C28   C40   S    
C59   H24   S    
C40   H23   S    
C39   F1    S    
O17   P1    S    
C2    C7    A    
C23   O7    S    
O2    P5    D    
O18   P6    S    
C4    H27   S    
O26   P4    S    
O1    P1    D    
