data_mof_unit_59427.cif
_audit_creation_date              2012-12-10T17:33:43-0500
_audit_creation_method            fapswitch 2.2
_symmetry_space_group_name_H-M    P1
_symmetry_Int_Tables_number       1
_space_group_crystal_system       triclinic
_cell_length_a                    11.695034
_cell_length_b                    12.332995
_cell_length_c                    13.268229
_cell_angle_alpha                 116.612103
_cell_angle_beta                  76.865091
_cell_angle_gamma                 101.331114
_cell_volume                      1656.35216812

loop_
_atom_site_label
_atom_site_type_symbol
_atom_type_description
_atom_site_fract_x
_atom_site_fract_y
_atom_site_fract_z
_atom_type_partial_charge
C1    C     C_R   0.510434 0.854595 0.286787 0.767354
C2    C     C_R   0.488284 0.227125 0.836110 -0.123704
C3    C     C_R   0.594392 0.814267 0.087076 -0.155767
C4    C     C_R   0.631151 0.733814 0.975604 -0.156482
C5    C     C_R   0.593953 0.609882 0.938083 -0.212900
C6    C     C_R   0.517211 0.563519 0.012176 0.092830
C7    C     C_R   0.477687 0.645648 0.125587 0.066902
C8    C     C_R   0.487256 0.436474 0.979824 0.043402
C9    C     C_R   0.438347 0.392569 0.064050 0.095154
C10   C     C_R   0.388173 0.474281 0.171285 -0.197785
C11   C     C_R   0.399561 0.597870 0.197813 -0.222728
C12   C     C_R   0.715841 0.999786 0.499630 0.800483
C13   C     C_R   0.502841 0.352304 0.866095 -0.265182
C14   C     C_R   0.471832 0.185401 0.923112 -0.037617
C15   C     C_R   0.521463 0.771453 0.164350 -0.100582
C16   C     C_R   0.685686 0.340187 0.321718 -0.272071
C17   C     C_R   0.332676 0.750416 0.637187 0.341883
C18   C     C_R   0.286284 0.643307 0.648735 -0.304033
C19   C     C_R   0.341775 0.538249 0.586861 0.117940
C20   C     C_R   0.454852 0.543539 0.521151 -0.063370
C21   C     C_R   0.494933 0.651694 0.502406 0.196755
C22   C     C_R   0.525712 0.443877 0.467626 -0.014040
C23   C     C_R   0.490499 0.144887 0.713442 0.825517
C24   C     C_R   0.623652 0.443846 0.381921 0.124112
C25   C     C_R   0.657138 0.546855 0.358028 -0.060912
C26   C     C_R   0.594126 0.648248 0.418628 -0.197352
C27   C     C_R   0.506706 0.345971 0.499795 0.078483
C28   C     C_R   0.653901 0.241390 0.349883 0.106764
C29   C     C_R   0.284193 0.999932 0.499974 0.847882
C30   C     C_1   0.837586 0.999624 0.499489 -0.174223
C31   C     C_1   0.940084 0.999428 0.499467 0.016684
C32   C     C_1   0.059900 0.999407 0.499558 0.035670
C33   C     C_1   0.162430 0.999590 0.499721 -0.128211
C34   C     C_R   0.440141 0.268514 0.038166 0.099632
Cu1   Cu    Cu3+1 0.526510 0.098270 0.475420 0.971828
Cu2   Cu    Cu3+1 0.473490 0.901730 0.524580 0.959148
H1    H     H_    0.757586 0.333989 0.252346 0.158883
H2    H     H_    0.447793 0.349607 0.576065 0.148208
H3    H     H_    0.201058 0.639607 0.701011 0.189294
H4    H     H_    0.624958 0.722293 0.395418 0.210307
H5    H     H_    0.336598 0.443460 0.234140 0.192935
H6    H     H_    0.520778 0.383959 0.799676 0.165990
H7    H     H_    0.629687 0.909356 0.114635 0.162345
H8    H     H_    0.631905 0.551478 0.852693 0.132901
H9    H     H_    0.693047 0.767236 0.918986 0.150461
H10   H     H_    0.349334 0.654739 0.277182 0.182615
H11   H     H_    0.700389 0.161085 0.302450 0.125116
N1    N     N_R   0.566700 0.246290 0.438210 -0.183687
N2    N     N_R   0.434010 0.754320 0.561170 -0.209027
O1    O     O_R   0.533340 0.972510 0.318140 -0.574065
O2    O     O_R   0.488570 0.806530 0.359650 -0.608660
O3    O     O_R   0.685190 0.083000 0.479260 -0.575027
O4    O     O_R   0.640410 0.917020 0.520770 -0.598508
O5    O     O_R   0.511430 0.193470 0.640350 -0.595737
O6    O     O_R   0.466660 0.027490 0.681860 -0.546517
O7    O     O_R   0.359590 0.082980 0.479230 -0.543036
O8    O     O_R   0.314810 0.917000 0.520740 -0.560998
C35   C     C_R   0.496516 0.059909 0.894223 0.149729
C36   C     C_R   0.409815 0.977196 0.922632 -0.074178
C37   C     C_R   0.430461 0.855972 0.883999 -0.113403
C38   C     C_R   0.536723 0.815739 0.814860 -0.128456
C39   C     C_R   0.625337 0.898084 0.789798 -0.122131
C40   C     C_R   0.606107 0.019986 0.830452 -0.096418
H12   H     H_    0.324297 0.004961 0.970448 0.165032
H13   H     H_    0.362320 0.792139 0.904132 0.146124
H14   H     H_    0.550446 0.720671 0.780854 0.131347
H15   H     H_    0.708267 0.867069 0.737407 0.133678
H16   H     H_    0.674771 0.082200 0.808231 0.110116
C41   C     C_R   0.761726 0.554825 0.273377 0.097400
C42   C     C_R   0.747085 0.555386 0.171635 -0.138013
C43   C     C_R   0.845574 0.566274 0.092926 -0.131188
C44   C     C_R   0.959327 0.577055 0.115636 -0.099983
C45   C     C_R   0.974617 0.577096 0.217156 -0.124502
C46   C     C_R   0.876157 0.566304 0.296078 -0.153799
H17   H     H_    0.659555 0.546944 0.153463 0.152824
H18   H     H_    0.833657 0.566468 0.014463 0.143496
H19   H     H_    0.035585 0.585551 0.054697 0.136333
H20   H     H_    0.062733 0.585818 0.234808 0.137163
H21   H     H_    0.888863 0.567279 0.374839 0.139611
I1    I     I_    0.221811 0.893187 0.735291 -0.392832
I2    I     I_    0.224558 0.376919 0.572684 -0.387771
I3    I     I_    0.413456 0.214028 0.175270 -0.405436

loop_
_geom_bond_atom_site_label_1
_geom_bond_atom_site_label_2
_ccdc_geom_bond_type
C27   N1    A    
C16   C28   A    
C21   C26   A    
C28   H11   S    
C8    C13   A    
C45   C46   A    
C19   C20   A    
C21   N2    A    
C7    C11   A    
C3    H7    S    
C36   H12   S    
C44   H19   S    
C39   H15   S    
C5    C6    A    
C27   H2    S    
C29   C33   S    
C18   C19   A    
C2    C13   A    
Cu2   O4    S    
C38   H14   S    
Cu1   Cu2   S    
C8    C9    A    
C45   H20   S    
C42   C43   A    
C1    C15   S    
C9    C10   A    
C12   O4    A    
C16   H1    S    
C7    C15   A    
C36   C37   A    
C16   C24   A    
Cu1   O5    S    
C38   C39   A    
Cu1   N1    S    
C13   H6    S    
C12   O3    A    
C4    H9    S    
C14   C35   S    
C24   C25   A    
Cu2   O8    S    
C17   N2    A    
C4    C5    A    
C6    C8    A    
C25   C26   A    
C17   I1    S    
C37   C38   A    
C18   H3    S    
C39   C40   A    
C31   C32   S    
C2    C23   S    
Cu1   O1    S    
C17   C18   A    
C41   C46   A    
C1    O2    A    
Cu2   O2    S    
C5    H8    S    
C29   O8    A    
C37   H13   S    
C22   C27   A    
C9    C34   A    
C22   C24   A    
C25   C41   S    
C3    C4    A    
C43   H18   S    
C42   H17   S    
C3    C15   A    
C23   O5    A    
C1    O1    A    
C35   C40   A    
C40   H16   S    
C28   N1    A    
C12   C30   S    
Cu1   O7    S    
C20   C22   A    
C44   C45   A    
C14   C34   A    
C23   O6    A    
C6    C7    A    
C29   O7    A    
C46   H21   S    
C32   C33   T    
C35   C36   A    
C43   C44   A    
Cu2   O6    S    
C26   H4    S    
C30   C31   T    
C41   C42   A    
C2    C14   A    
C10   C11   A    
C20   C21   A    
Cu1   O3    S    
C11   H10   S    
C34   I3    S    
C19   I2    S    
Cu2   N2    S    
C10   H5    S    
