data_mof_unit_38841.cif
_audit_creation_date              2012-12-11T16:57:20-0500
_audit_creation_method            fapswitch 2.2
_symmetry_space_group_name_H-M    P1
_symmetry_Int_Tables_number       1
_space_group_crystal_system       monoclinic
_cell_length_a                    14.611151
_cell_length_b                    16.159872
_cell_length_c                    7.002196
_cell_angle_alpha                 90.0
_cell_angle_beta                  98.439377
_cell_angle_gamma                 90.0
_cell_volume                      1635.4161887

loop_
_atom_site_label
_atom_site_type_symbol
_atom_type_description
_atom_site_fract_x
_atom_site_fract_y
_atom_site_fract_z
_atom_type_partial_charge
O1    O     O_R   0.584990 0.413650 0.534420 -0.536803
O2    O     O_R   0.584990 0.586350 0.534420 -0.536803
O3    O     O_R   0.596190 0.585230 0.208380 -0.547863
O4    O     O_R   0.596190 0.414770 0.208380 -0.547863
O5    O     O_R   0.415010 0.586420 0.976930 -0.540103
O6    O     O_R   0.415010 0.413580 0.976930 -0.540103
C1    C     C_R   0.618533 0.614246 0.384190 0.715502
C2    C     C_R   0.618533 0.385754 0.384190 0.715503
O7    O     O_3   0.440560 0.500000 0.319140 -0.360276
V1    V     V_3+5 0.511030 0.500000 0.068070 1.372756
O8    O     O_R   0.403810 0.414840 0.643540 -0.532364
O9    O     O_R   0.403810 0.585160 0.643540 -0.532364
C3    C     C_R   0.387477 0.382320 0.808168 0.757807
C4    C     C_R   0.387477 0.617680 0.808168 0.757807
V2    V     V_3+5 0.488970 0.500000 0.560620 1.417803
O10   O     O_3   0.559440 0.500000 0.859420 -0.393579
C5    C     C_2   0.330827 0.694720 0.803091 -0.029761
C6    C     C_2   0.330828 0.305280 0.803091 -0.029761
C7    C     C_2   0.297197 0.725693 0.961104 0.211501
C8    C     C_2   0.297197 0.274307 0.961104 0.211501
C9    C     C_2   0.177979 0.807242 0.103280 0.182164
C10   C     C_2   0.177979 0.192758 0.103280 0.182164
C11   C     C_2   0.209182 0.776918 0.942772 0.035754
C12   C     C_2   0.209182 0.223082 0.942772 0.035754
C13   C     C_R   0.683852 0.742593 0.562831 0.095114
C14   C     C_R   0.683852 0.257407 0.562831 0.095115
C15   C     C_R   0.686304 0.684117 0.415374 -0.195846
C16   C     C_R   0.686304 0.315883 0.415374 -0.195846
C17   C     C_R   0.760850 0.689455 0.310809 -0.218824
C18   C     C_R   0.760850 0.310545 0.310809 -0.218824
H1    H     H_    0.772445 0.638567 0.218608 0.160449
H2    H     H_    0.772445 0.361433 0.218608 0.160449
C19   C     C_R   0.826418 0.754285 0.340918 0.384851
C20   C     C_R   0.826418 0.245715 0.340918 0.384851
C21   C     C_R   0.819636 0.816513 0.481175 -0.166873
C22   C     C_R   0.819636 0.183487 0.481175 -0.166873
C23   C     C_R   0.746930 0.808956 0.590571 -0.060231
C24   C     C_R   0.746930 0.191044 0.590571 -0.060231
C25   C     C_3   0.757624 0.801990 0.804550 -0.344947
C26   C     C_3   0.757624 0.198010 0.804550 -0.344947
C27   C     C_3   0.694374 0.726530 0.776698 0.290224
C28   C     C_3   0.694374 0.273469 0.776699 0.290224
H3    H     H_    0.727627 0.856567 0.869786 0.153774
H4    H     H_    0.727628 0.143433 0.869786 0.153774
H5    H     H_    0.830387 0.789214 0.867043 0.215367
H6    H     H_    0.830387 0.210786 0.867043 0.215367
O11   O     O_R   0.921430 0.915960 0.371040 -0.510849
O12   O     O_R   0.921430 0.084040 0.371040 -0.510849
O13   O     O_R   0.910450 0.087500 0.697310 -0.550035
O14   O     O_R   0.910450 0.912500 0.697310 -0.550035
O15   O     O_R   0.091710 0.087460 0.928430 -0.563156
O16   O     O_R   0.091710 0.912540 0.928430 -0.563156
C29   C     C_R   0.889162 0.115082 0.519965 0.753353
C30   C     C_R   0.889161 0.884918 0.519965 0.753353
O17   O     O_3   0.065970 0.000000 0.586140 -0.387550
V3    V     V_3+5 0.995640 1.000000 0.837400 1.446255
O18   O     O_R   0.103020 0.915700 0.261710 -0.521143
O19   O     O_R   0.103020 0.084300 0.261710 -0.521143
C31   C     C_R   0.120183 0.882927 0.098160 0.738348
C32   C     C_R   0.120183 0.117072 0.098160 0.738348
V4    V     V_3+5 0.017940 1.000000 0.344880 1.531978
O20   O     O_3   0.947330 0.000000 0.046180 -0.364640
C33   C     C_3   0.138506 0.767250 0.761381 -0.572163
H7    H     H_    0.149297 0.708639 0.685416 0.252692
H8    H     H_    0.066896 0.763606 0.796997 0.217052
H9    H     H_    0.142425 0.820238 0.662168 0.213662
C34   C     C_3   0.138506 0.232750 0.761381 -0.572163
H10   H     H_    0.149297 0.291361 0.685416 0.252692
H11   H     H_    0.142425 0.179762 0.662168 0.213662
H12   H     H_    0.066896 0.236393 0.796996 0.217052
C35   C     C_3   0.744758 0.643690 0.836656 -0.646929
H13   H     H_    0.763481 0.608045 0.712918 0.190140
H14   H     H_    0.811232 0.654184 0.931167 0.223647
H15   H     H_    0.700887 0.602665 0.911953 0.213533
C36   C     C_3   0.744758 0.356310 0.836655 -0.646928
H16   H     H_    0.811232 0.345816 0.931167 0.223647
H17   H     H_    0.763481 0.391955 0.712918 0.190140
H18   H     H_    0.700887 0.397335 0.911953 0.213532
C37   C     C_3   0.358993 0.722145 0.154585 -0.706717
H19   H     H_    0.349204 0.777602 0.242316 0.190277
H20   H     H_    0.344585 0.664891 0.232174 0.249200
H21   H     H_    0.433313 0.723701 0.136557 0.179730
C38   C     C_3   0.358993 0.277855 0.154585 -0.706717
H22   H     H_    0.349204 0.222398 0.242316 0.190277
H23   H     H_    0.433313 0.276299 0.136557 0.179730
H24   H     H_    0.344585 0.335109 0.232174 0.249200
Cl1   Cl    Cl    0.152718 0.733041 0.270608 -0.632418
Cl2   Cl    Cl    0.152718 0.266959 0.270608 -0.632418
C39   C     C_3   0.330446 0.746910 0.626691 -0.806849
H25   H     H_    0.402902 0.759719 0.605118 0.192060
H26   H     H_    0.297711 0.709954 0.505152 0.282494
H27   H     H_    0.295909 0.807620 0.633362 0.229633
C40   C     C_3   0.330446 0.253090 0.626691 -0.806849
H28   H     H_    0.402902 0.240281 0.605119 0.192061
H29   H     H_    0.295909 0.192380 0.633362 0.229633
H30   H     H_    0.297711 0.290046 0.505152 0.282493
Cl3   Cl    Cl    0.923822 0.747458 0.221720 -0.634480
Cl4   Cl    Cl    0.923823 0.252542 0.221720 -0.634480
C41   C     C_3   0.603625 0.738878 0.859062 -0.738948
H31   H     H_    0.557094 0.685647 0.820062 0.211327
H32   H     H_    0.617748 0.743743 0.018598 0.207403
H33   H     H_    0.567538 0.796160 0.801366 0.178872
C42   C     C_3   0.603625 0.261122 0.859062 -0.738949
H34   H     H_    0.557094 0.314352 0.820062 0.211328
H35   H     H_    0.567538 0.203840 0.801366 0.178872
H36   H     H_    0.617748 0.256257 0.018599 0.207403

loop_
_geom_bond_atom_site_label_1
_geom_bond_atom_site_label_2
_ccdc_geom_bond_type
C24   C26   S    
O17   V3    S    
C33   H8    S    
C40   H28   S    
C15   C17   A    
O1    C2    A    
O2    C1    A    
O4    C2    A    
C28   C42   S    
C9    Cl1   S    
C25   C27   S    
C26   H6    S    
C28   C36   S    
O14   C30   A    
C3    C6    S    
C38   H22   S    
C21   C23   A    
C9    C31   S    
O3    C1    A    
C10   C32   S    
C19   C21   A    
O18   C31   A    
O19   C32   A    
V2    O10   S    
C17   C19   A    
C1    C15   S    
O15   V3    S    
C22   C29   S    
C12   C34   S    
C13   C23   A    
O8    V2    S    
C8    C12   S    
C27   C41   S    
O1    V2    S    
C10   Cl2   S    
C39   H26   S    
O7    V1    S    
C20   C22   A    
C25   H5    S    
V3    O20   S    
O19   V4    S    
C11   C33   S    
C33   H9    S    
C40   H29   S    
C21   C30   S    
C4    C5    S    
O12   C29   A    
C18   C20   A    
C34   H10   S    
C5    C39   S    
C13   C27   S    
C35   H14   S    
C14   C24   A    
C25   H3    S    
O14   V3    S    
C37   H19   S    
C34   H11   S    
C7    C11   S    
C36   H16   S    
O11   V4    S    
O16   C31   A    
C37   H21   S    
C41   H31   S    
O9    V2    S    
C26   H4    S    
C38   H24   S    
C42   H35   S    
C39   H27   S    
C7    C37   S    
O2    V2    S    
C36   H17   S    
O5    C4    A    
O11   C30   A    
C38   H23   S    
O9    C4    A    
C40   H30   S    
C9    C11   D    
C2    C16   S    
C10   C12   D    
O4    V1    S    
C22   C24   A    
C14   C28   S    
C37   H20   S    
C41   H32   S    
O6    V1    S    
C35   H15   S    
O18   V4    S    
C13   C15   A    
O13   V3    S    
C14   C16   A    
C27   C35   S    
C34   H12   S    
C16   C18   A    
O7    V2    S    
O5    V1    S    
C23   C25   S    
O3    V1    S    
V1    O10   S    
O6    C3    A    
C18   H2    S    
O8    C3    A    
O12   V4    S    
O13   C29   A    
O17   V4    S    
C26   C28   S    
C20   Cl4   S    
C42   H36   S    
C6    C8    D    
V4    O20   S    
C36   H18   S    
C33   H7    S    
C5    C7    D    
C35   H13   S    
C41   H33   S    
C17   H1    S    
C8    C38   S    
C42   H34   S    
C6    C40   S    
O15   C32   A    
C19   Cl3   S    
C39   H25   S    
O16   V3    S    
