data_mof_unit_48861.cif
_audit_creation_date              2012-12-11T14:21:23-0500
_audit_creation_method            fapswitch 2.2
_symmetry_space_group_name_H-M    P1
_symmetry_Int_Tables_number       1
_space_group_crystal_system       triclinic
_cell_length_a                    11.52978
_cell_length_b                    11.627549
_cell_length_c                    19.449142
_cell_angle_alpha                 90.599527
_cell_angle_beta                  89.336415
_cell_angle_gamma                 59.68199
_cell_volume                      2250.26146305

loop_
_atom_site_label
_atom_site_type_symbol
_atom_type_description
_atom_site_fract_x
_atom_site_fract_y
_atom_site_fract_z
_atom_type_partial_charge
C1    C     C_R   0.640411 0.117894 0.598993 0.551105
C2    C     C_1   0.652067 0.150973 0.668420 0.002871
C3    C     C_R   0.692608 0.586662 0.208681 -0.001827
C4    C     C_R   0.612494 0.745723 0.598387 0.536453
C5    C     C_R   0.578761 0.607034 0.248829 0.009162
C6    C     C_R   0.595073 0.588766 0.320063 0.052260
C7    C     C_R   0.794906 0.604472 0.313783 -0.156085
C8    C     C_R   0.805147 0.573483 0.243497 -0.149279
C9    C     C_R   0.447419 0.654372 0.223810 -0.111559
C10   C     C_R   0.345607 0.663443 0.267131 -0.157043
C11   C     C_R   0.374822 0.615271 0.333697 -0.061275
C12   C     C_1   0.640957 0.703427 0.667682 0.006425
C13   C     C_R   0.502259 0.569571 0.359330 0.134557
C14   C     C_R   0.681480 0.625490 0.350942 -0.013137
C15   C     C_R   0.156054 0.186692 0.189541 -0.030378
C16   C     C_R   0.239827 0.146013 0.597731 0.538598
C17   C     C_R   0.193566 0.267641 0.224913 0.018853
C18   C     C_R   0.174684 0.279981 0.296389 0.014937
C19   C     C_R   0.157391 0.079421 0.297444 0.078989
C20   C     C_R   0.141489 0.090222 0.225949 -0.126548
C21   C     C_R   0.234692 0.347665 0.190567 -0.077163
C22   C     C_R   0.227967 0.456611 0.224227 -0.128738
C23   C     C_1   0.128345 0.197928 0.859603 0.005003
C24   C     C_R   0.181090 0.485487 0.292031 -0.141906
C25   C     C_R   0.153539 0.399165 0.327865 -0.084698
C26   C     C_R   0.178145 0.173108 0.333410 0.015304
C27   C     C_R   0.650328 0.180948 0.185992 -0.009687
C28   C     C_R   0.641977 0.104205 0.398600 0.554814
C29   C     C_R   0.712039 0.048628 0.206886 0.035049
C30   C     C_R   0.734798 0.021565 0.277500 0.029871
C31   C     C_R   0.573203 0.256625 0.301877 -0.139753
C32   C     C_R   0.573998 0.284240 0.232912 -0.155265
C33   C     C_R   0.763198 0.943520 0.157665 -0.075467
C34   C     C_1   0.170352 0.170951 0.727577 -0.031919
C35   C     C_R   0.855757 0.815271 0.176313 -0.107764
C36   C     C_R   0.895514 0.791035 0.243966 -0.149129
C37   C     C_R   0.834231 0.890273 0.294685 -0.102390
C38   C     C_R   0.658610 0.128002 0.326081 -0.004366
C39   C     C_R   0.082851 0.230611 0.929004 0.544388
C40   C     C_R   0.624731 0.725190 0.407813 0.543461
C41   C     C_R   0.683939 0.604716 0.929696 0.555291
C42   C     C_R   0.708295 0.206311 0.930380 0.542561
C43   C     C_R   0.087451 0.232825 0.123700 0.528011
C44   C     C_R   0.705807 0.555684 0.134097 0.561157
C45   C     C_1   0.150893 0.181822 0.798969 -0.032042
C46   C     C_R   0.702573 0.209952 0.124233 0.529513
C47   C     C_R   0.240423 0.142988 0.402031 0.549297
C48   C     C_1   0.671243 0.646566 0.860283 0.001998
C49   C     C_1   0.654901 0.683258 0.728224 -0.031255
C50   C     C_1   0.664178 0.666543 0.799665 -0.032300
C51   C     C_1   0.193348 0.162194 0.666985 0.005661
C52   C     C_1   0.678929 0.190275 0.861089 0.004403
C53   C     C_1   0.657779 0.168057 0.729022 -0.031835
C54   C     C_1   0.665566 0.180547 0.800523 -0.031201
Cr1   Cr    Cr6+3 0.404720 0.198220 0.499960 1.033864
Cr2   Cr    Cr6+3 0.698290 0.897110 0.500380 1.014644
Cr3   Cr    Cr6+3 0.396970 0.904720 0.499610 1.037392
Cr4   Cr    Cr6+3 0.926180 0.151990 0.028120 1.018917
Cr5   Cr    Cr6+3 0.921330 0.451820 0.027470 1.012287
Cr6   Cr    Cr6+3 0.626260 0.446870 0.028710 1.012791
H1    H     H_    0.870696 0.618525 0.338242 0.119079
H2    H     H_    0.112680 0.026489 0.199240 0.139327
H3    H     H_    0.251009 0.522348 0.196064 0.107426
H4    H     H_    0.112441 0.428234 0.379600 0.128996
H5    H     H_    0.520772 0.386644 0.216821 0.146758
H6    H     H_    0.416489 0.695911 0.173609 0.159547
H7    H     H_    0.896711 0.549036 0.215582 0.150169
H8    H     H_    0.244339 0.706078 0.248512 0.097898
H9    H     H_    0.470449 0.580844 0.462998 0.253442
H10   H     H_    0.632867 0.479343 0.438536 0.223468
H11   H     H_    0.121469 0.923890 0.300006 0.214624
H12   H     H_    0.160407 0.577310 0.316475 0.087805
H13   H     H_    0.062278 0.028264 0.367612 0.223094
H14   H     H_    0.508619 0.336904 0.336938 0.173339
H15   H     H_    0.736751 0.962122 0.104003 0.121674
H16   H     H_    0.900372 0.735759 0.137979 0.129882
H17   H     H_    0.971738 0.693319 0.257398 0.108675
H18   H     H_    0.873415 0.860750 0.345298 0.149865
H19   H     H_    0.298199 0.618578 0.367350 0.112838
H20   H     H_    0.266001 0.329792 0.136927 0.130565
N1    N     N_3   0.533554 0.510085 0.426104 -0.641478
N2    N     N_3   0.144981 0.979120 0.333890 -0.588869
O1    O     O_R   0.267740 0.231960 0.575440 -0.509282
O2    O     O_R   0.596130 0.579390 0.952730 -0.501283
O3    O     O_R   0.639060 0.321160 0.958670 -0.495444
O4    O     O_R   0.527280 0.186640 0.570530 -0.488834
O5    O     O_R   0.821240 0.124200 0.104370 -0.515105
O6    O     O_R   0.036890 0.167040 0.097840 -0.502667
O7    O     O_R   0.056180 0.349610 0.102880 -0.531803
O8    O     O_R   0.797660 0.564870 0.097950 -0.504917
O9    O     O_R   0.595880 0.584250 0.104270 -0.532828
O10   O     O_R   0.638830 0.325670 0.099150 -0.520359
O11   O     O_3   0.824590 0.350230 0.028100 -0.264093
O12   O     O_R   0.685970 0.784660 0.430010 -0.509004
O13   O     O_R   0.728090 0.003450 0.576380 -0.504827
O14   O     O_R   0.682970 0.789190 0.570490 -0.499061
O15   O     O_R   0.499290 0.771880 0.575530 -0.516868
O16   O     O_R   0.285330 0.030870 0.569730 -0.496566
O17   O     O_R   0.270980 0.227080 0.423890 -0.534909
O18   O     O_R   0.530280 0.182120 0.430050 -0.485112
O19   O     O_R   0.731330 0.998570 0.424830 -0.537895
O20   O     O_R   0.502530 0.767000 0.423990 -0.498331
O21   O     O_R   0.288330 0.026350 0.429250 -0.455012
O22   O     O_3   0.499990 0.000020 0.499980 -0.254406
O23   O     O_R   0.821500 0.119340 0.952830 -0.507988
O24   O     O_R   0.037130 0.162530 0.957360 -0.491671
O25   O     O_R   0.056440 0.344740 0.951340 -0.506688
O26   O     O_R   0.797900 0.560360 0.957470 -0.489045

loop_
_geom_bond_atom_site_label_1
_geom_bond_atom_site_label_2
_ccdc_geom_bond_type
C39   O24   A    
C23   C45   T    
C41   O26   A    
C13   N1    S    
C27   C29   A    
C11   C13   A    
C19   C20   A    
C18   C26   A    
C16   C51   S    
Cr4   O5    S    
C12   C49   T    
C7    C8    A    
C53   C54   S    
Cr2   O12   S    
Cr3   O20   S    
C34   C51   T    
C43   O7    A    
C43   O6    A    
C36   C37   A    
Cr4   O11   S    
Cr2   O19   S    
C36   H17   S    
C5    C6    A    
C46   O10   A    
Cr2   O13   S    
C29   C33   A    
C47   O17   A    
C30   C38   A    
C15   C17   A    
C1    C2    S    
Cr5   O7    S    
H10   N1    S    
C19   C26   A    
C9    H6    S    
C7    H1    S    
C22   H3    S    
C4    O14   A    
C28   O19   A    
C33   H15   S    
C7    C14   A    
C35   C36   A    
Cr1   O18   S    
C4    C12   S    
C19   N2    S    
C9    C10   A    
H11   N2    S    
Cr6   O11   S    
C28   O18   A    
C48   C50   T    
C21   C22   A    
C18   C25   A    
C52   C54   T    
Cr6   O10   S    
C15   C20   A    
Cr3   O21   S    
C35   H16   S    
C47   O21   A    
C24   C25   A    
Cr2   O22   S    
C3    C8    A    
C42   O3    A    
C31   H14   S    
C41   O2    A    
C40   O20   A    
Cr1   O22   S    
C16   O1    A    
Cr5   O25   S    
C30   C37   A    
Cr4   O24   S    
Cr5   O8    S    
C39   O25   A    
C5    C9    A    
C29   C30   A    
C6    C14   A    
C31   C32   A    
C28   C38   S    
C1    O13   A    
Cr3   O15   S    
C17   C18   A    
C34   C45   S    
C44   O9    A    
C11   H19   S    
C26   C47   S    
C27   C46   S    
C3    C44   S    
C22   C24   A    
Cr1   O1    S    
H13   N2    S    
C44   O8    A    
C24   H12   S    
C46   O5    A    
Cr6   O9    S    
C1    O4    A    
Cr2   O14   S    
Cr3   O22   S    
C27   C32   A    
C40   O12   A    
C3    C5    A    
C2    C53   T    
Cr4   O6    S    
Cr6   O3    S    
C10   H8    S    
C37   H18   S    
Cr5   O26   S    
C31   C38   A    
Cr4   O23   S    
Cr1   O4    S    
C15   C43   S    
C6    C13   A    
Cr6   O2    S    
C16   O16   A    
C23   C39   S    
Cr3   O16   S    
C21   H20   S    
C33   C35   A    
C41   C48   S    
C20   H2    S    
C42   O23   A    
C17   C21   A    
H9    N1    S    
C10   C11   A    
C14   C40   S    
C8    H7    S    
C49   C50   S    
Cr1   O17   S    
Cr5   O11   S    
C4    O15   A    
C25   H4    S    
C42   C52   S    
C32   H5    S    
