data_mof_unit_12699.cif
_audit_creation_date              2012-10-26T19:42:19-0400
_audit_creation_method            fapswitch 2.2
_symmetry_space_group_name_H-M    P1
_symmetry_Int_Tables_number       1
_space_group_crystal_system       triclinic
_cell_length_a                    9.617342
_cell_length_b                    10.747896
_cell_length_c                    17.264261
_cell_angle_alpha                 90.370295
_cell_angle_beta                  85.610827
_cell_angle_gamma                 91.046445
_cell_volume                      1778.98754861

loop_
_atom_site_label
_atom_site_type_symbol
_atom_type_description
_atom_site_fract_x
_atom_site_fract_y
_atom_site_fract_z
_atom_type_partial_charge
C1    C     C_R   0.500801 0.737237 0.501520 0.533620
C2    C     C_R   0.528509 0.518656 0.266024 -0.024873
C3    C     C_R   0.611774 0.874073 0.630511 -0.111913
C4    C     C_R   0.481504 0.498215 0.649968 0.537607
C5    C     C_R   0.662696 0.940990 0.692084 -0.109248
C6    C     C_R   0.659314 0.070346 0.692824 -0.084130
C7    C     C_R   0.605702 0.133594 0.631790 -0.070304
C8    C     C_R   0.555362 0.067727 0.568167 0.044622
C9    C     C_R   0.557960 0.936339 0.567668 0.026750
C10   C     C_R   0.502158 0.871196 0.505408 0.012905
C11   C     C_R   0.442189 0.934209 0.446250 -0.129593
C12   C     C_R   0.343262 0.493444 0.778398 -0.097740
C13   C     C_R   0.441001 0.062542 0.446303 -0.124055
C14   C     C_R   0.498207 0.129187 0.506048 0.046251
C15   C     C_R   0.874395 0.316519 0.413835 -0.100241
C16   C     C_R   0.499098 0.262864 0.501426 0.540056
C17   C     C_R   0.950182 0.210252 0.392707 -0.207642
C18   C     C_R   0.070441 0.185314 0.429779 -0.152564
C19   C     C_R   0.118484 0.271872 0.483077 0.265132
C20   C     C_R   0.071587 0.394786 0.478946 0.160894
C21   C     C_R   0.929555 0.405500 0.464005 0.146629
C22   C     C_R   0.923855 0.596318 0.530074 0.004035
C23   C     C_R   0.424555 0.590801 0.150855 0.259923
C24   C     C_R   0.072453 0.599249 0.526046 0.002324
C25   C     C_R   0.518608 0.503350 0.350223 0.537634
C26   C     C_R   0.472672 0.492346 0.734888 0.010903
C27   C     C_R   0.595775 0.483957 0.773164 -0.133472
C28   C     C_R   0.590151 0.480237 0.853543 -0.109798
C29   C     C_R   0.461323 0.485712 0.897105 0.040740
C30   C     C_R   0.337761 0.489404 0.859279 -0.080362
C31   C     C_R   0.417579 0.572417 0.230872 -0.107422
C32   C     C_R   0.649208 0.485327 0.220859 -0.134423
C33   C     C_R   0.656120 0.500263 0.140716 -0.141125
C34   C     C_R   0.543193 0.549364 0.105154 0.020253
C35   C     C_2   0.454263 0.488892 0.982095 -0.075387
C36   C     C_2   0.550927 0.549640 0.020353 -0.082903
Cu1   Cu    Cu3+1 0.359340 0.500010 0.500010 1.009286
Cu2   Cu    Cu3+1 0.640660 0.499990 0.499990 0.937036
H1    H     H_    0.697002 0.480460 0.741160 0.147753
H2    H     H_    0.776333 0.327512 0.389257 0.174492
H3    H     H_    0.908075 0.141576 0.354324 0.142880
H4    H     H_    0.326264 0.602469 0.266168 0.146012
H5    H     H_    0.111435 0.092106 0.426445 0.147564
H6    H     H_    0.125453 0.680153 0.547932 0.137022
H7    H     H_    0.736640 0.445337 0.247243 0.136646
H8    H     H_    0.641284 0.593782 0.989651 0.132033
H9    H     H_    0.237510 0.492308 0.892402 0.147011
H10   H     H_    0.246813 0.498528 0.750143 0.161052
H11   H     H_    0.365353 0.444363 0.013983 0.172048
H12   H     H_    0.748188 0.470052 0.106038 0.142467
H13   H     H_    0.686683 0.472565 0.881423 0.115977
H14   H     H_    0.925092 0.116505 0.581650 0.340285
H15   H     H_    0.138155 0.720605 0.207353 0.344425
H16   H     H_    0.398058 0.883598 0.399159 0.131640
H17   H     H_    0.613213 0.773670 0.633440 0.130658
H18   H     H_    0.703505 0.892182 0.739848 0.133010
H19   H     H_    0.697580 0.121953 0.741124 0.148287
H20   H     H_    0.602414 0.233924 0.635692 0.150075
H21   H     H_    0.396587 0.110313 0.399155 0.114559
H22   H     H_    0.867146 0.674229 0.555709 0.120732
N1    N     N_R   0.852190 0.498790 0.499250 -0.235716
N2    N     N_R   0.148060 0.498710 0.499220 -0.245434
O1    O     O_R   0.381190 0.680360 0.500010 -0.510270
O2    O     O_2   0.194842 0.299963 0.630205 -0.230177
O3    O     O_3   0.962622 0.182085 0.615268 -0.515354
O4    O     O_2   0.339711 0.744665 0.041548 -0.226312
O5    O     O_2   0.177677 0.578814 0.088582 -0.322433
O6    O     O_3   0.213489 0.769486 0.178622 -0.504399
O7    O     O_R   0.618760 0.680340 0.500000 -0.514520
O8    O     O_R   0.367440 0.500030 0.613600 -0.460547
O9    O     O_R   0.605010 0.500010 0.613590 -0.519885
O10   O     O_R   0.381240 0.319660 0.500000 -0.460701
O11   O     O_R   0.618810 0.319640 0.499990 -0.530246
O12   O     O_R   0.394990 0.499990 0.386410 -0.512192
O13   O     O_R   0.632560 0.499970 0.386400 -0.519151
O14   O     O_2   0.203902 0.089478 0.574725 -0.304004
S1    S     S_3+6 0.126617 0.209810 0.577620 0.027835
S2    S     S_3+6 0.286579 0.671036 0.111743 0.007476

loop_
_geom_bond_atom_site_label_1
_geom_bond_atom_site_label_2
_ccdc_geom_bond_type
Cu1   O12   S    
C31   H4    S    
O2    S1    D    
C5    H18   S    
C35   C36   D    
C16   O10   A    
C12   H10   S    
C4    O8    A    
Cu1   N2    S    
C7    C8    A    
C26   C27   A    
C29   C30   A    
C22   C24   A    
C28   C29   A    
C18   C19   A    
C22   H22   S    
C5    C6    A    
C28   H13   S    
C2    C32   A    
C25   O12   A    
C32   H7    S    
C19   S1    S    
H15   O6    S    
C3    H17   S    
C19   C20   A    
C27   H1    S    
C8    C9    A    
C35   H11   S    
C24   N2    A    
C36   H8    S    
C9    C10   A    
C7    H20   S    
C21   N1    A    
Cu2   N1    S    
Cu2   O7    S    
Cu1   O8    S    
C6    H19   S    
O5    S2    D    
C1    O1    A    
Cu1   O1    S    
C33   C34   A    
Cu2   O13   S    
O6    S2    S    
O4    S2    D    
O3    S1    S    
C16   O11   A    
C30   H9    S    
O14   S1    D    
C33   H12   S    
C1    O7    A    
C12   C26   A    
C2    C31   A    
C25   O13   A    
C23   C31   A    
Cu1   Cu2   S    
C3    C9    A    
C23   C34   A    
C17   C18   A    
C11   H16   S    
C24   H6    S    
C14   C16   S    
C15   C17   A    
Cu2   O9    S    
C8    C14   A    
C12   C30   A    
C1    C10   S    
C3    C5    A    
C4    C26   S    
C6    C7    A    
C13   H21   S    
C29   C35   S    
C32   C33   A    
C18   H5    S    
C22   N1    A    
C11   C13   A    
C2    C25   S    
C34   C36   S    
C23   S2    S    
C20   N2    A    
C17   H3    S    
C15   H2    S    
C10   C11   A    
C15   C21   A    
C20   C21   A    
Cu1   O10   S    
C27   C28   A    
C13   C14   A    
C4    O9    A    
H14   O3    S    
Cu2   O11   S    
