data_mof_unit_20466.cif
_audit_creation_date              2013-03-05T16:26:16-0500
_audit_creation_method            fapswitch 2.2
_symmetry_space_group_name_H-M    P1
_symmetry_Int_Tables_number       1
_space_group_crystal_system       triclinic
_cell_length_a                    18.357766
_cell_length_b                    18.36211
_cell_length_c                    18.325906
_cell_angle_alpha                 120.147049
_cell_angle_beta                  90.235152
_cell_angle_gamma                 59.842062
_cell_volume                      4356.89422375

loop_
_atom_site_label
_atom_site_type_symbol
_atom_site_description
_atom_site_fract_x
_atom_site_fract_y
_atom_site_fract_z
_atom_type_partial_charge
Zn1   Zn    Zn3+2 0.043370 0.413240 0.543370 1.007194
Zn2   Zn    Zn3+2 0.869870 0.586760 0.543380 0.955172
Zn3   Zn    Zn3+2 0.043360 0.413260 0.369880 0.974299
Zn4   Zn    Zn3+2 0.043390 0.586740 0.543370 0.958087
O1    O     O_3   0.000000 0.500000 0.500000 -0.488754
O2    O     O_R   0.944950 0.731580 0.615800 -0.628432
O3    O     O_R   0.115780 0.268410 0.444920 -0.608542
O4    O     O_R   0.823470 0.560720 0.615800 -0.648664
O5    O     O_R   0.115800 0.439290 0.323490 -0.642315
O6    O     O_R   0.823460 0.560740 0.444930 -0.644544
O7    O     O_R   0.115830 0.560690 0.615790 -0.648166
O8    O     O_R   0.944900 0.439310 0.323490 -0.644984
O9    O     O_R   0.115810 0.439260 0.615790 -0.632369
O10   O     O_R   0.944910 0.439280 0.615800 -0.623748
O11   O     O_R   0.115820 0.560710 0.444920 -0.640045
O12   O     O_R   0.823500 0.731590 0.615800 -0.651265
O13   O     O_R   0.115770 0.268420 0.323490 -0.632523
C1    C     C_R   0.860105 0.779592 0.640563 0.789438
C2    C     C_R   0.141376 0.219911 0.359917 0.795786
C3    C     C_R   0.860192 0.500544 0.640547 0.812310
C4    C     C_R   0.140086 0.499905 0.359807 0.792847
C5    C     C_R   0.860036 0.500492 0.359912 0.818353
C6    C     C_R   0.139809 0.499981 0.639822 0.779537
H1    H     H_    0.965757 0.653598 0.939766 0.131469
C7    C     C_R   0.324655 0.410945 0.567267 -0.163666
C8    C     C_R   0.414777 0.365448 0.530876 -0.168252
C9    C     C_R   0.468718 0.364194 0.584250 -0.172069
C10   C     C_R   0.432639 0.409460 0.674526 -0.122398
C11   C     C_R   0.341211 0.456200 0.713099 0.058672
C12   C     C_R   0.286576 0.456522 0.658653 0.050803
C13   C     C_R   0.304177 0.499855 0.803936 -0.159427
C14   C     C_R   0.213891 0.542017 0.840834 0.067621
C15   C     C_R   0.159402 0.541705 0.786243 0.059920
C16   C     C_R   0.195999 0.499832 0.695853 -0.166981
C17   C     C_R   0.176303 0.585459 0.931712 -0.153619
C18   C     C_R   0.087601 0.625156 0.966699 -0.154232
C19   C     C_R   0.034335 0.623704 0.912673 -0.127608
C20   C     C_R   0.069001 0.584045 0.823797 -0.145073
H2    H     H_    0.285728 0.408713 0.522698 0.127587
H3    H     H_    0.442965 0.330505 0.460828 0.138148
H4    H     H_    0.538861 0.328212 0.555686 0.136726
H5    H     H_    0.477479 0.406082 0.713145 0.131346
H6    H     H_    0.214854 0.589034 0.976626 0.124028
H7    H     H_    0.060110 0.657139 0.036030 0.130731
H8    H     H_    0.024240 0.586644 0.785093 0.126847
C21   C     C_R   0.198855 0.053822 0.334663 0.097640
C22   C     C_R   0.204277 0.108100 0.304928 -0.175358
C23   C     C_R   0.272954 0.052337 0.224292 -0.006631
C24   C     C_R   0.323522 0.943748 0.169873 -0.274591
H9    H     H_    0.374839 0.899925 0.107097 0.157241
C25   C     C_R   0.308988 0.891442 0.196709 -0.074591
C26   C     C_R   0.250837 0.947339 0.281969 0.108271
C27   C     C_3   0.177153 0.943276 0.309582 -0.575576
C28   C     C_3   0.119344 0.060788 0.366802 0.144962
H10   H     H_    0.154801 0.909048 0.253101 0.165316
H11   H     H_    0.192666 0.909134 0.348115 0.238562
H12   H     H_    0.062702 0.095375 0.344693 0.084594
C29   C     C_R   0.238871 0.548343 0.340578 0.118385
C30   C     C_R   0.200472 0.494708 0.303337 -0.072480
C31   C     C_R   0.224927 0.431277 0.209680 -0.233949
H13   H     H_    0.199644 0.385017 0.177930 0.184901
C32   C     C_R   0.279245 0.430644 0.155941 -0.241536
H14   H     H_    0.294486 0.383758 0.084171 0.176786
C33   C     C_R   0.308942 0.494457 0.195242 -0.066589
C34   C     C_R   0.291984 0.548392 0.287523 0.129451
C35   C     C_3   0.254472 0.659390 0.355873 -0.472695
C36   C     C_3   0.196135 0.659289 0.414313 -0.466002
H15   H     H_    0.305275 0.669612 0.383362 0.209632
H16   H     H_    0.215942 0.709185 0.333233 0.205202
H17   H     H_    0.213666 0.669005 0.475127 0.206842
H18   H     H_    0.123651 0.709241 0.425943 0.208680
C37   C     C_R   0.822139 0.949080 0.765714 0.006529
C38   C     C_R   0.803648 0.890610 0.694547 -0.071362
C39   C     C_R   0.727069 0.943450 0.676155 -0.243033
H19   H     H_    0.710381 0.900284 0.621193 0.164071
C40   C     C_R   0.671676 0.052370 0.728647 -0.029196
C41   C     C_R   0.695065 0.108885 0.799072 -0.089483
C42   C     C_R   0.773205 0.052957 0.811663 -0.001205
C43   C     C_3   0.823460 0.065041 0.876089 0.084450
C44   C     C_3   0.880154 0.944282 0.824102 -0.138028
H20   H     H_    0.860447 0.095853 0.870520 0.106890
C45   C     C_R   0.712489 0.556855 0.340943 0.083933
C46   C     C_R   0.803991 0.506089 0.304361 -0.079482
C47   C     C_R   0.839759 0.463247 0.213967 -0.224939
H21   H     H_    0.909733 0.427104 0.184286 0.174972
C48   C     C_R   0.785763 0.462696 0.160021 -0.207620
H22   H     H_    0.815233 0.426193 0.089798 0.175548
C49   C     C_R   0.695561 0.505293 0.196177 -0.064731
C50   C     C_R   0.658912 0.557386 0.288022 0.102083
C51   C     C_3   0.603609 0.547470 0.337415 -0.510775
C52   C     C_3   0.663045 0.546455 0.395898 -0.202654
H23   H     H_    0.533903 0.618096 0.374482 0.203487
H24   H     H_    0.608716 0.474543 0.294693 0.206827
H25   H     H_    0.626351 0.617242 0.465804 0.157043
C53   C     C_R   0.714093 0.574077 0.736206 0.080280
C54   C     C_R   0.805551 0.499675 0.696165 -0.099008
C55   C     C_R   0.843460 0.421650 0.710904 -0.180106
H26   H     H_    0.914514 0.361574 0.681804 0.223211
C56   C     C_R   0.789313 0.420843 0.764085 -0.218910
H27   H     H_    0.820335 0.360398 0.774626 0.184440
C57   C     C_R   0.696275 0.497649 0.802877 -0.092779
C58   C     C_R   0.661756 0.571811 0.785474 0.089013
C59   C     C_3   0.578542 0.668475 0.806273 -0.201392
C60   C     C_3   0.638888 0.672044 0.751319 -0.513786
H28   H     H_    0.549770 0.732246 0.878844 0.144816
H29   H     H_    0.626688 0.662065 0.688596 0.200995
H30   H     H_    0.645440 0.736599 0.792971 0.196035
Zn5   Zn    Zn3+2 0.456670 0.586670 0.956580 0.948612
Zn6   Zn    Zn3+2 0.456680 0.586650 0.130080 0.975794
Zn7   Zn    Zn3+2 0.630180 0.413150 0.956570 0.989854
Zn8   Zn    Zn3+2 0.456650 0.413170 0.956580 0.977958
O14   O     O_3   0.500040 0.499910 0.999960 -0.486622
O15   O     O_R   0.384230 0.439200 0.055040 -0.646665
O16   O     O_R   0.555130 0.560630 0.884160 -0.645132
O17   O     O_R   0.384270 0.731490 0.176470 -0.635423
O18   O     O_R   0.676550 0.268320 0.884150 -0.640258
O19   O     O_R   0.555150 0.560600 0.176460 -0.641466
O20   O     O_R   0.384220 0.439220 0.884170 -0.639139
O21   O     O_R   0.676580 0.439170 0.055020 -0.630415
O22   O     O_R   0.384230 0.560650 0.884170 -0.639989
O23   O     O_R   0.384260 0.731500 0.055040 -0.654478
O24   O     O_R   0.555100 0.268330 0.884160 -0.635453
O25   O     O_R   0.384250 0.560620 0.176470 -0.642026
O26   O     O_R   0.676570 0.439190 0.884150 -0.652719
C61   C     C_R   0.359988 0.499865 0.140044 0.804719
C62   C     C_R   0.640011 0.499501 0.859660 0.797795
C63   C     C_R   0.359876 0.779930 0.140079 0.808303
C64   C     C_R   0.639763 0.220243 0.858502 0.854938
C65   C     C_R   0.640076 0.499930 0.140028 0.833267
C66   C     C_R   0.360300 0.499862 0.860058 0.791572
N1    N     N_R   0.093064 0.107600 0.462840 0.247024
O27   O     O_R   0.152363 0.080789 0.500370 -0.380687
O28   O     O_R   0.009325 0.178459 0.511891 -0.426338
C67   C     C_R   0.592638 0.103691 0.706024 0.124668
C68   C     C_R   0.508637 0.137072 0.750215 -0.079816
C69   C     C_R   0.433996 0.185721 0.728483 -0.119489
C70   C     C_R   0.443205 0.199369 0.661438 -0.088085
C71   C     C_R   0.527074 0.164375 0.616065 -0.145416
C72   C     C_R   0.601591 0.117157 0.638538 -0.197204
H31   H     H_    0.500971 0.126328 0.801922 0.131447
H32   H     H_    0.369100 0.212531 0.763391 0.134615
H33   H     H_    0.385474 0.236710 0.644437 0.145123
H34   H     H_    0.534403 0.173733 0.563403 0.147212
H35   H     H_    0.666183 0.090788 0.603264 0.132429
N2    N     N_R   0.765755 0.125416 0.968244 0.225993
O29   O     O_R   0.776228 0.190561 0.033567 -0.422197
O30   O     O_R   0.699927 0.120816 0.985299 -0.393020
C73   C     C_R   0.977998 0.886127 0.770552 0.100663
C74   C     C_R   0.047669 0.799094 0.765625 -0.092764
C75   C     C_R   0.136190 0.746800 0.716584 -0.095039
C76   C     C_R   0.157114 0.778655 0.670127 -0.135144
C77   C     C_R   0.089265 0.862348 0.671781 -0.126810
C78   C     C_R   0.000493 0.915412 0.721060 -0.133521
H36   H     H_    0.034712 0.769732 0.798551 0.120324
H37   H     H_    0.188369 0.680823 0.714217 0.127817
H38   H     H_    0.225781 0.737853 0.632030 0.119526
H39   H     H_    0.105410 0.885985 0.634500 0.142670
H40   H     H_    0.949415 0.978966 0.719732 0.120567
C79   C     C_R   0.867162 0.911272 0.882326 0.169021
C80   C     C_R   0.898671 0.932393 0.955706 -0.106650
C81   C     C_R   0.885374 0.907450 0.012610 -0.113024
C82   C     C_R   0.840530 0.861012 0.997192 -0.110570
C83   C     C_R   0.810245 0.837840 0.923997 -0.153367
C84   C     C_R   0.823285 0.862679 0.866838 -0.112102
H41   H     H_    0.932963 0.969212 0.969116 0.135649
H42   H     H_    0.909494 0.924618 0.068963 0.123879
H43   H     H_    0.829742 0.842357 0.041682 0.118910
H44   H     H_    0.776048 0.801102 0.911790 0.127124
H45   H     H_    0.797728 0.844828 0.811873 0.120251
C85   C     C_R   0.719465 0.446714 0.389262 0.164097
C86   C     C_R   0.768837 0.349059 0.306234 -0.127774
C87   C     C_R   0.822729 0.259272 0.302696 -0.148044
C88   C     C_R   0.828234 0.265738 0.381559 -0.122955
C89   C     C_R   0.779799 0.362015 0.464119 -0.143159
C90   C     C_R   0.725875 0.451981 0.467956 -0.148971
H46   H     H_    0.766643 0.342278 0.244209 0.169836
H47   H     H_    0.860608 0.184644 0.238700 0.146439
H48   H     H_    0.870259 0.196185 0.378679 0.143739
H49   H     H_    0.784350 0.366984 0.525169 0.147880
H50   H     H_    0.689975 0.525975 0.532294 0.123997
C91   C     C_R   0.512334 0.650706 0.764955 0.201782
C92   C     C_R   0.539123 0.571409 0.674054 -0.168008
C93   C     C_R   0.476618 0.558695 0.636553 -0.146006
C94   C     C_R   0.387272 0.622611 0.689625 -0.102646
C95   C     C_R   0.360007 0.700171 0.780284 -0.127489
C96   C     C_R   0.422128 0.714628 0.817820 -0.107909
H51   H     H_    0.608289 0.519569 0.632031 0.130591
H52   H     H_    0.497678 0.498570 0.566343 0.141896
H53   H     H_    0.339659 0.611044 0.660297 0.131275
H54   H     H_    0.290674 0.749340 0.821367 0.132055
H55   H     H_    0.399830 0.775635 0.888042 0.113192
C97   C     C_R   0.296563 0.103426 0.196875 0.167677
C98   C     C_R   0.307398 0.076625 0.109103 -0.155402
C99   C     C_R   0.336957 0.118281 0.081166 -0.152448
C100  C     C_R   0.356280 0.186548 0.140306 -0.102470
C101  C     C_R   0.344595 0.214798 0.228008 -0.128292
C102  C     C_R   0.315252 0.173169 0.256215 -0.127989
H56   H     H_    0.293729 0.022821 0.062112 0.124132
H57   H     H_    0.345709 0.096849 0.013364 0.133499
H58   H     H_    0.380370 0.217513 0.118111 0.146159
H59   H     H_    0.359280 0.268038 0.273837 0.121779
H60   H     H_    0.308954 0.193612 0.323652 0.100986

loop_
_geom_bond_atom_site_label_1
_geom_bond_atom_site_label_2
_geom_bond_distance
_ccdc_geom_bond_type
C87   H47   1.082490 S    
C35   H15   1.111681 S    
C70   H33   1.082646 S    
C57   C58   1.387514 A    
O21   C65   1.277602 A    
C21   C26   1.379305 A    
C38   C39   1.409042 A    
Zn5   O22   1.935123 S    
C53   C54   1.386467 A    
Zn5   O23   1.934680 S    
C86   C87   1.398353 A    
C8    H3    1.082530 S    
C17   H6    1.081795 S    
C76   H38   1.081981 S    
N2    O29   1.300691 A    
C95   C96   1.399466 A    
Zn6   O19   1.935439 S    
C68   C69   1.398980 A    
C43   N2    1.468822 S    
C27   C28   1.522289 S    
C26   C27   1.495420 S    
C28   N1    1.462840 S    
C8    C9    1.389102 A    
O4    C3    1.278059 A    
C45   C50   1.378436 A    
C39   C40   1.411208 A    
Zn8   O20   1.934341 S    
Zn1   O1    1.948263 S    
C10   C11   1.416455 A    
O7    C6    1.276268 A    
C19   C20   1.392701 A    
C47   C48   1.397133 A    
C4    C30   1.453546 S    
C13   C66   1.452787 S    
C71   H34   1.081605 S    
O16   C62   1.277388 A    
C2    C22   1.453759 S    
O25   C61   1.279579 A    
C35   H16   1.112336 S    
O15   C61   1.276798 A    
C85   C86   1.410623 A    
C98   H56   1.083222 S    
O8    C5    1.277305 A    
C96   H55   1.083565 S    
O17   C63   1.276553 A    
C94   C95   1.397495 A    
O9    C6    1.276702 A    
C31   C32   1.396141 A    
C21   C22   1.394933 A    
Zn5   O16   1.941902 S    
C78   H40   1.081919 S    
C24   H9    1.084364 S    
C92   C93   1.394619 A    
C20   H8    1.081832 S    
C32   C33   1.407081 A    
Zn3   O8    1.935395 S    
Zn7   O26   1.941921 S    
C89   C90   1.398096 A    
Zn8   O15   1.940784 S    
C83   C84   1.397922 A    
C24   C25   1.403046 A    
C22   C23   1.421264 A    
C37   C42   1.351120 A    
C76   C77   1.394381 A    
C101  H59   1.082588 S    
Zn3   O13   1.936253 S    
Zn2   O12   1.935942 S    
C81   H42   1.082332 S    
C33   C61   1.453752 S    
C53   C58   1.350950 A    
C35   C36   1.518970 S    
C3    C54   1.444342 S    
C30   C31   1.406054 A    
C88   C89   1.396451 A    
Zn8   O24   1.935403 S    
C84   H45   1.077577 S    
C49   C65   1.447904 S    
C60   H29   1.110201 S    
C55   C56   1.405496 A    
C55   H26   1.082475 S    
C85   C90   1.404603 A    
C27   H10   1.112184 S    
C68   H31   1.083218 S    
O2    C1    1.278056 A    
C39   H19   1.084507 S    
N2    O30   1.302829 A    
C48   C49   1.407091 A    
C25   C26   1.391518 A    
C14   C17   1.417048 A    
O10   C3    1.274898 A    
C95   H54   1.082798 S    
C47   H21   1.083043 S    
Zn4   O2    1.935356 S    
Zn6   O14   1.945108 S    
C67   C72   1.402634 A    
C43   H20   1.111800 S    
C12   C16   1.413563 A    
C42   C43   1.492642 S    
C101  C102  1.398055 A    
C44   C79   1.536159 S    
C100  C101  1.397089 A    
N1    O28   1.300380 A    
C7    C8    1.393039 A    
C41   C42   1.385893 A    
O6    C5    1.277938 A    
C45   C52   1.499818 S    
C43   C44   1.573249 S    
C31   H13   1.083055 S    
C17   C18   1.393045 A    
C91   C92   1.409926 A    
C74   H36   1.080816 S    
C93   C94   1.394987 A    
C11   C12   1.411846 A    
O20   C66   1.276447 A    
C72   H35   1.083222 S    
C9    H4    1.082557 S    
C29   C34   1.380440 A    
C51   H23   1.111582 S    
C79   C80   1.410149 A    
O11   C4    1.278539 A    
C11   C13   1.413255 A    
C6    C16   1.452478 S    
C54   C55   1.412530 A    
C21   C28   1.495873 S    
C32   H14   1.083041 S    
C57   C62   1.445279 S    
C102  H60   1.083132 S    
C59   H28   1.113076 S    
C97   C102  1.407090 A    
C73   C74   1.414286 A    
Zn4   O7    1.934591 S    
Zn3   O5    1.943122 S    
C67   C68   1.404085 A    
C41   C64   1.443724 S    
C23   C24   1.408020 A    
C56   C57   1.412149 A    
C45   C46   1.395798 A    
C1    C38   1.438185 S    
O3    C2    1.277732 A    
C75   H37   1.081060 S    
C52   C85   1.520895 S    
O22   C66   1.276642 A    
C46   C47   1.405399 A    
Zn2   O1    1.948426 S    
Zn1   O9    1.935228 S    
C73   C78   1.413659 A    
N1    O27   1.302270 A    
Zn2   O6    1.933851 S    
Zn7   O18   1.935942 S    
C9    C10   1.393256 A    
O19   C65   1.278206 A    
C87   C88   1.396965 A    
C48   H22   1.083063 S    
C51   H24   1.111913 S    
O26   C62   1.276023 A    
C82   C83   1.395611 A    
C70   C71   1.398072 A    
C27   H11   1.111951 S    
C7    C12   1.416968 A    
C77   H39   1.082460 S    
C18   C19   1.388838 A    
C40   C67   1.476093 S    
Zn8   O14   1.949611 S    
Zn1   O3    1.934635 S    
C13   C14   1.413437 A    
Zn2   O4    1.942025 S    
C37   C38   1.387415 A    
Zn3   O1    1.945107 S    
Zn7   O21   1.933750 S    
C91   C96   1.405902 A    
O23   C63   1.278117 A    
C90   H50   1.080794 S    
Zn1   O10   1.942002 S    
H1    C19   1.081567 S    
C59   C91   1.516513 S    
C86   H46   1.082428 S    
C15   C20   1.416954 A    
C75   C76   1.393956 A    
C56   H27   1.082995 S    
C36   H17   1.110172 S    
C25   C63   1.447050 S    
C97   C98   1.406484 A    
Zn4   O11   1.940740 S    
C80   H41   1.083162 S    
C83   H44   1.082590 S    
C29   C30   1.396815 A    
C37   C44   1.509318 S    
C81   C82   1.395015 A    
C93   H52   1.082690 S    
C14   C15   1.411837 A    
C53   C60   1.491999 S    
C40   C41   1.422968 A    
O5    C4    1.277756 A    
C51   C52   1.526294 S    
C88   H48   1.082458 S    
Zn4   O1    1.949612 S    
C33   C34   1.396398 A    
C10   H5    1.081829 S    
O13   C2    1.278269 A    
C69   H32   1.082375 S    
C15   C16   1.413256 A    
C99   C100  1.396705 A    
C36   H18   1.112201 S    
C92   H51   1.081066 S    
C34   C35   1.493257 S    
O24   C64   1.275315 A    
C58   C59   1.493392 S    
C100  H58   1.082005 S    
C80   C81   1.396788 A    
Zn7   O14   1.948574 S    
C23   C97   1.484610 S    
C18   H7    1.082533 S    
C71   C72   1.398212 A    
Zn6   O17   1.936254 S    
C82   H43   1.082273 S    
C99   H57   1.082371 S    
Zn5   O14   1.948412 S    
C29   C36   1.493117 S    
C44   C73   1.537648 S    
C49   C50   1.395030 A    
O12   C1    1.274849 A    
C98   C99   1.397957 A    
O18   C64   1.279040 A    
C59   C60   1.547329 S    
C5    C46   1.447653 S    
C79   C84   1.411156 A    
C69   C70   1.398054 A    
Zn6   O25   1.942974 S    
C77   C78   1.397679 A    
C50   C51   1.497326 S    
C74   C75   1.395659 A    
C89   H49   1.082300 S    
C94   H53   1.079809 S    
C60   H30   1.111697 S    
C7    H2    1.081876 S    
C52   H25   1.113193 S    
C28   H12   1.113648 S    
