data_mof_unit_43582.cif
_audit_creation_date              2012-10-26T19:02:36-0400
_audit_creation_method            fapswitch 2.2
_symmetry_space_group_name_H-M    P1
_symmetry_Int_Tables_number       1
_space_group_crystal_system       triclinic
_cell_length_a                    17.298263
_cell_length_b                    8.688618
_cell_length_c                    7.440302
_cell_angle_alpha                 102.905315
_cell_angle_beta                  90.248084
_cell_angle_gamma                 93.000004
_cell_volume                      1088.37449728

loop_
_atom_site_label
_atom_site_type_symbol
_atom_type_description
_atom_site_fract_x
_atom_site_fract_y
_atom_site_fract_z
_atom_type_partial_charge
C1    C     C_R   0.497633 0.199751 0.453664 0.551462
C2    C     C_R   0.775441 0.457560 0.606223 -0.128115
C3    C     C_R   0.145015 0.550746 0.404702 -0.108266
C4    C     C_R   0.854985 0.449253 0.595297 -0.108266
C5    C     C_R   0.107110 0.532140 0.565279 0.044626
C6    C     C_R   0.892890 0.467859 0.434721 0.044626
C7    C     C_R   0.150246 0.514698 0.718694 -0.113853
C8    C     C_R   0.849754 0.485302 0.281305 -0.113853
C9    C     C_R   0.230424 0.507262 0.708193 -0.129119
C10   C     C_R   0.769576 0.492738 0.291807 -0.129119
C11   C     C_2   0.022575 0.529060 0.574743 -0.133500
C12   C     C_R   0.502367 0.800249 0.546336 0.551462
C13   C     C_2   0.977425 0.470940 0.425257 -0.133500
C14   C     C_2   0.496506 0.031923 0.427505 -0.154814
C15   C     C_2   0.503494 0.968077 0.572495 -0.154814
C16   C     C_R   0.351289 0.505393 0.526537 0.545802
C17   C     C_R   0.648711 0.494607 0.473463 0.545803
C18   C     C_R   0.267723 0.517974 0.544053 0.016965
C19   C     C_R   0.732277 0.482026 0.455947 0.016965
C20   C     C_R   0.224559 0.542440 0.393777 -0.128115
Cu1   Cu    Cu3+1 0.508700 0.517250 0.683000 0.955341
Cu2   Cu    Cu3+1 0.491300 0.482750 0.317000 0.955341
H1    H     H_    0.252171 0.555474 0.267177 0.128051
H2    H     H_    0.510078 0.039467 0.712312 0.134706
H3    H     H_    0.439179 0.379234 0.958122 0.237885
H4    H     H_    0.560821 0.620766 0.041878 0.237885
H5    H     H_    0.002619 0.428141 0.291158 0.114184
H6    H     H_    0.997381 0.571859 0.708842 0.114184
H7    H     H_    0.747829 0.444526 0.732823 0.128051
H8    H     H_    0.737148 0.509712 0.173500 0.121836
H9    H     H_    0.262852 0.490288 0.826500 0.121835
H10   H     H_    0.121685 0.502671 0.844580 0.096355
H11   H     H_    0.878315 0.497329 0.155420 0.096355
H12   H     H_    0.886444 0.427946 0.712671 0.099243
H13   H     H_    0.113556 0.572053 0.287329 0.099243
H14   H     H_    0.489922 0.960533 0.287688 0.134706
N1    N     N_2   0.478180 0.456750 0.041980 -0.259430
N2    N     N_2   0.521820 0.543250 0.958020 -0.259430
O1    O     O_R   0.505650 0.286040 0.618880 -0.505835
O2    O     O_R   0.494350 0.713960 0.381120 -0.505835
O3    O     O_R   0.490960 0.256910 0.309800 -0.496195
O4    O     O_R   0.509040 0.743090 0.690200 -0.496195
O5    O     O_R   0.394600 0.516230 0.672450 -0.509527
O6    O     O_R   0.605400 0.483770 0.327550 -0.509528
O7    O     O_R   0.379910 0.487100 0.363380 -0.507802
O8    O     O_R   0.620090 0.512900 0.636620 -0.507802

loop_
_geom_bond_atom_site_label_1
_geom_bond_atom_site_label_2
_ccdc_geom_bond_type
C16   O7    A    
C12   O2    A    
C2    C4    A    
C20   H1    S    
N1    N2    D    
C7    H10   S    
C10   H8    S    
Cu1   O1    S    
C12   C15   S    
C3    H13   S    
C10   C19   A    
Cu2   O2    S    
C17   O6    A    
C3    C20   A    
Cu1   Cu2   S    
C6    C13   S    
C11   C13   D    
C16   O5    A    
Cu2   O6    S    
C11   H6    S    
C2    H7    S    
C6    C8    A    
C4    C6    A    
C15   H2    S    
C17   C19   S    
C5    C11   S    
C18   C20   A    
C8    H11   S    
C14   H14   S    
C4    H12   S    
Cu2   O3    S    
C1    O1    A    
Cu1   O4    S    
C7    C9    A    
C9    C18   A    
Cu2   O7    S    
C17   O8    A    
C16   C18   S    
Cu1   O8    S    
C1    O3    A    
C5    C7    A    
C9    H9    S    
C14   C15   D    
H4    N2    S    
C12   O4    A    
C1    C14   S    
H3    N1    S    
C2    C19   A    
Cu1   O5    S    
Cu2   N1    S    
C8    C10   A    
C13   H5    S    
Cu1   N2    S    
C3    C5    A    
