data_mof_unit_63217.cif
_audit_creation_date              2013-03-05T16:08:13-0500
_audit_creation_method            fapswitch 2.2
_symmetry_space_group_name_H-M    P1
_symmetry_Int_Tables_number       1
_space_group_crystal_system       triclinic
_cell_length_a                    19.671072
_cell_length_b                    22.573558
_cell_length_c                    8.670283
_cell_angle_alpha                 90.261504
_cell_angle_beta                  102.967756
_cell_angle_gamma                 89.666778
_cell_volume                      3751.73219863

loop_
_atom_site_label
_atom_site_type_symbol
_atom_site_description
_atom_site_fract_x
_atom_site_fract_y
_atom_site_fract_z
_atom_type_partial_charge
P1    P     P_3+3 0.853370 0.434890 0.996520 0.525866
P2    P     P_3+3 0.853370 0.565110 0.496520 0.520939
P3    P     P_3+3 0.353370 0.934890 0.996520 0.533382
P4    P     P_3+3 0.353370 0.065110 0.496520 0.526799
O1    O     O_2   0.860260 0.414960 0.826400 -0.373992
O2    O     O_2   0.860260 0.585040 0.326400 -0.381356
O3    O     O_2   0.360260 0.914960 0.826400 -0.342538
O4    O     O_2   0.360260 0.085040 0.326400 -0.422519
O5    O     O_3   0.918600 0.470180 0.098890 -0.308204
O6    O     O_3   0.918600 0.529820 0.598890 -0.319015
O7    O     O_3   0.418600 0.970180 0.098890 -0.313544
O8    O     O_3   0.418600 0.029820 0.598890 -0.273195
O9    O     O_3   0.975750 0.362410 0.628650 -0.345045
O10   O     O_3   0.975750 0.637590 0.128650 -0.303189
O11   O     O_3   0.475750 0.862410 0.628650 -0.337106
O12   O     O_3   0.475750 0.137590 0.128650 -0.333872
O13   O     O_2   0.865972 0.313764 0.702524 -0.314271
O14   O     O_2   0.866793 0.684060 0.206538 -0.292999
O15   O     O_2   0.366547 0.813685 0.706399 -0.313815
O16   O     O_2   0.365163 0.185981 0.204676 -0.364969
O17   O     O_3   0.780482 0.481829 0.960267 -0.579740
O18   O     O_3   0.780296 0.519022 0.460947 -0.573876
O19   O     O_3   0.280197 0.981422 0.957394 -0.582614
O20   O     O_3   0.285470 0.012877 0.463726 -0.542967
O21   O     O_3   0.946686 0.240726 0.582445 -0.560581
O22   O     O_3   0.954934 0.757463 0.126544 -0.467459
O23   O     O_3   0.445108 0.741038 0.581060 -0.563852
O24   O     O_3   0.443451 0.260268 0.087257 -0.463179
H1    H     H_    0.981826 0.261319 0.821974 0.157744
H2    H     H_    0.006182 0.731716 0.947657 0.093711
H3    H     H_    0.482321 0.761661 0.820457 0.155421
H4    H     H_    0.492746 0.237181 0.317856 0.083959
C1    C     C_3   0.976596 0.166987 0.781188 -0.633411
C2    C     C_3   0.053869 0.807765 0.071178 -1.040077
C3    C     C_3   0.474171 0.667392 0.780841 -0.631255
C4    C     C_3   0.486733 0.332682 0.282028 -0.853181
H5    H     H_    0.018660 0.151381 0.880235 0.209262
H6    H     H_    0.087604 0.783531 0.170994 0.268321
H7    H     H_    0.424475 0.667817 0.820900 0.253586
H8    H     H_    0.435677 0.337598 0.314340 0.294735
H9    H     H_    0.926624 0.166214 0.820059 0.250773
H10   H     H_    0.039781 0.852066 0.110544 0.274545
H11   H     H_    0.469037 0.635310 0.681775 0.294041
H12   H     H_    0.488308 0.365124 0.186897 0.294501
P5    P     P_3+3 0.146350 0.434230 0.693140 0.455184
P6    P     P_3+3 0.146350 0.565770 0.193140 0.528841
P7    P     P_3+3 0.646350 0.934230 0.693140 0.449424
P8    P     P_3+3 0.646350 0.065770 0.193140 0.528324
P9    P     P_3+3 0.086119 0.306144 0.126323 0.507639
P10   P     P_3+3 0.076471 0.700450 0.614743 0.540169
P11   P     P_3+3 0.585569 0.805817 0.127114 0.504329
P12   P     P_3+3 0.585895 0.193240 0.623179 0.446107
O25   O     O_2   0.139400 0.414340 0.863230 -0.385210
O26   O     O_2   0.139400 0.585660 0.363230 -0.381001
O27   O     O_2   0.639400 0.914340 0.863230 -0.386600
O28   O     O_2   0.639400 0.085660 0.363230 -0.379772
O29   O     O_3   0.023740 0.362300 0.060930 -0.250879
O30   O     O_3   0.023740 0.637700 0.560930 -0.284907
O31   O     O_3   0.523740 0.862300 0.060930 -0.254531
O32   O     O_3   0.523740 0.137700 0.560930 -0.356577
O33   O     O_2   0.136266 0.309044 0.012361 -0.397424
O34   O     O_2   0.123435 0.698953 0.493307 -0.354666
O35   O     O_2   0.635772 0.807988 0.013117 -0.394105
O36   O     O_2   0.632821 0.192665 0.502104 -0.357766
O37   O     O_3   0.230211 0.468331 0.737283 -0.576488
O38   O     O_3   0.231738 0.533241 0.238992 -0.552087
O39   O     O_3   0.731821 0.964970 0.739341 -0.586731
O40   O     O_3   0.731091 0.031950 0.239700 -0.550431
O41   O     O_3   0.045983 0.237106 0.079069 -0.588142
O42   O     O_3   0.017423 0.759500 0.547357 -0.500838
O43   O     O_3   0.544500 0.737187 0.079997 -0.585353
O44   O     O_3   0.544784 0.262331 0.585991 -0.643529
C5    C     C_3   0.017458 0.214681 0.202937 0.196359
C6    C     C_3   0.045551 0.816320 0.591712 0.160655
C7    C     C_3   0.515669 0.715352 0.204005 0.198642
C8    C     C_3   0.491372 0.270003 0.668621 0.107988
H13   H     H_    0.037500 0.236817 0.318644 0.058462
H14   H     H_    0.075166 0.816202 0.715909 0.071085
H15   H     H_    0.535958 0.737499 0.319586 0.055463
H16   H     H_    0.497065 0.240255 0.772707 0.133985
C9    C     C_3   0.035340 0.148334 0.221859 -0.006703
C10   C     C_3   0.089976 0.839475 0.480325 -0.083304
C11   C     C_3   0.533004 0.648976 0.223529 -0.003532
C12   C     C_3   0.495458 0.334456 0.728337 0.222854
H17   H     H_    0.001368 0.121835 0.127007 0.156903
H18   H     H_    0.055736 0.853905 0.367670 0.149781
H19   H     H_    0.499624 0.622658 0.127339 0.158674
H20   H     H_    0.488804 0.365686 0.627408 0.144422
H21   H     H_    0.090027 0.140154 0.214026 0.132468
H22   H     H_    0.126216 0.805873 0.451370 0.164590
H23   H     H_    0.588055 0.640709 0.218668 0.136593
H24   H     H_    0.547603 0.342419 0.806543 0.119281
C13   C     C_3   0.246448 0.472025 0.266470 0.065630
C14   C     C_3   0.241779 0.529739 0.764926 0.070382
C15   C     C_3   0.745329 0.970645 0.266583 0.090158
C16   C     C_3   0.746618 0.025602 0.768864 0.079224
C17   C     C_3   0.320750 0.459631 0.239553 0.171154
C18   C     C_3   0.314338 0.544874 0.731191 0.305822
C19   C     C_3   0.819358 0.957583 0.238593 0.152789
C20   C     C_3   0.821662 0.036645 0.744015 0.317979
H25   H     H_    0.338209 0.413778 0.275316 0.132371
H26   H     H_    0.330103 0.590915 0.768177 0.134785
H27   H     H_    0.836885 0.911891 0.276025 0.118768
H28   H     H_    0.840494 0.081696 0.784163 0.128335
H29   H     H_    0.321261 0.463161 0.112446 0.139486
H30   H     H_    0.312630 0.542435 0.602912 0.126334
H31   H     H_    0.819343 0.959949 0.111209 0.132655
H32   H     H_    0.822277 0.034155 0.616832 0.138472
Ba1   Ba    Ba6+2 0.999900 0.457470 0.844900 1.668582
Ba2   Ba    Ba6+2 0.999900 0.542530 0.344900 1.701253
Ba3   Ba    Ba6+2 0.499900 0.957470 0.844900 1.686411
Ba4   Ba    Ba6+2 0.499900 0.042530 0.344900 1.674653
C21   C     C_3   0.796504 0.535963 0.900210 0.355392
C22   C     C_3   0.795580 0.464899 0.397852 0.423341
C23   C     C_3   0.295836 0.035628 0.897578 0.345034
C24   C     C_3   0.272601 0.992531 0.306860 0.443512
H33   H     H_    0.815372 0.528905 0.790275 0.117503
H34   H     H_    0.813735 0.472054 0.287312 0.107037
H35   H     H_    0.317263 0.028703 0.791088 0.142617
H36   H     H_    0.252148 0.029118 0.223717 0.079887
H37   H     H_    0.836206 0.559953 0.989815 0.122722
H38   H     H_    0.835580 0.440312 0.485521 0.116078
H39   H     H_    0.333366 0.060592 0.989567 0.105761
H40   H     H_    0.321162 0.973931 0.281852 0.107144
C25   C     C_3   0.729817 0.572891 0.861653 -0.875297
C26   C     C_3   0.728636 0.428824 0.359618 -0.987007
C27   C     C_3   0.227967 0.070781 0.851364 -0.835316
C28   C     C_3   0.217743 0.944248 0.281639 -0.889182
H41   H     H_    0.688667 0.548694 0.776296 0.289040
H42   H     H_    0.687054 0.453993 0.277693 0.287685
H43   H     H_    0.189594 0.045922 0.760993 0.313548
H44   H     H_    0.168158 0.962367 0.303382 0.310310
H45   H     H_    0.738799 0.615598 0.808076 0.213794
H46   H     H_    0.736738 0.386410 0.302116 0.203137
H47   H     H_    0.236633 0.114220 0.801347 0.211024
H48   H     H_    0.207787 0.927934 0.157708 0.224078
H49   H     H_    0.711239 0.581929 0.971419 0.254889
H50   H     H_    0.711116 0.419224 0.470101 0.263796
H51   H     H_    0.205811 0.078422 0.956894 0.238980
H52   H     H_    0.236072 0.906593 0.362471 0.262025
O45   O     O_3   0.081330 0.529680 0.090830 -0.307996
O46   O     O_3   0.081330 0.470320 0.590830 -0.388856
O47   O     O_3   0.581330 0.029680 0.090830 -0.305046
O48   O     O_3   0.581330 0.970320 0.590830 -0.384087
P13   P     P_3+3 0.910161 0.690392 0.079455 0.598851
P14   P     P_3+3 0.908168 0.311467 0.571838 0.525470
P15   P     P_3+3 0.407744 0.188857 0.075118 0.555289
P16   P     P_3+3 0.407142 0.811962 0.572907 0.549831
C29   C     C_3   0.990982 0.229883 0.730259 0.453999
C30   C     C_3   0.988572 0.771780 0.003925 0.419873
C31   C     C_3   0.489858 0.729731 0.728309 0.445882
C32   C     C_3   0.495633 0.269554 0.224351 0.557091
H53   H     H_    0.972665 0.135293 0.681568 0.295460
H54   H     H_    0.084190 0.814932 0.979924 0.229724
H55   H     H_    0.516146 0.651455 0.879637 0.208935
H56   H     H_    0.529011 0.344135 0.385631 0.208261
C33   C     C_R   0.129369 0.695130 0.830581 0.187364
C34   C     C_R   0.137232 0.309933 0.336009 0.162655
C35   C     C_R   0.637978 0.189363 0.831603 0.286748
C36   C     C_R   0.636451 0.809580 0.337366 0.160687
C37   C     C_R   0.180964 0.737263 0.901721 -0.019958
C38   C     C_R   0.184914 0.264834 0.405465 0.007378
C39   C     C_R   0.685340 0.234602 0.901040 0.092961
C40   C     C_R   0.684895 0.764968 0.406652 0.000535
C41   C     C_R   0.782050 0.324464 0.041831 -0.002441
C42   C     C_R   0.783229 0.676078 0.546211 -0.047540
C43   C     C_R   0.281025 0.825051 0.042795 -0.048821
C44   C     C_R   0.280756 0.174426 0.546538 -0.057727
C45   C     C_R   0.743621 0.328818 0.884580 -0.062266
C46   C     C_R   0.745527 0.671891 0.388238 -0.033049
C47   C     C_R   0.247391 0.826562 0.882239 0.021386
C48   C     C_R   0.243731 0.170687 0.388084 -0.028831
C49   C     C_R   0.202039 0.782067 0.813019 -0.110353
C50   C     C_R   0.198844 0.215670 0.318088 -0.107000
C51   C     C_R   0.697392 0.284598 0.815208 -0.118404
C52   C     C_R   0.699316 0.716090 0.319025 -0.120422
C53   C     C_R   0.835898 0.365615 0.105806 0.170319
C54   C     C_R   0.837055 0.634864 0.609233 0.155565
C55   C     C_R   0.334706 0.866223 0.107154 0.142359
C56   C     C_R   0.334478 0.133126 0.610032 0.074245
H57   H     H_    0.749453 0.365904 0.810833 0.156673
H58   H     H_    0.751878 0.635107 0.313196 0.155508
H59   H     H_    0.257435 0.860719 0.804660 0.203150
H60   H     H_    0.250039 0.133841 0.313263 0.132191
H61   H     H_    0.185163 0.782240 0.687077 0.169990
H62   H     H_    0.175655 0.211261 0.193405 0.172590
H63   H     H_    0.671851 0.290211 0.692253 0.171342
H64   H     H_    0.675374 0.711230 0.194833 0.175516
C57   C     C_R   0.874120 0.356685 0.262147 0.048143
C58   C     C_R   0.875642 0.644203 0.765905 0.088813
C59   C     C_R   0.371338 0.858375 0.265025 0.082741
C60   C     C_R   0.373698 0.142728 0.765427 0.016035
C61   C     C_R   0.154098 0.638755 0.084607 0.276866
C62   C     C_R   0.158153 0.363203 0.588331 0.255897
C63   C     C_R   0.658075 0.136762 0.085556 0.285608
C64   C     C_R   0.656902 0.862698 0.589920 0.269948
C65   C     C_R   0.202001 0.683756 0.153362 -0.088499
C66   C     C_R   0.207687 0.319269 0.655842 -0.087579
C67   C     C_R   0.707670 0.180820 0.152171 -0.104986
C68   C     C_R   0.706755 0.818978 0.657756 -0.065164
C69   C     C_R   0.214497 0.733581 0.064861 0.065302
C70   C     C_R   0.219094 0.268734 0.567596 0.115060
C71   C     C_R   0.720145 0.230549 0.062795 0.079601
C72   C     C_R   0.719281 0.769009 0.568829 0.069500
C73   C     C_R   0.239729 0.679106 0.308679 -0.105289
C74   C     C_R   0.245086 0.324238 0.811039 -0.061426
C75   C     C_R   0.745027 0.176338 0.307302 -0.116368
C76   C     C_R   0.743784 0.823796 0.813578 -0.093058
C77   C     C_R   0.785243 0.222133 0.384753 0.506416
C78   C     C_R   0.784172 0.778182 0.891696 0.413484
C79   C     C_R   0.280774 0.724421 0.386523 0.487027
C80   C     C_R   0.284236 0.278056 0.889669 0.546909
C81   C     C_R   0.801667 0.272178 0.299554 -0.260360
C82   C     C_R   0.801738 0.728356 0.805604 -0.123355
C83   C     C_R   0.297733 0.774380 0.301969 -0.254625
C84   C     C_R   0.300819 0.227563 0.804277 -0.199207
C85   C     C_R   0.768158 0.275820 0.135003 -0.006143
C86   C     C_R   0.768289 0.724331 0.640639 0.066513
C87   C     C_R   0.264253 0.778010 0.137252 0.013927
C88   C     C_R   0.266900 0.223352 0.639985 0.044006
C89   C     C_R   0.853667 0.315347 0.364695 0.140583
C90   C     C_R   0.855879 0.686629 0.869421 0.056556
C91   C     C_R   0.350671 0.817023 0.367267 0.154803
C92   C     C_R   0.353212 0.184448 0.868568 0.156769
C93   C     C_R   0.119214 0.645628 0.923665 -0.443590
C94   C     C_R   0.123814 0.357264 0.429897 -0.432436
C95   C     C_R   0.625623 0.141538 0.924751 -0.450210
C96   C     C_R   0.622433 0.856608 0.431502 -0.440491
H65   H     H_    0.237830 0.639766 0.375852 0.230879
H66   H     H_    0.243025 0.364009 0.877691 0.183371
H67   H     H_    0.742295 0.137097 0.374415 0.240740
H68   H     H_    0.741444 0.863288 0.880810 0.187944
H69   H     H_    0.087475 0.609733 0.866812 0.187440
H70   H     H_    0.088873 0.391925 0.376840 0.242917
H71   H     H_    0.592707 0.105944 0.869031 0.182258
H72   H     H_    0.586943 0.890946 0.378490 0.242430
Cl1   Cl    Cl    0.384005 0.510048 0.346692 -0.438192
Cl2   Cl    Cl    0.381920 0.496722 0.832288 -0.457963
Cl3   Cl    Cl    0.883191 0.008344 0.342128 -0.433161
Cl4   Cl    Cl    0.883643 0.984127 0.847150 -0.510708
C97   C     C_2   0.065028 0.236997 0.714411 0.602635
H73   H     H_    0.080967 0.279802 0.681174 -0.022614
O49   O     O_2   0.107160 0.196219 0.738138 -0.581451
C98   C     C_2   0.940151 0.808122 0.882515 0.469849
H74   H     H_    0.922361 0.851226 0.913596 0.139967
O50   O     O_2   0.919046 0.788823 0.748981 -0.622085
C99   C     C_2   0.563762 0.735255 0.710182 0.613304
H75   H     H_    0.579955 0.777119 0.671618 -0.030477
O51   O     O_2   0.605452 0.694217 0.737562 -0.578722
C100  C     C_2   0.565884 0.265634 0.185674 0.473256
H76   H     H_    0.612777 0.267064 0.279207 0.031977
O52   O     O_2   0.570953 0.263522 0.048508 -0.629023
Cl5   Cl    Cl    0.025702 0.121127 0.408075 -0.536252
Cl6   Cl    Cl    0.138870 0.902333 0.567531 -0.628900
Cl7   Cl    Cl    0.521376 0.621822 0.408149 -0.552495
Cl8   Cl    Cl    0.430999 0.351294 0.837153 -0.487749
Cl9   Cl    Cl    0.805304 0.210404 0.589985 -0.557265
Cl10  Cl    Cl    0.806975 0.791808 0.097216 -0.663458
Cl11  Cl    Cl    0.303110 0.711158 0.591059 -0.577988
Cl12  Cl    Cl    0.302213 0.290292 0.095658 -0.625331
Cl13  Cl    Cl    0.953557 0.393483 0.326690 -0.591844
Cl14  Cl    Cl    0.953609 0.605137 0.830215 -0.614378
Cl15  Cl    Cl    0.450901 0.895081 0.329596 -0.576240
Cl16  Cl    Cl    0.455009 0.107654 0.825726 -0.600342
C101  C     C_2   0.939588 0.221772 0.162167 0.523491
H77   H     H_    0.909333 0.204307 0.241665 0.066777
O53   O     O_2   0.909738 0.245905 0.039861 -0.557116
C102  C     C_2   0.986288 0.859858 0.579281 0.777777
H78   H     H_    0.940964 0.856720 0.481520 0.058103
O54   O     O_2   0.989512 0.899937 0.675691 -0.502159
C103  C     C_2   0.437847 0.723162 0.163133 0.522135
H79   H     H_    0.407335 0.706668 0.243322 0.068547
O55   O     O_2   0.408307 0.747010 0.040137 -0.556097
C104  C     C_2   0.422819 0.256593 0.556411 0.528648
H80   H     H_    0.414992 0.212952 0.503818 0.071130
O56   O     O_2   0.376651 0.293739 0.520185 -0.527448
C105  C     C_2   0.244112 0.458486 0.429671 0.553974
H81   H     H_    0.201032 0.478160 0.467915 0.038207
O57   O     O_2   0.285670 0.424772 0.512530 -0.503412
C106  C     C_2   0.242317 0.541653 0.930190 0.506168
H82   H     H_    0.201528 0.520169 0.971335 0.031132
O58   O     O_2   0.283412 0.575958 0.011699 -0.535804
C107  C     C_2   0.743728 0.957263 0.430063 0.535910
H83   H     H_    0.701734 0.977921 0.470067 0.046366
O59   O     O_2   0.784365 0.922327 0.510865 -0.552144
C108  C     C_2   0.743886 0.039001 0.931714 0.479604
H84   H     H_    0.700842 0.019644 0.969400 0.037269
O60   O     O_2   0.784919 0.072936 0.014757 -0.537694
C109  C     C_2   0.197594 0.430211 0.167169 0.369232
H85   H     H_    0.218284 0.393555 0.111370 0.084867
O61   O     O_2   0.135546 0.432223 0.162630 -0.500854
C110  C     C_2   0.187833 0.570428 0.674928 0.338745
H86   H     H_    0.132985 0.561091 0.654080 0.120873
O62   O     O_2   0.205409 0.619427 0.641890 -0.539150
C111  C     C_2   0.695730 0.929183 0.168415 0.367300
H87   H     H_    0.715815 0.891913 0.113774 0.083985
O63   O     O_2   0.633773 0.932039 0.164322 -0.499825
C112  C     C_2   0.696581 0.067390 0.672260 0.336354
H88   H     H_    0.641035 0.060458 0.648417 0.118619
O64   O     O_2   0.718144 0.114306 0.635596 -0.538773

loop_
_geom_bond_atom_site_label_1
_geom_bond_atom_site_label_2
_geom_bond_distance
_ccdc_geom_bond_type
C19   H27   1.112092 S    
C64   C96   1.395200 A    
C79   Cl11  1.755338 S    
C66   C74   1.385544 A    
C43   C55   1.425640 A    
C2    H10   1.108823 S    
C46   C52   1.389969 A    
C47   C49   1.389083 A    
C39   C71   1.418983 A    
C27   H51   1.110639 S    
C47   H59   1.073372 S    
P5    Ba1   3.461662 S    
C73   C79   1.382951 A    
C100  O52   1.216229 D    
C103  H79   1.083752 S    
C20   H28   1.111701 S    
C98   H74   1.085245 S    
C104  H80   1.080867 S    
C82   C90   1.433956 A    
O29   Ba1   2.823882 S    
C12   Cl8   1.780549 S    
O31   Ba3   2.823882 S    
Ba1   O46   3.016194 S    
P4    O8    1.597585 S    
C34   C94   1.399661 A    
C13   C105  1.459803 S    
C17   H29   1.107591 S    
C68   C76   1.387645 A    
P9    O41   1.755914 S    
P2    C54   1.912639 S    
C61   C93   1.418840 A    
P11   O43   1.755089 S    
C5    C9    1.537518 S    
C52   H64   1.079451 S    
P6    O45   1.607102 S    
C41   C45   1.406343 A    
O40   C15   1.420214 S    
C23   H39   1.111387 S    
C71   C85   1.438158 A    
C69   C87   1.444898 A    
P14   C89   1.875847 S    
C43   C47   1.401267 A    
C44   C56   1.421648 A    
C77   C81   1.430122 A    
C84   C92   1.433739 A    
P12   O44   1.750224 S    
C14   C110  1.483980 S    
C77   Cl9   1.755023 S    
C44   C88   1.427576 A    
C76   H68   1.069321 S    
C102  O54   1.221167 D    
C15   C107  1.457865 S    
P6    Ba2   3.468551 S    
P5    O46   1.603659 S    
C4    H12   1.111232 S    
C112  H88   1.077689 S    
C59   C91   1.412855 A    
C11   H23   1.107863 S    
O25   Ba1   2.877138 S    
O5    Ba2   2.870919 S    
O24   P15   1.755391 S    
O27   Ba3   2.877138 S    
O7    Ba4   2.870919 S    
O30   Ba2   2.815010 S    
C12   H20   1.110409 S    
C17   Cl1   1.787324 S    
O15   P16   1.546870 D    
C18   H30   1.106291 S    
C63   C95   1.401477 A    
C110  O62   1.215237 D    
O13   P14   1.548092 D    
P10   O42   1.775339 S    
C93   H69   1.073995 S    
C1    C29   1.535375 S    
P2    O18   1.749062 S    
C108  O60   1.223964 D    
C54   C58   1.415027 A    
C15   C19   1.555457 S    
C27   H43   1.110892 S    
P3    O7    1.600984 S    
H1    C29   1.107229 S    
C25   H41   1.110802 S    
C55   C59   1.407935 A    
C26   H46   1.104617 S    
C5    H13   1.109843 S    
C9    Cl5   1.779800 S    
C7    H15   1.109826 S    
P15   C92   1.872209 S    
C41   C53   1.426751 A    
C73   H65   1.069610 S    
Ba3   Ba4   4.749341 S    
C39   C51   1.404866 A    
C32   C100  1.495410 S    
C111  O63   1.212621 D    
C49   H61   1.067670 S    
C7    C103  1.501379 S    
C38   C70   1.418188 A    
C3    H55   1.107643 S    
C58   C90   1.420673 A    
O11   P16   1.752693 S    
C22   C26   1.523570 S    
C1    H53   1.108555 S    
P9    O29   1.763602 S    
O26   Ba2   2.887429 S    
O6    Ba1   2.871413 S    
O21   C29   1.400289 S    
C97   H73   1.077784 S    
C70   C88   1.434404 A    
O9    Ba1   2.814450 S    
P12   O32   1.753157 S    
C66   C70   1.415336 A    
C3    H11   1.108445 S    
Ba3   O47   2.869703 S    
P5    C62   1.878132 S    
P5    O25   1.578719 D    
C105  H81   1.070366 S    
C46   H58   1.076453 S    
C43   C87   1.428432 A    
C48   C50   1.390591 A    
C63   C67   1.423937 A    
C20   H32   1.106661 S    
P1    O5    1.600984 S    
C106  H82   1.068082 S    
O17   C21   1.395605 S    
C82   C86   1.436693 A    
C4    C32   1.530133 S    
C14   C106  1.454420 S    
C24   H36   1.111331 S    
C72   C86   1.434995 A    
Ba2   O45   3.012464 S    
P7    Ba3   3.461662 S    
O42   C6    1.416852 S    
C74   C80   1.380635 A    
H3    C31   1.107460 S    
H4    C32   1.105030 S    
O12   Ba4   2.823273 S    
C68   C72   1.414788 A    
C109  H85   1.079435 S    
C101  O53   1.219907 D    
O38   C13   1.420365 S    
C21   H33   1.108311 S    
P8    Ba4   3.468551 S    
C42   C46   1.406666 A    
C2    H54   1.105440 S    
C23   H35   1.107767 S    
P8    C63   1.898929 S    
P5    O37   1.785797 S    
C13   C17   1.554586 S    
O10   Ba2   2.823273 S    
C8    H16   1.112292 S    
O20   C24   1.402113 S    
C33   C93   1.422359 A    
C94   H70   1.073023 S    
C28   H52   1.110024 S    
C19   Cl3   1.788002 S    
C62   C66   1.419057 A    
C16   C20   1.560530 S    
O4    Ba4   2.874866 S    
C98   O50   1.218353 D    
C20   Cl4   1.787481 S    
C104  O56   1.221508 D    
C51   H63   1.079376 S    
O18   C22   1.394893 S    
C21   H37   1.111546 S    
C107  H83   1.069008 S    
C75   C77   1.382084 A    
Ba1   O45   2.869703 S    
C12   H24   1.110467 S    
C9    H17   1.110964 S    
C11   H19   1.110805 S    
C65   C73   1.388191 A    
O14   P13   1.544986 D    
C8    C12   1.538563 S    
C2    C30   1.523608 S    
O10   P13   1.734080 S    
C3    C31   1.535229 S    
O12   P15   1.747150 S    
P1    O1    1.574583 D    
C36   C40   1.421465 A    
Ba4   O47   3.012464 S    
P16   C91   1.880809 S    
C27   H47   1.103460 S    
P6    O38   1.790855 S    
P3    O3    1.574583 D    
C28   H48   1.109667 S    
C31   C99   1.502834 S    
P4    O20   1.760658 S    
H2    C30   1.115396 S    
C74   H66   1.070961 S    
C14   C18   1.559957 S    
P11   C36   1.874247 S    
C103  O55   1.219919 D    
P1    Ba1   3.466985 S    
C81   C89   1.436019 A    
C26   H42   1.110814 S    
P3    Ba3   3.466985 S    
O23   P16   1.757672 S    
C16   C108  1.455325 S    
O41   C5    1.415355 S    
O21   P14   1.757441 S    
C42   C54   1.420818 A    
C64   C68   1.420134 A    
C9    H21   1.107385 S    
C30   C98   1.495710 S    
C67   C71   1.420347 A    
C112  O64   1.213000 D    
P4    C56   1.899418 S    
C99   O51   1.221823 D    
P9    O33   1.546742 D    
P10   O30   1.758972 S    
C84   C88   1.433951 A    
P7    C64   1.875548 S    
O22   C30   1.412050 S    
P11   O35   1.547133 D    
C60   C92   1.413748 A    
P12   O36   1.545587 D    
C111  H87   1.079296 S    
P13   C90   1.894876 S    
C25   H49   1.111031 S    
C100  H76   1.083481 S    
C10   H18   1.104037 S    
P7    O48   1.603659 S    
C80   Cl12  1.761888 S    
C1    H5    1.107553 S    
C36   C96   1.399614 A    
P8    O47   1.607102 S    
C11   Cl7   1.779093 S    
C15   C111  1.477500 S    
C3    H7    1.108440 S    
C83   C87   1.434695 A    
C37   C49   1.393306 A    
P6    O26   1.574431 D    
C45   C51   1.394550 A    
C57   Cl13  1.750240 S    
C16   C112  1.478704 S    
P8    O40   1.791790 S    
C45   H57   1.077846 S    
C5    C101  1.500517 S    
C33   C37   1.428279 A    
C4    H56   1.109267 S    
P2    Ba2   3.460287 S    
O23   C31   1.402123 S    
C24   H40   1.105996 S    
C18   Cl2   1.784937 S    
C78   Cl10  1.763207 S    
C19   H31   1.105926 S    
C10   H22   1.104031 S    
C13   C109  1.479023 S    
C1    H9    1.108668 S    
C62   C94   1.394327 A    
C18   H26   1.111407 S    
Ba1   Ba2   4.749341 S    
C7    C11   1.536366 S    
O1    Ba1   2.885025 S    
O3    Ba3   2.885025 S    
C40   C52   1.400168 A    
C44   C48   1.405562 A    
C102  H78   1.086002 S    
C6    H14   1.103358 S    
C10   Cl6   1.786005 S    
C40   C72   1.419763 A    
C79   C83   1.429076 A    
P1    O17   1.749384 S    
C107  O59   1.223961 D    
P3    O19   1.748358 S    
P4    O4    1.578876 D    
C60   Cl16  1.752771 S    
C37   C69   1.422826 A    
C110  H86   1.075145 S    
C106  O58   1.224130 D    
C108  H84   1.069763 S    
C57   C89   1.412686 A    
C21   C25   1.523309 S    
C23   C27   1.524180 S    
Ba2   O46   2.870176 S    
P3    C55   1.906786 S    
P1    C53   1.904543 S    
C80   C84   1.431821 A    
C65   C69   1.417732 A    
C35   C95   1.405667 A    
C101  H77   1.083532 S    
C42   C86   1.428025 A    
P12   C35   1.868788 S    
P4    Ba4   3.460287 S    
O2    Ba2   2.874866 S    
P2    O2    1.578876 D    
C6    C102  1.505915 S    
O9    P14   1.746738 S    
C28   H44   1.109667 S    
P7    O39   1.782560 S    
P10   C33   1.930253 S    
C53   C57   1.409505 A    
C8    C104  1.506607 S    
O11   Ba3   2.814450 S    
C4    H8    1.106415 S    
C56   C60   1.410753 A    
C81   C85   1.433567 A    
C78   C82   1.430124 A    
C97   O49   1.221827 D    
C59   Cl15  1.751308 S    
O22   P13   1.755908 S    
O32   Ba4   2.815010 S    
C48   H60   1.076140 S    
C67   C75   1.384246 A    
O16   P15   1.546354 D    
O44   C8    1.407762 S    
Ba4   O48   2.870176 S    
C22   H34   1.108096 S    
Ba3   O48   3.016194 S    
C76   C78   1.380397 A    
O37   C14   1.416647 S    
O24   C32   1.401105 S    
C105  O57   1.223833 D    
O39   C16   1.411214 S    
P10   O34   1.548883 D    
C35   C39   1.423743 A    
P9    C34   1.871552 S    
P11   O31   1.763414 S    
P2    O6    1.597585 S    
P6    C61   1.924722 S    
P7    O27   1.578719 D    
C6    C10   1.535660 S    
C25   H45   1.104230 S    
P8    O28   1.574431 D    
C26   H50   1.110990 S    
C2    H6    1.109476 S    
C83   C91   1.439997 A    
C99   H75   1.077268 S    
C38   C50   1.400940 A    
C41   C85   1.429575 A    
C95   H71   1.077205 S    
C58   Cl14  1.745203 S    
C50   H62   1.079288 S    
O43   C7    1.415045 S    
C75   H67   1.070251 S    
C61   C65   1.424333 A    
C109  O61   1.212920 D    
C96   H72   1.073487 S    
C34   C38   1.421181 A    
O19   C23   1.393780 S    
C22   H38   1.111440 S    
C29   C97   1.503008 S    
C24   C28   1.518502 S    
O28   Ba4   2.887429 S    
O8    Ba3   2.871413 S    
C17   H25   1.111962 S    
