data_mof_unit_15488.cif
_audit_creation_date              2013-03-05T16:14:48-0500
_audit_creation_method            fapswitch 2.2
_symmetry_space_group_name_H-M    P1
_symmetry_Int_Tables_number       1
_space_group_crystal_system       triclinic
_cell_length_a                    9.42074
_cell_length_b                    10.604206
_cell_length_c                    17.368889
_cell_angle_alpha                 90.278427
_cell_angle_beta                  86.24255
_cell_angle_gamma                 89.58527
_cell_volume                      1731.34282609

loop_
_atom_site_label
_atom_site_type_symbol
_atom_site_description
_atom_site_fract_x
_atom_site_fract_y
_atom_site_fract_z
_atom_type_partial_charge
O1    O     O_R   0.379130 0.683150 0.499960 -0.544801
O2    O     O_R   0.620870 0.316850 0.500040 -0.544798
O3    O     O_R   0.620910 0.683140 0.500000 -0.605516
O4    O     O_R   0.379090 0.316860 0.500000 -0.605517
C1    C     C_R   0.499504 0.740562 0.499784 0.772604
C2    C     C_R   0.500496 0.259438 0.500216 0.772603
O5    O     O_R   0.365090 0.500030 0.613580 -0.563566
O6    O     O_R   0.634910 0.499970 0.386420 -0.563570
O7    O     O_R   0.606870 0.500020 0.613610 -0.553911
O8    O     O_R   0.393130 0.499980 0.386390 -0.553912
C3    C     C_R   0.481723 0.498773 0.649534 0.832088
C4    C     C_R   0.518276 0.501227 0.350466 0.832086
Cu1   Cu    Cu3+1 0.356850 0.500010 0.499980 0.982187
Cu2   Cu    Cu3+1 0.643150 0.499990 0.500020 0.982187
C5    C     C_R   0.472741 0.498736 0.733595 -0.204180
C6    C     C_R   0.527258 0.501265 0.266405 -0.204177
C7    C     C_R   0.583106 0.445669 0.773948 0.426731
C8    C     C_R   0.416894 0.554333 0.226052 0.426727
C9    C     C_R   0.580759 0.460358 0.853397 -0.245578
C10   C     C_R   0.419242 0.539644 0.146603 -0.245580
C11   C     C_R   0.465670 0.520712 0.894121 -0.028758
C12   C     C_R   0.534331 0.479290 0.105879 -0.028757
C13   C     C_R   0.350142 0.567075 0.854373 0.363045
C14   C     C_R   0.649858 0.432926 0.145627 0.363046
C15   C     C_R   0.355845 0.556362 0.773959 -0.312550
C16   C     C_R   0.644155 0.443639 0.226041 -0.312557
C17   C     C_2   0.472715 0.543159 0.977065 -0.099394
C18   C     C_2   0.527286 0.456843 0.022935 -0.099396
H1    H     H_    0.730315 0.405336 0.257349 0.220100
H2    H     H_    0.269684 0.594664 0.742651 0.220105
H3    H     H_    0.567526 0.367478 0.999386 0.174142
H4    H     H_    0.432475 0.632525 0.000614 0.174142
H5    H     H_    0.328289 0.572893 0.117250 0.203872
H6    H     H_    0.671712 0.427110 0.882750 0.203872
C19   C     C_3   0.365134 0.960707 0.496976 -0.138150
C20   C     C_3   0.634865 0.039293 0.503024 -0.138148
C21   C     C_3   0.445732 0.042468 0.435291 -0.176577
C22   C     C_3   0.554268 0.957532 0.564710 -0.176583
H7    H     H_    0.401502 0.080769 0.382436 0.128557
H8    H     H_    0.598497 0.919231 0.617564 0.128560
H9    H     H_    0.254773 0.925892 0.494025 0.153592
H10   H     H_    0.745226 0.074109 0.505976 0.153594
C23   C     C_3   0.501526 0.122488 0.500269 0.039792
C24   C     C_3   0.498473 0.877512 0.499732 0.039786
C25   C     C_3   0.421063 0.043046 0.561982 -0.176631
C26   C     C_3   0.578937 0.956954 0.438018 -0.176627
H11   H     H_    0.356934 0.081735 0.612705 0.126353
H12   H     H_    0.643066 0.918266 0.387296 0.126356
C27   C     C_3   0.956362 0.406594 0.461706 0.605557
C28   C     C_3   0.043638 0.593406 0.538294 0.605562
C29   C     C_3   0.048047 0.397205 0.530999 -0.207663
C30   C     C_3   0.951952 0.602795 0.469001 -0.207687
H13   H     H_    0.093232 0.311386 0.556743 0.137573
H14   H     H_    0.906767 0.688613 0.443256 0.137569
N1    N     N_3   0.141720 0.500030 0.499940 -0.191909
N2    N     N_3   0.858280 0.499970 0.500060 -0.191909
C31   C     C_3   0.058869 0.507682 0.429934 -0.190854
C32   C     C_3   0.941131 0.492318 0.570066 -0.190821
H15   H     H_    0.112271 0.512713 0.371237 0.198042
H16   H     H_    0.887730 0.487291 0.628764 0.198048
O9    O     O_3   0.699326 0.387265 0.735838 -0.570773
C33   C     C_3   0.666610 0.259167 0.724027 0.098227
H17   H     H_    0.567367 0.248562 0.693013 0.115790
H18   H     H_    0.654254 0.209076 0.780261 0.152444
C34   C     C_3   0.787554 0.197073 0.674976 -0.786950
H19   H     H_    0.888746 0.205387 0.703946 0.252754
H20   H     H_    0.764081 0.095739 0.666508 0.189125
H21   H     H_    0.799697 0.243101 0.617674 0.257503
O10   O     O_3   0.300674 0.612736 0.264163 -0.570777
C35   C     C_3   0.333388 0.740834 0.275972 0.098229
H22   H     H_    0.345745 0.790924 0.219738 0.152442
H23   H     H_    0.432631 0.751441 0.306987 0.115792
C36   C     C_3   0.212442 0.802929 0.325022 -0.786956
H24   H     H_    0.200300 0.756902 0.382326 0.257498
H25   H     H_    0.235913 0.904263 0.333489 0.189128
H26   H     H_    0.111251 0.794611 0.296053 0.252756
O11   O     O_3   0.899594 0.306824 0.419678 -0.563601
C37   C     C_3   0.010608 0.225939 0.391179 0.014136
H27   H     H_    0.061058 0.178101 0.439482 0.134440
H28   H     H_    0.092967 0.278420 0.355558 0.160663
C38   C     C_3   0.949938 0.125397 0.340221 -0.736692
H29   H     H_    0.895967 0.170410 0.292319 0.281306
H30   H     H_    0.037026 0.063498 0.315472 0.201636
H31   H     H_    0.872100 0.066878 0.374577 0.228016
O12   O     O_3   0.100406 0.693171 0.580326 -0.563592
C39   C     C_3   0.989400 0.774089 0.608794 0.014107
H32   H     H_    0.906976 0.721632 0.644383 0.160648
H33   H     H_    0.939036 0.821957 0.560475 0.134440
C40   C     C_3   0.050055 0.874595 0.659783 -0.736694
H34   H     H_    0.127970 0.933082 0.625460 0.228046
H35   H     H_    0.962973 0.936529 0.684501 0.201622
H36   H     H_    0.103930 0.829549 0.707707 0.281323
N3    N     N_R   0.226991 0.624200 0.894348 0.128104
O13   O     O_R   0.178445 0.581649 0.961056 -0.321601
O14   O     O_R   0.152307 0.708076 0.859959 -0.358722
N4    N     N_R   0.773009 0.375801 0.105652 0.128103
O15   O     O_R   0.821555 0.418351 0.038944 -0.321601
O16   O     O_R   0.847693 0.291925 0.140041 -0.358717

loop_
_geom_bond_atom_site_label_1
_geom_bond_atom_site_label_2
_geom_bond_distance
_ccdc_geom_bond_type
Cu2   N2    2.026728 S    
N3    O13   1.301473 A    
C36   H24   1.110195 S    
C20   H10   1.110061 S    
C38   H29   1.111034 S    
O11   C37   1.410500 S    
O5    C3    1.298945 A    
O1    C1    1.290812 A    
C9    C11   1.403747 A    
C14   C16   1.398259 A    
O10   C35   1.412050 S    
C14   N4    1.440554 S    
C37   H28   1.114084 S    
C5    C15   1.400921 A    
C32   H16   1.108620 S    
C27   C31   1.528747 S    
O4    Cu1   1.951925 S    
C22   C25   1.546290 S    
C33   H18   1.113876 S    
C28   O12   1.410699 S    
C7    O9    1.382640 S    
C3    C5    1.456950 S    
C4    C6    1.456950 S    
C30   H14   1.110222 S    
C34   H20   1.109674 S    
N4    O16   1.301557 A    
C28   C30   1.529923 S    
C20   C26   1.545913 S    
C35   H22   1.113876 S    
N2    C32   1.489527 S    
C40   H35   1.109941 S    
C29   N1    1.488606 S    
C8    O10   1.382640 S    
C11   C17   1.464911 S    
N3    O14   1.301557 A    
C12   C18   1.464913 S    
Cu1   Cu2   2.697201 S    
C36   H25   1.109675 S    
O2    C2    1.290812 A    
C19   H9    1.110062 S    
C38   H30   1.109945 S    
C24   C26   1.531261 S    
C25   H11   1.110224 S    
C6    C16   1.400920 A    
C26   H12   1.110224 S    
C39   H33   1.113535 S    
C28   C32   1.528745 S    
O4    C2    1.292060 A    
C37   H27   1.113547 S    
C27   C29   1.529921 S    
O12   C39   1.410497 S    
O8    Cu1   1.980122 S    
C13   N3    1.440555 S    
C39   C40   1.520756 S    
C29   H13   1.110223 S    
C21   C23   1.531321 S    
O7    Cu2   1.980124 S    
C22   C24   1.531322 S    
C33   H17   1.115304 S    
C23   C25   1.531261 S    
O6    C4    1.298943 A    
C34   H21   1.110194 S    
N4    O15   1.301472 A    
C35   C36   1.521207 S    
C29   C32   1.543139 S    
C40   H36   1.111022 S    
C19   C24   1.533218 S    
O7    C3    1.297446 A    
O3    Cu2   1.951924 S    
O8    C4    1.297445 A    
C10   H5    1.083069 S    
C1    C24   1.452216 S    
C10   C12   1.403748 A    
C2    C23   1.452214 S    
N1    C31   1.489530 S    
C36   H26   1.110580 S    
C12   C14   1.413111 A    
O1    Cu1   1.954873 S    
C19   C25   1.545913 S    
C38   H31   1.109825 S    
C15   H2    1.083852 S    
C5    C7    1.407053 A    
O6    Cu2   1.979708 S    
C33   C34   1.521206 S    
C19   C21   1.545337 S    
C17   H4    1.086164 S    
C39   H32   1.114078 S    
C18   H3    1.086164 S    
O3    C1    1.292062 A    
C9    H6    1.083069 S    
C27   N2    1.475698 S    
C28   N1    1.475693 S    
C11   C13   1.413111 A    
C40   H34   1.109810 S    
C21   H7    1.110255 S    
C22   H8    1.110255 S    
C37   C38   1.520757 S    
C20   C22   1.545336 S    
C7    C9    1.386672 A    
C27   O11   1.410700 S    
C8    C10   1.386671 A    
C13   C15   1.398259 A    
O9    C33   1.412049 S    
O2    Cu2   1.954873 S    
C31   H15   1.108619 S    
C30   C31   1.543141 S    
O5    Cu1   1.979708 S    
C16   H1    1.083852 S    
C6    C8    1.407054 A    
C34   H19   1.110581 S    
C17   C18   1.338210 D    
C20   C23   1.533217 S    
C35   H23   1.115305 S    
C21   C26   1.546291 S    
C30   N2    1.488607 S    
Cu1   N1    2.026728 S    
