data_mof_unit_59190.cif
_audit_creation_date              2013-03-05T15:47:15-0500
_audit_creation_method            fapswitch 2.2
_symmetry_space_group_name_H-M    P1
_symmetry_Int_Tables_number       1
_space_group_crystal_system       triclinic
_cell_length_a                    27.405003
_cell_length_b                    11.07106
_cell_length_c                    9.962256
_cell_angle_alpha                 109.877293
_cell_angle_beta                  98.398158
_cell_angle_gamma                 93.249378
_cell_volume                      2793.58663613

loop_
_atom_site_label
_atom_site_type_symbol
_atom_site_description
_atom_site_fract_x
_atom_site_fract_y
_atom_site_fract_z
_atom_type_partial_charge
O1    O     O_R   0.504520 0.332330 0.577400 -0.578299
O2    O     O_R   0.495480 0.667670 0.422600 -0.560467
O3    O     O_R   0.490210 0.295500 0.332650 -0.563855
O4    O     O_R   0.509790 0.704500 0.667350 -0.572087
C1    C     C_R   0.496678 0.255255 0.442801 0.844749
C2    C     C_R   0.500110 0.743485 0.557679 0.844995
O5    O     O_R   0.437420 0.518430 0.622370 -0.605269
O6    O     O_R   0.562580 0.481570 0.377630 -0.594521
O7    O     O_R   0.423110 0.481600 0.377610 -0.593123
O8    O     O_R   0.576890 0.518400 0.622390 -0.583788
C3    C     C_R   0.407489 0.499830 0.500197 0.834712
C4    C     C_R   0.592769 0.501059 0.499355 0.816075
Cu1   Cu    Cu3+1 0.508480 0.521810 0.644910 0.945745
Cu2   Cu    Cu3+1 0.491520 0.478190 0.355090 0.953867
C5    C     C_R   0.174456 0.522995 0.308312 0.564454
C6    C     C_R   0.822834 0.635912 0.474168 0.545265
O9    O     O_2   0.192591 0.461193 0.187568 -0.524366
O10   O     O_2   0.795673 0.736079 0.488711 -0.525897
N1    N     N_R   0.205517 0.607261 0.427897 -0.441720
N2    N     N_R   0.799749 0.517030 0.456102 -0.453303
C7    C     C_R   0.185963 0.717889 0.499947 0.638718
C8    C     C_R   0.824348 0.409367 0.420870 0.627784
C9    C     C_R   0.293463 0.663344 0.579056 0.174586
C10   C     C_R   0.711809 0.434303 0.350805 0.195371
C11   C     C_R   0.342670 0.634832 0.588995 -0.390819
C12   C     C_R   0.661625 0.429200 0.364280 -0.360279
C13   C     C_R   0.317083 0.415760 0.426478 0.431612
C14   C     C_R   0.682827 0.576712 0.612519 0.436520
C15   C     C_R   0.267117 0.442248 0.416564 0.090567
C16   C     C_R   0.733491 0.571234 0.605327 0.074527
C17   C     C_R   0.255298 0.573427 0.472789 0.173668
C18   C     C_R   0.748242 0.505374 0.471548 0.238880
C19   C     C_R   0.104197 0.598251 0.419480 -0.162600
C20   C     C_R   0.900010 0.542749 0.438068 -0.173918
C21   C     C_R   0.123690 0.503197 0.312786 0.011331
C22   C     C_R   0.874424 0.653562 0.477193 0.023810
C23   C     C_R   0.092722 0.391126 0.219489 0.135227
C24   C     C_R   0.901126 0.777405 0.516271 0.147931
C25   C     C_R   0.134985 0.711712 0.509567 -0.211026
C26   C     C_R   0.874205 0.418518 0.400985 -0.186788
C27   C     C_R   0.354927 0.516321 0.503684 -0.172326
C28   C     C_R   0.646511 0.500603 0.494038 -0.212002
C29   C     C_R   0.975406 0.446061 0.373802 -0.094292
C30   C     C_R   0.031501 0.690370 0.511086 -0.123365
C31   C     C_R   0.978771 0.680300 0.491626 0.081229
C32   C     C_R   0.024233 0.464939 0.347744 0.095416
C33   C     C_R   0.951357 0.556266 0.434138 0.002378
C34   C     C_R   0.053370 0.584397 0.427111 0.002764
C35   C     C_R   0.950266 0.322231 0.344246 0.307744
C36   C     C_R   0.063126 0.800945 0.610572 0.322401
C37   C     C_R   0.899014 0.307759 0.347847 0.385776
C38   C     C_R   0.114370 0.812779 0.607089 0.393527
O11   O     O_2   0.800674 0.294484 0.407142 -0.491670
O12   O     O_2   0.212895 0.834018 0.543445 -0.498400
C39   C     C_R   0.043898 0.371467 0.240263 -0.221651
C40   C     C_R   0.952664 0.789374 0.524683 -0.247447
H1    H     H_    0.634104 0.372447 0.271585 0.194035
H2    H     H_    0.371770 0.707529 0.662666 0.173679
H3    H     H_    0.021022 0.285020 0.166354 0.184908
H4    H     H_    0.971636 0.885281 0.552816 0.185212
C41   C     C_2   0.492230 0.117223 0.415746 -0.460156
C42   C     C_2   0.496340 0.879830 0.589741 -0.426318
C43   C     C_2   0.493106 0.069643 0.524202 0.356744
C44   C     C_2   0.480632 0.930095 0.488367 0.404744
H5    H     H_    0.507958 0.940987 0.701813 0.146778
H6    H     H_    0.485271 0.052709 0.303338 0.156372
N3    N     N_2   0.478780 0.445430 0.137360 -0.048388
N4    N     N_2   0.521220 0.554570 0.862640 -0.044738
C45   C     C_2   0.501988 0.520206 0.083693 0.348877
C46   C     C_2   0.493599 0.494300 0.922900 0.384043
O13   O     O_3   0.329255 0.293537 0.352459 -0.629534
C47   C     C_3   0.320933 0.207596 0.427080 0.032619
H7    H     H_    0.316438 0.107565 0.346940 0.168270
H8    H     H_    0.286568 0.219103 0.474924 0.187414
C48   C     C_3   0.364972 0.221487 0.546289 -0.386162
H9    H     H_    0.399230 0.205518 0.498740 0.221516
H10   H     H_    0.369111 0.320667 0.626870 0.216607
C49   C     C_3   0.357272 0.126768 0.624362 -0.904394
H11   H     H_    0.325573 0.149245 0.683172 0.259939
H12   H     H_    0.391286 0.135331 0.703646 0.275878
H13   H     H_    0.349999 0.025851 0.546925 0.256684
O14   O     O_3   0.669456 0.670519 0.728517 -0.616478
C50   C     C_3   0.666598 0.785926 0.696863 0.033122
H14   H     H_    0.626996 0.794826 0.661247 0.121205
H15   H     H_    0.687153 0.789682 0.608820 0.165502
C51   C     C_3   0.687865 0.902032 0.833188 -0.329573
H16   H     H_    0.662967 0.914392 0.914333 0.197355
H17   H     H_    0.724970 0.885292 0.881072 0.242081
C52   C     C_3   0.693438 0.025185 0.797903 -0.919194
H18   H     H_    0.720272 0.016815 0.722678 0.274633
H19   H     H_    0.707324 0.108785 0.899155 0.260949
H20   H     H_    0.657218 0.042011 0.745418 0.256595
N5    N     N_3   0.449568 0.411239 0.841057 -0.598782
H21   H     H_    0.421870 0.467970 0.824236 0.210288
H22   H     H_    0.455858 0.344296 0.745531 0.292141
N6    N     N_3   0.532041 0.636854 0.176682 -0.588056
H23   H     H_    0.557226 0.624497 0.258039 0.244871
H24   H     H_    0.509805 0.709428 0.213375 0.296091
O15   O     O_3   0.538499 0.677435 0.948479 -0.531522
C53   C     C_3   0.588871 0.702794 0.941500 0.229546
H25   H     H_    0.601547 0.802003 0.020303 0.119640
H26   H     H_    0.592550 0.707987 0.834963 0.189069
C54   C     C_3   0.622227 0.607646 0.981625 -0.377177
H27   H     H_    0.605702 0.566153 0.053447 0.215418
H28   H     H_    0.625442 0.526333 0.881735 0.228356
C55   C     C_3   0.674061 0.673057 0.061306 -0.829174
H29   H     H_    0.692294 0.720724 0.997363 0.291647
H30   H     H_    0.697404 0.599801 0.080318 0.254646
H31   H     H_    0.671675 0.746579 0.167967 0.248913
O16   O     O_3   0.472557 0.319317 0.051868 -0.528230
C56   C     C_3   0.424838 0.265569 0.053247 0.214980
H32   H     H_    0.396825 0.292472 0.978929 0.132789
H33   H     H_    0.414677 0.298775 0.162332 0.197206
C57   C     C_3   0.423514 0.118290 0.001570 -0.378596
H34   H     H_    0.433557 0.081609 0.891897 0.227818
H35   H     H_    0.451428 0.091538 0.076095 0.229058
C58   C     C_3   0.372391 0.053327 0.997318 -0.959518
H36   H     H_    0.362787 0.084698 0.107696 0.277330
H37   H     H_    0.372657 0.946756 0.957691 0.252991
H38   H     H_    0.343703 0.078084 0.922999 0.268257
N7    N     N_3   0.229687 0.332812 0.368263 -0.608437
H39   H     H_    0.222275 0.291019 0.255373 0.291634
H40   H     H_    0.197929 0.353745 0.414492 0.218630
N8    N     N_3   0.769173 0.635715 0.734962 -0.565638
H41   H     H_    0.788352 0.715847 0.725868 0.245866
H42   H     H_    0.794489 0.571578 0.747702 0.217002
N9    N     N_3   0.111309 0.292960 0.109630 -0.542996
H43   H     H_    0.088650 0.277327 0.009896 0.222996
H44   H     H_    0.108312 0.207316 0.131796 0.209207
N10   N     N_3   0.876757 0.892541 0.552777 -0.512038
H45   H     H_    0.892427 0.951727 0.658735 0.201209
H46   H     H_    0.884045 0.941630 0.483540 0.232511
N11   N     N_3   0.725917 0.368858 0.213822 -0.575615
H47   H     H_    0.713866 0.270419 0.182717 0.228046
H48   H     H_    0.707358 0.403310 0.137334 0.216177
N12   N     N_3   0.283153 0.777285 0.687588 -0.540792
H49   H     H_    0.293853 0.769362 0.789138 0.201829
H50   H     H_    0.305018 0.856601 0.684501 0.243163
O17   O     O_3   0.873581 0.184837 0.304606 -0.563374
C59   C     C_3   0.869182 0.121535 0.152585 0.096822
H51   H     H_    0.859095 0.016685 0.127934 0.164905
H52   H     H_    0.904731 0.129693 0.113165 0.151824
C60   C     C_3   0.828296 0.170208 0.068051 -0.365986
H53   H     H_    0.791880 0.149205 0.096817 0.251374
H54   H     H_    0.835939 0.276380 0.096583 0.219074
C61   C     C_3   0.825725 0.105685 0.904882 -0.900534
H55   H     H_    0.862329 0.122183 0.874776 0.250182
H56   H     H_    0.798102 0.148314 0.846681 0.271993
H57   H     H_    0.814597 0.000063 0.870502 0.267548
O18   O     O_3   0.143129 0.927745 0.693069 -0.552839
C62   C     C_3   0.168447 0.914578 0.820768 0.114362
H58   H     H_    0.186338 0.823388 0.797674 0.136827
H59   H     H_    0.142252 0.916073 0.896077 0.127344
C63   C     C_3   0.208726 0.029023 0.895928 -0.276633
H60   H     H_    0.235030 0.030893 0.821437 0.247580
H61   H     H_    0.191277 0.120627 0.922745 0.238123
C64   C     C_3   0.237566 0.020659 0.035073 -0.953612
H62   H     H_    0.212185 0.020515 0.112380 0.263715
H63   H     H_    0.266134 0.105609 0.086885 0.284599
H64   H     H_    0.256464 0.931456 0.010684 0.260548
O19   O     O_3   0.975855 0.214394 0.314930 -0.641941
C65   C     C_3   0.985860 0.178834 0.439165 0.081564
H65   H     H_    0.986499 0.072319 0.400673 0.164760
H66   H     H_    0.956702 0.199891 0.508721 0.144767
C66   C     C_3   0.036769 0.243716 0.529059 -0.391867
H67   H     H_    0.065090 0.227479 0.457306 0.241110
H68   H     H_    0.035436 0.349514 0.578917 0.214548
C67   C     C_3   0.052184 0.189671 0.648909 -0.839198
H69   H     H_    0.024177 0.203227 0.721400 0.242349
H70   H     H_    0.088512 0.240872 0.714399 0.265416
H71   H     H_    0.056085 0.085124 0.600855 0.294416
O20   O     O_3   0.045294 0.898165 0.714714 -0.612914
C68   C     C_3   0.032187 0.851775 0.822286 0.056107
H72   H     H_    0.065558 0.829113 0.883079 0.123849
H73   H     H_    0.005325 0.762709 0.775168 0.149790
C69   C     C_3   0.007927 0.955345 0.927798 -0.321271
H74   H     H_    0.034346 0.044876 0.979238 0.217680
H75   H     H_    0.974479 0.978198 0.867272 0.210279
C70   C     C_3   0.992561 0.909728 0.045459 -0.916940
H76   H     H_    0.966731 0.818961 0.996185 0.251344
H77   H     H_    0.973239 0.984430 0.116583 0.279445
H78   H     H_    0.025761 0.893018 0.112570 0.259970
O21   O     O_3   0.460908 0.850588 0.347162 -0.625736
C71   C     C_3   0.410981 0.869760 0.308002 0.014161
H79   H     H_    0.404680 0.855690 0.190664 0.175066
H80   H     H_    0.401954 0.968961 0.365234 0.135048
C72   C     C_3   0.375960 0.769485 0.331997 -0.336976
H81   H     H_    0.386974 0.671466 0.280697 0.250514
H82   H     H_    0.379135 0.790189 0.450200 0.210320
C73   C     C_3   0.322108 0.771505 0.267119 -0.871601
H83   H     H_    0.309602 0.867553 0.318073 0.253840
H84   H     H_    0.297889 0.697359 0.286211 0.282746
H85   H     H_    0.318131 0.749293 0.148335 0.246842
O22   O     O_3   0.503750 0.148631 0.669878 -0.613898
C74   C     C_3   0.555900 0.175949 0.719516 0.088101
H86   H     H_    0.566937 0.279128 0.737831 0.196467
H87   H     H_    0.578512 0.117642 0.641552 0.093030
C75   C     C_3   0.569174 0.153323 0.863517 -0.346047
H88   H     H_    0.536883 0.163983 0.920695 0.275272
H89   H     H_    0.579102 0.053371 0.841880 0.186960
C76   C     C_3   0.612903 0.247280 0.963661 -0.941547
H90   H     H_    0.642831 0.258418 0.903342 0.254071
H91   H     H_    0.627931 0.209620 0.049257 0.255516
H92   H     H_    0.600370 0.343152 0.014894 0.258814

loop_
_geom_bond_atom_site_label_1
_geom_bond_atom_site_label_2
_geom_bond_distance
_ccdc_geom_bond_type
C10   N11   1.431871 S    
C60   C61   1.526049 S    
C64   H62   1.110921 S    
C74   H87   1.117569 S    
C39   H3    1.081243 S    
C13   C15   1.412961 A    
C76   H90   1.109892 S    
C56   H32   1.111780 S    
C59   C60   1.535082 S    
O7    Cu2   1.921369 S    
C45   N6    1.430847 S    
N1    C17   1.481596 S    
N9    H44   1.045647 S    
C57   H34   1.110500 S    
C31   C33   1.414444 A    
C66   H67   1.111819 S    
C68   H72   1.110694 S    
O20   C68   1.416704 S    
O5    C3    1.309736 A    
O22   C74   1.421775 S    
C19   C25   1.409712 A    
C9    N12   1.429092 S    
O1    C1    1.299732 A    
C24   N10   1.433623 S    
N1    C7    1.375291 A    
C59   H52   1.112372 S    
C61   H55   1.110836 S    
C58   H37   1.110422 S    
C7    O12   1.343744 S    
C49   H12   1.107129 S    
C55   H29   1.107090 S    
C60   H53   1.111178 S    
C65   C66   1.532469 S    
C71   H79   1.111167 S    
C60   H54   1.110773 S    
C62   C63   1.529491 S    
C14   C28   1.406834 A    
O4    Cu1   1.955509 S    
C41   C43   1.351416 D    
O16   C56   1.409637 S    
C72   C73   1.526815 S    
C42   C44   1.340614 D    
C73   H85   1.110895 S    
C5    N1    1.368275 A    
C44   O21   1.388449 S    
C41   H6    1.085742 S    
C54   H28   1.110791 S    
C67   H71   1.110162 S    
C50   H14   1.112144 S    
C31   C40   1.405314 A    
C73   H84   1.109874 S    
C35   C37   1.411688 A    
N6    H24   1.035078 S    
C32   C39   1.409297 A    
C4    C28   1.481690 S    
Cu2   N3    2.046416 S    
C24   C40   1.398613 A    
C38   O18   1.386567 S    
C75   H88   1.111244 S    
C52   H19   1.109955 S    
C61   H56   1.109228 S    
C6    N2    1.369726 A    
C47   H7    1.110667 S    
C70   H78   1.111109 S    
C67   H70   1.110394 S    
C25   C38   1.416971 A    
C62   H58   1.115196 S    
C63   H61   1.112008 S    
C66   H68   1.111077 S    
Cu1   Cu2   2.723954 S    
C19   C34   1.408625 A    
C76   H91   1.108713 S    
C56   C57   1.530357 S    
O2    C2    1.304400 A    
C47   C48   1.525349 S    
C5    C21   1.405597 A    
C48   C49   1.525322 S    
O19   C65   1.416479 S    
C8    O11   1.348915 S    
C65   H66   1.116257 S    
C68   H73   1.112020 S    
C75   H89   1.110885 S    
C32   C34   1.413023 A    
N7    H40   1.044359 S    
C14   O14   1.378030 S    
C46   N5    1.429477 S    
C59   H51   1.110910 S    
C63   C64   1.526544 S    
C47   H8    1.110747 S    
C58   H38   1.110769 S    
C11   C27   1.389845 A    
C51   H16   1.110973 S    
C29   C35   1.414205 A    
C74   H86   1.110228 S    
O8    Cu1   1.921374 S    
C53   C54   1.547182 S    
C40   H4    1.081091 S    
C15   N7    1.438795 S    
N3    C45   1.310073 D    
C9    C17   1.430930 A    
C12   H1    1.079192 S    
N10   H46   1.045879 S    
C48   H9    1.108522 S    
C10   C18   1.406928 A    
O21   C71   1.415142 S    
C61   H57   1.111034 S    
O7    C3    1.307803 A    
C13   C27   1.400170 A    
N3    O16   1.351224 S    
C36   C38   1.409621 A    
O15   C53   1.409502 S    
C7    C25   1.413613 A    
O5    Cu1   1.924183 S    
O6    C4    1.307805 A    
C8    C26   1.411864 A    
N6    H23   1.036683 S    
C50   C51   1.527472 S    
C75   C76   1.522267 S    
C53   H26   1.100915 S    
C63   H60   1.111672 S    
C43   O22   1.392982 S    
C1    C41   1.453267 S    
C56   H33   1.105439 S    
N5    H21   1.042688 S    
C52   H20   1.108587 S    
C48   H10   1.105817 S    
N7    H39   1.043516 S    
O3    Cu2   1.955508 S    
O8    C4    1.316755 A    
N12   H50   1.046504 S    
C69   H74   1.110924 S    
C50   H15   1.120192 S    
C16   N8    1.434835 S    
C64   H64   1.110908 S    
N11   H47   1.045209 S    
C76   H92   1.108692 S    
C20   C26   1.412851 A    
O4    C2    1.303595 A    
C73   H83   1.109483 S    
C11   H2    1.084893 S    
N9    H43   1.045665 S    
C13   O13   1.389435 S    
C30   C31   1.422459 A    
C12   C28   1.402182 A    
N8    H42   1.045488 S    
C65   H65   1.111193 S    
N2    C18   1.445359 S    
C68   C69   1.527302 S    
C30   C36   1.426825 A    
C5    O9    1.347445 S    
C67   H69   1.111035 S    
O6    Cu2   1.924183 S    
C42   H5    1.078897 S    
C21   C23   1.410531 A    
C49   H11   1.110799 S    
C35   O19   1.385644 S    
C6    O10   1.349327 S    
C10   C12   1.401038 A    
N2    C8    1.368973 A    
N12   H49   1.045821 S    
O3    C1    1.311010 A    
C51   C52   1.524415 S    
C57   H35   1.110615 S    
O17   C59   1.419384 S    
C70   H76   1.110976 S    
C66   C67   1.526168 S    
C26   C37   1.415749 A    
C71   C72   1.528861 S    
C69   C70   1.526107 S    
C14   C16   1.404370 A    
N10   H45   1.045652 S    
N4    O15   1.350364 S    
O13   C47   1.419797 S    
C15   C17   1.442546 A    
C58   H36   1.110962 S    
C6    C22   1.410740 A    
C22   C24   1.416684 A    
C16   C18   1.414650 A    
C49   H13   1.107633 S    
C2    C42   1.445921 S    
N5    H22   1.033148 S    
C55   H30   1.109400 S    
C69   H75   1.111939 S    
C53   H25   1.110892 S    
C19   C21   1.411225 A    
C20   C22   1.414500 A    
C71   H80   1.112945 S    
C3    C27   1.466143 S    
C54   C55   1.528236 S    
C51   H17   1.111624 S    
C62   H59   1.108479 S    
C45   C46   1.507849 S    
O2    Cu2   1.964209 S    
C29   C32   1.417111 A    
C72   H82   1.109526 S    
C57   C58   1.526321 S    
C43   C44   1.469892 S    
C23   C39   1.399658 A    
C74   C75   1.534716 S    
C72   H81   1.111292 S    
C9    C11   1.399428 A    
O1    Cu1   1.964209 S    
C64   H63   1.110082 S    
O14   C50   1.419910 S    
C54   H27   1.105729 S    
N11   H48   1.044623 S    
N4    C46   1.313949 D    
O18   C62   1.414499 S    
C36   O20   1.386378 S    
C20   C33   1.414319 A    
C70   H77   1.107771 S    
C52   H18   1.110169 S    
C29   C33   1.411542 A    
C55   H31   1.110892 S    
C30   C34   1.412180 A    
N8    H41   1.042697 S    
C23   N9    1.433587 S    
Cu1   N4    2.046418 S    
C37   O17   1.389058 S    
