data_mof_unit_26891.cif
_audit_creation_date              2012-12-10T17:27:09-0500
_audit_creation_method            fapswitch 2.2
_symmetry_space_group_name_H-M    P1
_symmetry_Int_Tables_number       1
_space_group_crystal_system       triclinic
_cell_length_a                    18.009725
_cell_length_b                    18.332932
_cell_length_c                    12.154455
_cell_angle_alpha                 89.621904
_cell_angle_beta                  83.680106
_cell_angle_gamma                 90.162663
_cell_volume                      3988.54869872

loop_
_atom_site_label
_atom_site_type_symbol
_atom_type_description
_atom_site_fract_x
_atom_site_fract_y
_atom_site_fract_z
_atom_type_partial_charge
C1    C     C_R   0.401215 0.101042 0.522309 0.901989
C2    C     C_R   0.536104 0.000697 0.017860 -0.054012
C3    C     C_R   0.963915 0.499386 0.982132 -0.053928
C4    C     C_R   0.036128 0.500668 0.017867 -0.054899
C5    C     C_R   0.589236 0.003597 0.823567 -0.006206
C6    C     C_R   0.410768 0.996298 0.176447 -0.010307
C7    C     C_R   0.089238 0.503651 0.823556 -0.009524
C8    C     C_R   0.910749 0.496808 0.176420 -0.007073
C9    C     C_R   0.599523 0.999374 0.936846 -0.114930
C10   C     C_R   0.400490 0.000342 0.063164 -0.114291
C11   C     C_R   0.099539 0.499348 0.936820 -0.116729
C12   C     C_R   0.598787 0.899295 0.477911 0.968634
C13   C     C_R   0.900497 0.501063 0.063124 -0.117796
C14   C     C_R   0.457349 0.995161 0.866624 0.555918
C15   C     C_R   0.542646 0.004641 0.133373 0.556583
C16   C     C_R   0.957351 0.495322 0.866630 0.560273
C17   C     C_R   0.042687 0.504369 0.133404 0.558316
C18   C     C_R   0.653928 0.158048 0.460231 -0.216590
C19   C     C_R   0.340735 0.848021 0.538788 -0.181501
C20   C     C_R   0.345274 0.157148 0.537898 -0.241124
C21   C     C_R   0.656806 0.845795 0.463497 -0.204427
C22   C     C_R   0.153133 0.659232 0.460534 -0.215957
C23   C     C_R   0.598723 0.101109 0.477218 0.914202
C24   C     C_R   0.841487 0.347061 0.538143 -0.170805
C25   C     C_R   0.844191 0.655126 0.536998 -0.230045
C26   C     C_R   0.158652 0.347951 0.463107 -0.188481
C27   C     C_R   0.208518 0.830879 0.594005 0.414482
C28   C     C_R   0.775255 0.195658 0.375003 0.333182
C29   C     C_R   0.786903 0.826068 0.403058 0.402670
C30   C     C_R   0.221224 0.188869 0.618246 0.340981
C31   C     C_R   0.709469 0.329570 0.593426 0.413103
C32   C     C_R   0.273649 0.698654 0.374092 0.328967
C33   C     C_R   0.290628 0.331024 0.409931 0.419771
C34   C     C_R   0.400878 0.899431 0.522726 1.030971
C35   C     C_R   0.714294 0.675072 0.596840 0.401913
C36   C     C_R   0.274734 0.870538 0.600572 0.289167
C37   C     C_R   0.714512 0.147667 0.379605 0.361029
C38   C     C_R   0.720440 0.863365 0.392067 0.317449
C39   C     C_R   0.286320 0.147662 0.621747 0.375185
C40   C     C_R   0.775867 0.368314 0.601846 0.286297
C41   C     C_R   0.212747 0.650854 0.377473 0.366440
C42   C     C_R   0.225100 0.371048 0.402750 0.279772
C43   C     C_R   0.780659 0.638149 0.608819 0.339911
C44   C     C_R   0.344076 0.784837 0.474289 -0.078571
C45   C     C_R   0.901554 0.601001 0.522122 0.901613
C46   C     C_R   0.649853 0.217828 0.532388 -0.150857
C47   C     C_R   0.654655 0.786371 0.537120 -0.149523
C48   C     C_R   0.347708 0.216177 0.463336 -0.167928
C49   C     C_R   0.844739 0.284637 0.471968 -0.079164
C50   C     C_R   0.149497 0.718154 0.534544 -0.151615
C51   C     C_R   0.153828 0.283342 0.525701 -0.115007
C52   C     C_R   0.846954 0.714864 0.463967 -0.172900
C53   C     C_R   0.277200 0.748503 0.461266 -0.073000
C54   C     C_R   0.711962 0.264833 0.530293 -0.006741
C55   C     C_R   0.717137 0.740418 0.533832 -0.040590
C56   C     C_R   0.098747 0.399245 0.477907 1.049846
C57   C     C_R   0.286518 0.264020 0.468863 -0.013989
C58   C     C_R   0.778173 0.247262 0.460199 -0.077513
C59   C     C_R   0.211237 0.765710 0.531818 -0.008507
C60   C     C_R   0.219702 0.244562 0.537079 -0.105137
C61   C     C_R   0.784273 0.760680 0.466137 -0.037958
C62   C     C_2   0.344707 0.991898 0.259553 0.472492
C63   C     C_2   0.655289 0.007922 0.740461 0.478819
C64   C     C_2   0.844679 0.492776 0.259531 0.473506
C65   C     C_2   0.155287 0.508219 0.740455 0.475601
C66   C     C_2   0.582640 0.225487 0.614753 0.692483
C67   C     C_R   0.098534 0.601448 0.477287 0.910297
C68   C     C_2   0.417268 0.750819 0.432187 0.512905
C69   C     C_2   0.412832 0.223803 0.376850 0.651730
C70   C     C_2   0.588581 0.777135 0.621773 0.639052
C71   C     C_2   0.083346 0.724557 0.619128 0.691891
C72   C     C_2   0.918092 0.252215 0.427653 0.560391
C73   C     C_2   0.914701 0.725128 0.382907 0.667074
C74   C     C_2   0.079311 0.251606 0.566482 0.580519
C75   C     C_2   0.676637 0.987283 0.965989 0.562558
C76   C     C_2   0.323375 0.012220 0.034011 0.559399
C77   C     C_2   0.176678 0.487314 0.965880 0.559481
C78   C     C_R   0.901248 0.399016 0.522553 1.061950
C79   C     C_2   0.823470 0.513632 0.033917 0.559471
C80   C     C_R   0.463901 0.999101 0.982137 -0.052356
H1    H     H_    0.325819 0.039403 0.306861 0.086582
H2    H     H_    0.420587 0.692067 0.422450 0.111899
H3    H     H_    0.469193 0.216776 0.398855 -0.004607
H4    H     H_    0.532515 0.779786 0.597450 0.043472
H5    H     H_    0.027443 0.718793 0.594768 -0.033062
H6    H     H_    0.924322 0.193331 0.427176 0.080551
H7    H     H_    0.969838 0.723517 0.410983 -0.018430
H8    H     H_    0.069006 0.194060 0.553817 0.069373
H9    H     H_    0.767671 0.073335 0.288333 0.355341
H10   H     H_    0.237433 0.928409 0.728049 0.371710
H11   H     H_    0.263342 0.111076 0.772017 0.385421
H12   H     H_    0.674224 0.960343 0.693359 0.085147
H13   H     H_    0.756700 0.914291 0.255985 0.379558
H14   H     H_    0.264660 0.579299 0.279417 0.356809
H15   H     H_    0.738793 0.422926 0.732783 0.371926
H16   H     H_    0.744004 0.588915 0.746198 0.378221
H17   H     H_    0.263995 0.430340 0.276304 0.376240
H18   H     H_    0.644948 0.412093 0.637372 0.348533
H19   H     H_    0.305674 0.684085 0.217408 0.363683
H20   H     H_    0.356899 0.413998 0.371947 0.346965
H21   H     H_    0.651237 0.591390 0.645031 0.348202
H22   H     H_    0.143054 0.913048 0.635820 0.347587
H23   H     H_    0.825624 0.540603 0.305951 0.088295
H24   H     H_    0.808624 0.176937 0.219742 0.364320
H25   H     H_    0.850230 0.909538 0.355028 0.346262
H26   H     H_    0.155895 0.124767 0.713015 0.347564
H27   H     H_    0.721708 0.023485 0.933675 0.087886
H28   H     H_    0.278471 0.975675 0.065809 0.089903
H29   H     H_    0.221630 0.523782 0.934002 0.090370
H30   H     H_    0.778055 0.478026 0.066885 0.089365
H31   H     H_    0.174209 0.460821 0.692917 0.083895
H32   H     H_    0.609831 0.000830 0.244911 0.426143
H33   H     H_    0.390164 0.998280 0.754963 0.427636
H34   H     H_    0.109900 0.500181 0.245066 0.422750
H35   H     H_    0.890070 0.498748 0.755125 0.425175
H36   H     H_    0.527220 0.221538 0.588023 -0.034625
N1    N     N_R   0.480750 0.000000 0.209750 -0.193541
N2    N     N_R   0.519250 0.000000 0.790250 -0.193636
N3    N     N_R   0.980750 0.500000 0.209750 -0.191397
N4    N     N_R   0.019250 0.500000 0.790250 -0.192034
O1    O     O_R   0.418020 0.076820 0.422210 -0.681648
O2    O     O_R   0.569630 0.923170 0.391410 -0.556975
O3    O     O_R   0.569630 0.076830 0.391410 -0.593690
O4    O     O_R   0.430370 0.923170 0.608590 -0.620136
O5    O     O_R   0.930370 0.576830 0.608590 -0.599102
O6    O     O_R   0.069630 0.423170 0.391410 -0.586809
O7    O     O_R   0.069630 0.576830 0.391410 -0.589896
O8    O     O_R   0.930370 0.423170 0.608590 -0.580814
O9    O     O_2   0.308560 0.935412 0.271450 -0.558843
O10   O     O_2   0.691400 0.064418 0.728385 -0.558932
O11   O     O_2   0.808655 0.436257 0.272272 -0.557905
O12   O     O_R   0.581980 0.923180 0.577790 -0.689845
O13   O     O_2   0.191397 0.564735 0.728810 -0.558557
O14   O     O_3   0.611581 0.017121 0.167812 -0.694289
O15   O     O_3   0.388431 0.982365 0.832225 -0.711172
O16   O     O_3   0.111720 0.516303 0.167878 -0.695407
O17   O     O_3   0.888428 0.482525 0.832249 -0.706075
O18   O     O_2   0.588930 0.231033 0.713389 -0.476039
O19   O     O_2   0.473918 0.786610 0.407707 -0.591962
O20   O     O_2   0.403537 0.233553 0.279812 -0.499733
O21   O     O_2   0.596644 0.771584 0.719956 -0.510899
O22   O     O_2   0.091173 0.731295 0.717097 -0.477987
O23   O     O_R   0.581980 0.076820 0.577790 -0.616998
O24   O     O_2   0.970985 0.289470 0.389132 -0.566551
O25   O     O_2   0.909255 0.730202 0.283865 -0.497953
O26   O     O_2   0.030211 0.287809 0.616975 -0.558802
O27   O     O_3   0.715250 0.087255 0.311999 -0.705327
O28   O     O_3   0.276161 0.932817 0.663797 -0.723575
O29   O     O_3   0.292092 0.095069 0.702255 -0.705037
O30   O     O_3   0.718054 0.921497 0.319572 -0.726819
O31   O     O_3   0.212503 0.592472 0.306156 -0.698847
O32   O     O_3   0.777757 0.428578 0.669046 -0.717114
O33   O     O_3   0.783193 0.581303 0.683445 -0.703608
O34   O     O_R   0.418020 0.923180 0.422210 -0.569894
O35   O     O_3   0.224702 0.434062 0.339820 -0.739117
O36   O     O_3   0.641343 0.358177 0.635682 -0.738126
O37   O     O_3   0.327808 0.700755 0.284046 -0.753051
O38   O     O_3   0.359615 0.360035 0.371007 -0.734151
O39   O     O_3   0.646215 0.644997 0.638005 -0.736205
O40   O     O_3   0.140198 0.859073 0.636203 -0.740495
O41   O     O_3   0.830022 0.195815 0.285710 -0.755506
O42   O     O_3   0.854859 0.855831 0.360782 -0.734713
O43   O     O_3   0.160414 0.177686 0.696324 -0.754845
O44   O     O_2   0.690846 0.934295 0.021290 -0.501887
O45   O     O_R   0.918020 0.576820 0.422210 -0.678390
O46   O     O_2   0.308976 0.065412 0.979309 -0.515163
O47   O     O_2   0.191045 0.434110 0.020612 -0.503552
O48   O     O_2   0.809727 0.566399 0.977829 -0.503283
O49   O     O_R   0.081980 0.423180 0.577790 -0.636864
O50   O     O_R   0.081980 0.576820 0.577790 -0.626794
O51   O     O_R   0.918020 0.423180 0.422210 -0.581102
O52   O     O_R   0.430370 0.076830 0.608590 -0.587653
Zn1   Zn    Zn3+2 0.491750 0.000000 0.375560 1.028748
Zn2   Zn    Zn3+2 0.508250 0.000000 0.624440 1.000032
Zn3   Zn    Zn3+2 0.991750 0.500000 0.375560 1.029369
Zn4   Zn    Zn3+2 0.008250 0.500000 0.624440 1.026230

loop_
_geom_bond_atom_site_label_1
_geom_bond_atom_site_label_2
_ccdc_geom_bond_type
C64   H23   S    
C13   C79   S    
C75   H27   S    
C8    C13   A    
C56   O49   A    
C16   O17   S    
C51   C74   S    
C48   C69   S    
C78   O8    A    
C25   C43   A    
C31   O36   S    
C53   C59   A    
C48   C57   A    
C15   O14   S    
O50   Zn4   S    
C33   O38   S    
C7    C11   A    
C5    C63   S    
C66   H36   S    
C50   C59   A    
C18   C37   A    
C46   C66   S    
C52   C61   A    
C16   N4    A    
C22   C41   A    
O4    Zn2   S    
C14   O15   S    
C31   C40   A    
C40   O32   S    
H9    O27   S    
C63   O10   D    
C73   H7    S    
H10   O28   S    
C11   C77   S    
N3    Zn3   S    
C71   H5    S    
C10   C76   S    
C44   C53   A    
C36   O28   S    
O1    Zn1   S    
C21   C38   A    
H35   O17   S    
O6    Zn3   S    
C45   O5    A    
C14   N2    A    
C49   C72   S    
C30   C60   A    
C63   H12   S    
C33   C57   A    
C32   C41   A    
C76   O46   D    
C14   C80   A    
C79   O48   D    
C35   C43   A    
C6    N1    A    
C3    C13   A    
C22   C50   A    
C69   O20   D    
C76   H28   S    
C62   O9    D    
C23   O23   A    
H13   O30   S    
C30   O43   S    
C18   C46   A    
O3    Zn1   S    
N4    Zn4   S    
C28   O41   S    
C29   C61   A    
C34   O34   A    
C67   O50   A    
O7    Zn3   S    
C22   C67   S    
H18   O36   S    
O8    Zn4   S    
C35   C55   A    
C18   C23   S    
C52   C73   S    
H22   O40   S    
H24   O41   S    
H11   O29   S    
C20   C39   A    
C10   C80   A    
C57   C60   A    
C23   O3    A    
H14   O31   S    
O51   Zn3   S    
C12   C21   S    
C49   C58   A    
C15   N1    A    
C73   O25   D    
C75   O44   D    
C29   C38   A    
C50   C71   S    
C47   C70   S    
C5    C9    A    
C69   H3    S    
C67   O7    A    
C7    C65   S    
C1    O1    A    
H16   O33   S    
C66   O18   D    
C64   O11   D    
C46   C54   A    
C17   O16   S    
O12   Zn2   S    
H26   O43   S    
C37   O27   S    
C4    C11   A    
C77   H29   S    
C2    C15   A    
H21   O39   S    
C20   C48   A    
C8    C64   S    
C71   O22   D    
C4    C17   A    
C24   C78   S    
C62   H1    S    
C56   O6    A    
H19   O37   S    
C44   C68   S    
C77   O47   D    
C33   C42   A    
C3    C4    A    
C65   H31   S    
C25   C45   S    
C32   C53   A    
C70   H4    S    
C19   C44   A    
C26   C42   A    
C47   C55   A    
C32   O37   S    
C54   C58   A    
N1    Zn1   S    
C24   C49   A    
C72   O24   D    
C24   C40   A    
C70   O21   D    
C34   O4    A    
C12   O12   A    
O34   Zn1   S    
C29   O42   S    
C74   O26   D    
H32   O14   S    
C1    C20   S    
C19   C34   S    
C26   C56   S    
C6    C10   A    
C72   H6    S    
C41   O31   S    
C28   C58   A    
C27   C36   A    
O45   Zn3   S    
O2    Zn1   S    
C39   O29   S    
C1    O52   A    
C5    N2    A    
C19   C36   A    
C68   H2    S    
C6    C62   S    
C51   C60   A    
C42   O35   S    
C27   O40   S    
C25   C52   A    
C27   C59   A    
C26   C51   A    
C7    N4    A    
O5    Zn4   S    
C28   C37   A    
C55   C61   A    
C78   O51   A    
O52   Zn2   S    
O49   Zn4   S    
C30   C39   A    
H17   O35   S    
C31   C54   A    
C35   O39   S    
C79   H30   S    
C2    C80   A    
C17   N3    A    
H20   O38   S    
C12   O2    A    
N2    Zn2   S    
H33   O15   S    
H34   O16   S    
H25   O42   S    
C68   O19   D    
H15   O32   S    
C9    C75   S    
O23   Zn2   S    
C74   H8    S    
C43   O33   S    
C2    C9    A    
C45   O45   A    
C38   O30   S    
C65   O13   D    
C3    C16   A    
C8    N3    A    
C21   C47   A    
