data_mof_unit_57095.cif
_audit_creation_date              2012-12-11T15:50:39-0500
_audit_creation_method            fapswitch 2.2
_symmetry_space_group_name_H-M    P1
_symmetry_Int_Tables_number       1
_space_group_crystal_system       triclinic
_cell_length_a                    6.922351
_cell_length_b                    14.503459
_cell_length_c                    16.104168
_cell_angle_alpha                 90.000109
_cell_angle_beta                  90.000183
_cell_angle_gamma                 90.0
_cell_volume                      1616.82680498

loop_
_atom_site_label
_atom_site_type_symbol
_atom_type_description
_atom_site_fract_x
_atom_site_fract_y
_atom_site_fract_z
_atom_type_partial_charge
O1    O     O_R   0.638140 0.833910 0.163320 -0.544012
O2    O     O_R   0.361860 0.166090 0.836680 -0.544012
O3    O     O_R   0.361860 0.166090 0.663320 -0.544012
O4    O     O_R   0.638140 0.833910 0.336680 -0.544012
O5    O     O_R   0.138140 0.666090 0.336680 -0.544012
O6    O     O_R   0.861860 0.333910 0.663320 -0.544012
O7    O     O_R   0.861860 0.333910 0.836680 -0.544012
O8    O     O_R   0.138140 0.666090 0.163320 -0.544012
O9    O     O_R   0.308390 0.844930 0.336080 -0.540013
O10   O     O_R   0.691610 0.155070 0.663920 -0.540013
O11   O     O_R   0.691610 0.155070 0.836080 -0.540013
O12   O     O_R   0.308390 0.844930 0.163920 -0.540013
O13   O     O_R   0.808390 0.655070 0.163920 -0.540013
O14   O     O_R   0.191610 0.344930 0.836080 -0.540013
O15   O     O_R   0.191610 0.344930 0.663920 -0.540013
O16   O     O_R   0.808390 0.655070 0.336080 -0.540013
C1    C     C_R   0.477275 0.864625 0.366887 0.678375
C2    C     C_R   0.522725 0.135375 0.633113 0.678375
C3    C     C_R   0.522725 0.135375 0.866887 0.678374
C4    C     C_R   0.477274 0.864625 0.133113 0.678374
C5    C     C_R   0.977274 0.635375 0.133113 0.678375
C6    C     C_R   0.022725 0.364625 0.866887 0.678375
C7    C     C_R   0.022725 0.364625 0.633113 0.678376
C8    C     C_R   0.977275 0.635375 0.366887 0.678376
O17   O     O_3   0.471620 0.691320 0.250000 -0.367736
O18   O     O_3   0.528380 0.308680 0.750000 -0.367736
O19   O     O_3   0.971620 0.808680 0.250000 -0.367736
O20   O     O_3   0.028380 0.191320 0.750000 -0.367736
V1    V     V_3+5 0.196770 0.760880 0.250000 1.460182
V2    V     V_3+5 0.803230 0.239120 0.750000 1.460182
V3    V     V_3+5 0.696770 0.739120 0.250000 1.460183
V4    V     V_3+5 0.303230 0.260880 0.750000 1.460182
C9    C     C_R   0.859013 0.493957 0.438330 -0.080610
C10   C     C_R   0.140987 0.506043 0.561670 -0.080610
C11   C     C_R   0.140985 0.506044 0.938329 -0.080613
C12   C     C_R   0.859015 0.493956 0.061671 -0.080613
C13   C     C_R   0.359015 0.006044 0.061671 -0.080612
C14   C     C_R   0.640985 0.993956 0.938329 -0.080613
C15   C     C_R   0.640985 0.993956 0.561671 -0.080612
C16   C     C_R   0.359015 0.006044 0.438329 -0.080612
H1    H     H_    0.753044 0.487921 0.389066 0.162797
H2    H     H_    0.246956 0.512078 0.610934 0.162797
H3    H     H_    0.246952 0.512080 0.889065 0.162797
H4    H     H_    0.753048 0.487920 0.110935 0.162797
H5    H     H_    0.253048 0.012080 0.110935 0.162797
H6    H     H_    0.746952 0.987920 0.889065 0.162797
H7    H     H_    0.746953 0.987920 0.610935 0.162797
H8    H     H_    0.253047 0.012080 0.389064 0.162797
C17   C     C_R   0.869624 0.424846 0.499598 0.006729
C18   C     C_R   0.130376 0.575154 0.500401 0.006729
C19   C     C_R   0.130373 0.575155 0.999598 0.006727
C20   C     C_R   0.869627 0.424845 0.000402 0.006727
C21   C     C_R   0.369627 0.075155 0.000402 0.006728
C22   C     C_R   0.630373 0.924845 0.999598 0.006728
C23   C     C_R   0.630374 0.924845 0.500402 0.006727
C24   C     C_R   0.369626 0.075155 0.499598 0.006727
C25   C     C_R   0.011402 0.431583 0.563060 -0.163721
C26   C     C_R   0.988598 0.568417 0.436940 -0.163721
C27   C     C_R   0.988597 0.568417 0.063060 -0.163720
C28   C     C_R   0.011403 0.431583 0.936940 -0.163720
C29   C     C_R   0.511403 0.068417 0.936940 -0.163721
C30   C     C_R   0.488597 0.931583 0.063060 -0.163721
C31   C     C_R   0.488598 0.931583 0.436940 -0.163721
C32   C     C_R   0.511402 0.068417 0.563060 -0.163721
C33   C     C_2   0.738857 0.343850 0.492847 0.402493
H9    H     H_    0.772060 0.279941 0.524641 0.064373
O21   O     O_2   0.592849 0.347064 0.450359 -0.532634
C34   C     C_2   0.261143 0.656150 0.507153 0.402493
H10   H     H_    0.227940 0.720059 0.475359 0.064373
O22   O     O_2   0.407151 0.652936 0.549641 -0.532634
C35   C     C_2   0.261137 0.656152 0.992846 0.402494
H11   H     H_    0.227933 0.720061 0.024640 0.064374
O23   O     O_2   0.407143 0.652939 0.950357 -0.532634
C36   C     C_2   0.738863 0.343848 0.007154 0.402494
H12   H     H_    0.772067 0.279939 0.975359 0.064374
O24   O     O_2   0.592857 0.347060 0.049644 -0.532634
C37   C     C_2   0.238863 0.156152 0.007154 0.402494
H13   H     H_    0.272066 0.220060 0.975359 0.064374
O25   O     O_2   0.092858 0.152940 0.049644 -0.532634
C38   C     C_2   0.761137 0.843848 0.992846 0.402494
H14   H     H_    0.727934 0.779940 0.024640 0.064375
O26   O     O_2   0.907142 0.847061 0.950356 -0.532634
C39   C     C_2   0.761138 0.843849 0.507154 0.402494
H15   H     H_    0.727936 0.779940 0.475359 0.064375
O27   O     O_2   0.907144 0.847061 0.549644 -0.532634
C40   C     C_2   0.238862 0.156151 0.492846 0.402494
H16   H     H_    0.272064 0.220060 0.524641 0.064375
O28   O     O_2   0.092856 0.152939 0.450356 -0.532633

loop_
_geom_bond_atom_site_label_1
_geom_bond_atom_site_label_2
_ccdc_geom_bond_type
O17   V3    S    
O18   V4    S    
C9    C26   A    
C13   H5    S    
O12   V1    S    
O19   V1    S    
C10   H2    S    
C12   C27   A    
C13   C30   A    
O15   V4    S    
C37   H13   S    
O16   V3    S    
C15   C32   A    
O11   C3    A    
C16   C31   A    
C36   O24   D    
O8    V1    S    
C3    C29   S    
C5    C27   S    
C20   C36   S    
C6    C28   S    
C40   O28   D    
C9    C17   A    
O1    V3    S    
C17   C25   A    
O3    C2    A    
O2    V4    S    
C16   H8    S    
C20   C28   A    
C21   C29   A    
C15   C23   A    
O11   V2    S    
C34   H10   S    
C16   C24   A    
C23   C31   A    
C10   C25   A    
C24   C32   A    
C11   H3    S    
C22   C38   S    
C12   C20   A    
O9    V1    S    
C14   C29   A    
C13   C21   A    
O15   C7    A    
O16   C8    A    
O7    V2    S    
C19   C35   S    
O5    V1    S    
C37   O25   D    
O17   V1    S    
C10   C18   A    
C36   H12   S    
O19   V3    S    
C18   C26   A    
O20   V4    S    
C38   O26   D    
C35   O23   D    
C40   H16   S    
C22   C30   A    
C33   O21   D    
C11   C28   A    
C21   C37   S    
O10   V2    S    
C24   C40   S    
C39   H15   S    
C14   C22   A    
O12   C4    A    
O8    C5    A    
O13   C5    A    
C17   C33   S    
O4    C1    A    
O9    C1    A    
C39   O27   D    
O18   V2    S    
C11   C19   A    
C12   H4    S    
C19   C27   A    
C23   C39   S    
C15   H7    S    
C7    C25   S    
O1    C4    A    
O6    V2    S    
O2    C3    A    
O13   V3    S    
O14   V4    S    
C38   H14   S    
O7    C6    A    
C9    H1    S    
O14   C6    A    
O20   V2    S    
C35   H11   S    
C1    C31   S    
C2    C32   S    
O5    C8    A    
O10   C2    A    
O6    C7    A    
C4    C30   S    
O3    V4    S    
C14   H6    S    
O4    V3    S    
C8    C26   S    
C33   H9    S    
C34   O22   D    
C18   C34   S    
