data_mof_unit_11147.cif
_audit_creation_date              2013-03-05T15:59:40-0500
_audit_creation_method            fapswitch 2.2
_symmetry_space_group_name_H-M    P1
_symmetry_Int_Tables_number       1
_space_group_crystal_system       triclinic
_cell_length_a                    18.428309
_cell_length_b                    25.945217
_cell_length_c                    18.302748
_cell_angle_alpha                 89.773939
_cell_angle_beta                  89.444442
_cell_angle_gamma                 89.882605
_cell_volume                      8750.5312243

loop_
_atom_site_label
_atom_site_type_symbol
_atom_site_description
_atom_site_fract_x
_atom_site_fract_y
_atom_site_fract_z
_atom_type_partial_charge
Zn1   Zn    Zn3+2 0.500000 0.706650 0.586810 0.951683
Zn2   Zn    Zn3+2 0.500000 0.293350 0.413190 0.963515
Zn3   Zn    Zn3+2 0.500000 0.706650 0.413190 0.979199
Zn4   Zn    Zn3+2 0.500000 0.293350 0.586810 0.957116
Zn5   Zn    Zn3+2 0.000000 0.206650 0.086810 0.963907
Zn6   Zn    Zn3+2 0.000000 0.793350 0.913190 0.968075
Zn7   Zn    Zn3+2 0.000000 0.206650 0.913190 0.958473
Zn8   Zn    Zn3+2 0.000000 0.793350 0.086810 0.981555
Zn9   Zn    Zn3+2 0.586710 0.793420 0.500000 0.965931
Zn10  Zn    Zn3+2 0.413290 0.206580 0.500000 0.996624
Zn11  Zn    Zn3+2 0.413290 0.793420 0.500000 0.979255
Zn12  Zn    Zn3+2 0.586710 0.206580 0.500000 0.965692
Zn13  Zn    Zn3+2 0.086710 0.293420 0.000000 0.962780
Zn14  Zn    Zn3+2 0.913290 0.706580 0.000000 0.995026
Zn15  Zn    Zn3+2 0.913290 0.293420 0.000000 0.989209
Zn16  Zn    Zn3+2 0.086710 0.706580 0.000000 0.954009
O1    O     O_3   0.500000 0.750040 0.500000 -0.515006
O2    O     O_3   0.500000 0.249960 0.500000 -0.519825
O3    O     O_3   0.000000 0.250040 0.000000 -0.521226
O4    O     O_3   0.000000 0.749960 0.000000 -0.519717
O5    O     O_R   0.585420 0.719700 0.353880 -0.623971
O6    O     O_R   0.414580 0.280300 0.646120 -0.606523
O7    O     O_R   0.414580 0.719700 0.646120 -0.647756
O8    O     O_R   0.585420 0.280300 0.353880 -0.627081
O9    O     O_R   0.585420 0.280300 0.646120 -0.620289
O10   O     O_R   0.414580 0.719700 0.353880 -0.616612
O11   O     O_R   0.414580 0.280300 0.353880 -0.625276
O12   O     O_R   0.585420 0.719700 0.646120 -0.619087
O13   O     O_R   0.085420 0.219700 0.853880 -0.635456
O14   O     O_R   0.914580 0.780300 0.146120 -0.625471
O15   O     O_R   0.914580 0.219700 0.146120 -0.632665
O16   O     O_R   0.085420 0.780300 0.853880 -0.649536
O17   O     O_R   0.085420 0.780300 0.146120 -0.597818
O18   O     O_R   0.914580 0.219700 0.853880 -0.607464
O19   O     O_R   0.914580 0.780300 0.853880 -0.610023
O20   O     O_R   0.085420 0.219700 0.146120 -0.606004
O21   O     O_R   0.646120 0.780390 0.585510 -0.604460
O22   O     O_R   0.353880 0.219610 0.414490 -0.622179
O23   O     O_R   0.353880 0.780390 0.414490 -0.604319
O24   O     O_R   0.646120 0.219610 0.585510 -0.604663
O25   O     O_R   0.646120 0.219610 0.414490 -0.636177
O26   O     O_R   0.353880 0.780390 0.585510 -0.650266
O27   O     O_R   0.353880 0.219610 0.585510 -0.607098
O28   O     O_R   0.646120 0.780390 0.414490 -0.638188
O29   O     O_R   0.146120 0.280390 0.085510 -0.629414
O30   O     O_R   0.853880 0.719610 0.914490 -0.597610
O31   O     O_R   0.853880 0.280390 0.914490 -0.600761
O32   O     O_R   0.146120 0.719610 0.085510 -0.627791
O33   O     O_R   0.146120 0.719610 0.914490 -0.646442
O34   O     O_R   0.853880 0.280390 0.085510 -0.635103
O35   O     O_R   0.853880 0.719610 0.085510 -0.630417
O36   O     O_R   0.146120 0.280390 0.914490 -0.603392
O37   O     O_R   0.560660 0.865840 0.500000 -0.656180
O38   O     O_R   0.439340 0.134160 0.500000 -0.600013
O39   O     O_R   0.439340 0.865840 0.500000 -0.621410
O40   O     O_R   0.560660 0.134160 0.500000 -0.659209
O41   O     O_R   0.060660 0.365840 0.000000 -0.626487
O42   O     O_R   0.939340 0.634160 0.000000 -0.594640
O43   O     O_R   0.939340 0.365840 0.000000 -0.598290
O44   O     O_R   0.060660 0.634160 0.000000 -0.623084
O45   O     O_R   0.500000 0.634240 0.439310 -0.638588
O46   O     O_R   0.500000 0.365760 0.560690 -0.632661
O47   O     O_R   0.500000 0.634240 0.560690 -0.643978
O48   O     O_R   0.500000 0.365760 0.439310 -0.626257
O49   O     O_R   0.000000 0.134240 0.939310 -0.615743
O50   O     O_R   0.000000 0.865760 0.060690 -0.634803
O51   O     O_R   0.000000 0.134240 0.060690 -0.625725
O52   O     O_R   0.000000 0.865760 0.939310 -0.643993
C1    C     C_R   0.639869 0.749931 0.360177 0.933089
C2    C     C_R   0.359006 0.251451 0.639071 0.886818
C3    C     C_R   0.360115 0.749958 0.640146 0.954460
C4    C     C_R   0.640050 0.250355 0.360088 0.932601
C5    C     C_R   0.639982 0.249604 0.640230 0.888115
C6    C     C_R   0.360038 0.750020 0.359759 0.899261
C7    C     C_R   0.360558 0.249718 0.359175 0.925079
C8    C     C_R   0.640108 0.749837 0.640053 0.882906
C9    C     C_R   0.139639 0.250199 0.859757 0.902739
C10   C     C_R   0.859683 0.750213 0.139663 0.911287
C11   C     C_R   0.859758 0.249513 0.139718 0.916984
C12   C     C_R   0.139701 0.749842 0.859642 0.953329
C13   C     C_R   0.140024 0.749983 0.140145 0.874815
C14   C     C_R   0.859760 0.249746 0.859920 0.896060
C15   C     C_R   0.860152 0.749689 0.859487 0.899820
C16   C     C_R   0.139202 0.250807 0.141188 0.906368
C17   C     C_R   0.500103 0.890029 0.499378 0.938121
C18   C     C_R   0.500199 0.109973 0.499136 0.949636
C19   C     C_R   0.000051 0.390126 0.000350 0.918132
C20   C     C_R   0.000466 0.609871 0.003010 0.902484
C21   C     C_R   0.500200 0.610142 0.500238 0.900918
C22   C     C_R   0.499203 0.390350 0.499812 0.844010
C23   C     C_R   0.004865 0.109763 0.000755 0.840544
C24   C     C_R   0.001705 0.889828 0.999749 0.942083
C25   C     C_R   0.420885 0.548919 0.388730 0.179082
C26   C     C_R   0.487416 0.455550 0.638262 0.156465
C27   C     C_R   0.568351 0.546291 0.618467 0.153390
C28   C     C_R   0.498109 0.457538 0.360431 0.204678
C29   C     C_R   0.123032 0.048867 0.919093 0.074254
C30   C     C_R   0.886503 0.952341 0.063556 0.122813
C31   C     C_R   0.940316 0.043854 0.122528 0.127316
C32   C     C_R   0.137589 0.944438 0.958718 0.104934
C33   C     C_R   0.415031 0.525056 0.319634 0.096385
C34   C     C_R   0.521885 0.478560 0.698719 0.111308
C35   C     C_R   0.566473 0.521889 0.687749 0.118370
C36   C     C_R   0.458141 0.481408 0.303823 0.145428
C37   C     C_R   0.188394 0.022257 0.904245 0.153995
C38   C     C_R   0.848791 0.976315 0.121861 0.161482
C39   C     C_R   0.878233 0.020425 0.154032 0.136971
C40   C     C_R   0.196506 0.970681 0.925568 0.173190
C41   C     C_R   0.489520 0.475997 0.433248 -0.063772
C42   C     C_R   0.525159 0.525959 0.561459 -0.048337
C43   C     C_R   0.502629 0.474859 0.566859 -0.038802
C44   C     C_R   0.468805 0.527343 0.441002 -0.049016
C45   C     C_R   0.070770 0.971011 0.973206 -0.054951
C46   C     C_R   0.968289 0.025048 0.054606 -0.052990
C47   C     C_R   0.952428 0.974162 0.036948 -0.048861
C48   C     C_R   0.067540 0.025262 0.963038 -0.030283
C49   C     C_R   0.497195 0.447040 0.499688 -0.112653
C50   C     C_R   0.498674 0.554258 0.500807 -0.104554
C51   C     C_R   0.006917 0.945768 0.999942 -0.082745
C52   C     C_R   0.013678 0.053118 0.004740 -0.083190
C53   C     C_R   0.275826 0.797042 0.721572 0.355424
C54   C     C_R   0.768987 0.258903 0.323010 0.403303
C55   C     C_R   0.767343 0.736053 0.322223 0.398092
C56   C     C_R   0.229300 0.241236 0.675271 0.400174
C57   C     C_R   0.253330 0.210017 0.301198 0.359501
C58   C     C_R   0.766732 0.768075 0.678961 0.381481
C59   C     C_R   0.764762 0.225894 0.681768 0.368022
C60   C     C_R   0.232126 0.763731 0.322186 0.396987
C61   C     C_R   0.730464 0.241944 0.176425 0.402711
C62   C     C_R   0.223720 0.702443 0.777884 0.366328
C63   C     C_R   0.265526 0.267180 0.819658 0.403999
C64   C     C_R   0.730531 0.759705 0.177141 0.394134
C65   C     C_R   0.736089 0.726019 0.817505 0.366922
C66   C     C_R   0.247787 0.291046 0.198015 0.384120
C67   C     C_R   0.268311 0.736862 0.177244 0.396640
C68   C     C_R   0.736102 0.273437 0.816771 0.360784
C69   C     C_R   0.676488 0.243416 0.230510 0.380335
C70   C     C_R   0.278095 0.702435 0.723981 0.366194
C71   C     C_R   0.315617 0.274922 0.763265 0.367340
C72   C     C_R   0.677712 0.762369 0.232067 0.402780
C73   C     C_R   0.680743 0.729924 0.766267 0.387092
C74   C     C_R   0.301989 0.290802 0.250958 0.362858
C75   C     C_R   0.321638 0.735955 0.230928 0.357223
C76   C     C_R   0.680812 0.267971 0.766141 0.425021
C77   C     C_R   0.220546 0.797008 0.774475 0.356019
C78   C     C_R   0.823046 0.257017 0.269067 0.388666
C79   C     C_R   0.821405 0.736986 0.268259 0.416585
C80   C     C_R   0.175659 0.241905 0.729454 0.397069
C81   C     C_R   0.194411 0.213630 0.253959 0.374446
C82   C     C_R   0.819432 0.769860 0.733057 0.387429
C83   C     C_R   0.814820 0.221203 0.738374 0.368580
C84   C     C_R   0.178440 0.763299 0.268927 0.385184
C85   C     C_R   0.696006 0.251061 0.303781 -0.396525
C86   C     C_R   0.304073 0.749781 0.696391 -0.376557
C87   C     C_R   0.300617 0.255570 0.693157 -0.402718
C88   C     C_R   0.695897 0.749776 0.304207 -0.392968
C89   C     C_R   0.696406 0.749513 0.695878 -0.402509
C90   C     C_R   0.305118 0.249956 0.302350 -0.395226
C91   C     C_R   0.303994 0.749887 0.303507 -0.411546
C92   C     C_R   0.696427 0.248712 0.696076 -0.389032
C93   C     C_R   0.195359 0.749738 0.802952 -0.378800
C94   C     C_R   0.803636 0.248934 0.195857 -0.397350
C95   C     C_R   0.803297 0.749588 0.195765 -0.394981
C96   C     C_R   0.194712 0.251560 0.802537 -0.396504
C97   C     C_R   0.194033 0.252121 0.198897 -0.396187
C98   C     C_R   0.804514 0.748642 0.802677 -0.405835
C99   C     C_R   0.803266 0.248712 0.804017 -0.399833
C100  C     C_R   0.196281 0.750214 0.196088 -0.406910
C101  C     C_R   0.458507 0.973102 0.552540 0.384689
C102  C     C_R   0.545940 0.026998 0.450415 0.383559
C103  C     C_R   0.545610 0.972959 0.450403 0.377882
C104  C     C_R   0.458192 0.026998 0.551835 0.391256
C105  C     C_R   0.939901 0.472925 0.034605 0.386596
C106  C     C_R   0.067760 0.526401 0.997523 0.394434
C107  C     C_R   0.065387 0.473079 0.988835 0.368178
C108  C     C_R   0.940384 0.526680 0.036627 0.393579
C109  C     C_R   0.501306 0.053809 0.500387 -0.381009
C110  C     C_R   0.501244 0.946161 0.500897 -0.376167
C111  C     C_R   0.002766 0.553736 0.012798 -0.411249
C112  C     C_R   0.001116 0.446238 0.006804 -0.397854
N1    N     N_2   0.606274 0.541732 0.747681 -0.289066
H1    H     H_    0.658400 0.553261 0.734979 0.230957
C113  C     C_3   0.566694 0.578708 0.791727 -0.684544
H2    H     H_    0.552384 0.613181 0.758607 0.249892
H3    H     H_    0.600779 0.591047 0.838174 0.267675
H4    H     H_    0.516213 0.561155 0.814141 0.233410
N2    N     N_2   0.458000 0.459620 0.232390 -0.306864
H5    H     H_    0.409042 0.460712 0.205591 0.262989
C114  C     C_3   0.520057 0.471314 0.185960 -0.804032
H6    H     H_    0.544174 0.434771 0.165745 0.246588
H7    H     H_    0.562404 0.493211 0.215520 0.252881
H8    H     H_    0.502720 0.494422 0.137974 0.241268
N3    N     N_2   0.367782 0.545162 0.265329 -0.331811
H9    H     H_    0.316782 0.554802 0.284555 0.220545
C115  C     C_3   0.399584 0.584694 0.219190 -0.704088
H10   H     H_    0.359965 0.596621 0.177003 0.247292
H11   H     H_    0.448961 0.569953 0.191168 0.253078
H12   H     H_    0.414390 0.618934 0.251977 0.274855
N4    N     N_2   0.513178 0.458290 0.770655 -0.305914
H13   H     H_    0.460347 0.450327 0.785767 0.223105
C116  C     C_3   0.563490 0.417380 0.788528 -0.661429
H14   H     H_    0.554917 0.405200 0.846186 0.240239
H15   H     H_    0.620302 0.431067 0.782160 0.257767
H16   H     H_    0.554918 0.383593 0.752508 0.244971
N5    N     N_2   0.846522 0.039431 0.219910 -0.285939
H17   H     H_    0.882614 0.046049 0.261483 0.222247
C117  C     C_3   0.795018 0.080822 0.209683 -0.797527
H18   H     H_    0.822652 0.115331 0.186538 0.228800
H19   H     H_    0.770143 0.091290 0.263101 0.235564
H20   H     H_    0.751113 0.068379 0.172537 0.252924
N6    N     N_2   0.265663 0.946194 0.916406 -0.307063
H21   H     H_    0.280063 0.917427 0.952373 0.216731
C118  C     C_3   0.294147 0.940360 0.842780 -0.636267
H22   H     H_    0.309285 0.899539 0.833009 0.266575
H23   H     H_    0.343800 0.964135 0.836339 0.226620
H24   H     H_    0.254066 0.952338 0.800969 0.244695
N7    N     N_2   0.248013 0.047820 0.869559 -0.289374
H25   H     H_    0.235164 0.070725 0.825439 0.228878
C119  C     C_3   0.297732 0.072186 0.919329 -0.807133
H26   H     H_    0.344182 0.088618 0.888014 0.226544
H27   H     H_    0.319192 0.043532 0.958916 0.266072
H28   H     H_    0.270047 0.103783 0.949543 0.218500
N8    N     N_2   0.783890 0.954653 0.151726 -0.286916
H29   H     H_    0.749443 0.938949 0.113826 0.215178
C120  C     C_3   0.794431 0.921790 0.214916 -0.769912
H30   H     H_    0.740912 0.909557 0.237112 0.223016
H31   H     H_    0.823301 0.942732 0.258653 0.264865
H32   H     H_    0.826187 0.886939 0.199691 0.230886
N9    N     N_2   0.374986 0.591301 0.408050 -0.287370
H33   H     H_    0.356864 0.614053 0.365773 0.238985
C121  C     C_3   0.318860 0.579449 0.461268 -0.824820
H34   H     H_    0.288942 0.615235 0.475717 0.236110
H35   H     H_    0.342772 0.563433 0.512028 0.257570
H36   H     H_    0.280075 0.551232 0.438253 0.234602
N10   N     N_2   0.430248 0.419276 0.649927 -0.257217
H37   H     H_    0.433851 0.396378 0.695834 0.272195
C122  C     C_3   0.358033 0.439025 0.637173 -0.774421
H38   H     H_    0.317962 0.407421 0.644107 0.243270
H39   H     H_    0.353576 0.454317 0.580598 0.239763
H40   H     H_    0.345040 0.470084 0.676872 0.234330
N11   N     N_2   0.616265 0.588506 0.604757 -0.275694
H41   H     H_    0.629111 0.611042 0.648959 0.253067
C123  C     C_3   0.677930 0.576749 0.558286 -0.862241
H42   H     H_    0.710012 0.612334 0.548552 0.223228
H43   H     H_    0.659724 0.561990 0.504608 0.248377
H44   H     H_    0.713141 0.547579 0.585032 0.243761
N12   N     N_2   0.553455 0.420965 0.342415 -0.242329
H45   H     H_    0.548471 0.402008 0.293422 0.255632
C124  C     C_3   0.626903 0.436832 0.357976 -0.805338
H46   H     H_    0.665079 0.405280 0.343416 0.227710
H47   H     H_    0.633031 0.445205 0.417048 0.237885
H48   H     H_    0.641222 0.471629 0.325395 0.231417
N13   N     N_2   0.111985 0.097217 0.884394 -0.281599
H49   H     H_    0.155069 0.122422 0.886399 0.212033
C125  C     C_3   0.080369 0.093144 0.812426 -0.644879
H50   H     H_    0.070585 0.132145 0.789570 0.269349
H51   H     H_    0.027533 0.072649 0.815804 0.244716
H52   H     H_    0.117306 0.072015 0.774678 0.197063
N14   N     N_2   0.858882 0.906530 0.031957 -0.312833
H53   H     H_    0.834990 0.881464 0.068274 0.216899
C126  C     C_3   0.819120 0.914152 0.965086 -0.823890
H54   H     H_    0.804435 0.876151 0.941848 0.228883
H55   H     H_    0.853094 0.935040 0.924195 0.266315
H56   H     H_    0.768641 0.936406 0.976072 0.230156
N15   N     N_2   0.983238 0.076953 0.166592 -0.253318
H57   H     H_    0.955418 0.100939 0.201825 0.240058
C127  C     C_3   0.046046 0.052643 0.198764 -0.713059
H58   H     H_    0.077798 0.081758 0.229018 0.272458
H59   H     H_    0.081681 0.035907 0.155619 0.246923
H60   H     H_    0.028729 0.021813 0.237438 0.219169
N16   N     N_2   0.148078 0.892906 0.983739 -0.316044
H61   H     H_    0.177458 0.869506 0.948935 0.252033
C128  C     C_3   0.170276 0.888864 0.059219 -0.794937
H62   H     H_    0.172760 0.847715 0.075276 0.228920
H63   H     H_    0.130707 0.908696 0.095704 0.269722
H64   H     H_    0.224712 0.906195 0.066712 0.222122
O53   O     O_3   0.308876 0.843018 0.701630 -0.614718
C129  C     C_3   0.269644 0.867752 0.645348 -0.127186
H65   H     H_    0.218038 0.848425 0.629709 0.104080
H66   H     H_    0.304527 0.870752 0.595836 0.234216
H67   H     H_    0.257227 0.907781 0.662452 0.169613
O54   O     O_3   0.788713 0.268589 0.394400 -0.573409
C130  C     C_3   0.769607 0.319789 0.412944 -0.364428
H68   H     H_    0.714059 0.321044 0.436849 0.158237
H69   H     H_    0.773372 0.347392 0.366209 0.136254
H70   H     H_    0.807501 0.333546 0.455315 0.175455
O55   O     O_3   0.785754 0.722448 0.392815 -0.574808
C131  C     C_3   0.765844 0.670611 0.405837 -0.338794
H71   H     H_    0.777349 0.644848 0.358628 0.152833
H72   H     H_    0.707605 0.667950 0.421419 0.153765
H73   H     H_    0.797835 0.655782 0.452455 0.172719
O56   O     O_3   0.210324 0.228162 0.604664 -0.544451
C132  C     C_3   0.201299 0.273692 0.563056 -0.241309
H74   H     H_    0.175403 0.263590 0.510645 0.159642
H75   H     H_    0.254396 0.291865 0.549973 0.134750
H76   H     H_    0.165224 0.302139 0.590619 0.139490
O57   O     O_3   0.266914 0.163918 0.337505 -0.568423
C133  C     C_3   0.222846 0.159262 0.400709 -0.092640
H77   H     H_    0.207700 0.196946 0.425528 0.114878
H78   H     H_    0.253597 0.137480 0.442563 0.199338
H79   H     H_    0.173801 0.136301 0.388386 0.164089
O58   O     O_3   0.784844 0.786074 0.609938 -0.543687
C134  C     C_3   0.803054 0.743630 0.565180 -0.170227
H80   H     H_    0.753406 0.725144 0.543834 0.170520
H81   H     H_    0.836364 0.713902 0.593497 0.083720
H82   H     H_    0.835444 0.757961 0.517993 0.229923
O59   O     O_3   0.780412 0.202774 0.615515 -0.556103
C135  C     C_3   0.805446 0.240994 0.566296 -0.201388
H83   H     H_    0.760950 0.267460 0.550265 0.167985
H84   H     H_    0.826059 0.221627 0.516351 0.234035
H85   H     H_    0.850809 0.264026 0.588841 0.090546
O60   O     O_3   0.213997 0.780154 0.392017 -0.533368
C136  C     C_3   0.202472 0.737210 0.438542 -0.224664
H86   H     H_    0.222741 0.746891 0.493699 0.186918
H87   H     H_    0.230805 0.701236 0.420884 0.094827
H88   H     H_    0.143460 0.729700 0.444075 0.162016
O61   O     O_3   0.710328 0.235073 0.104480 -0.577228
C137  C     C_3   0.725208 0.183760 0.083397 -0.355371
H89   H     H_    0.713129 0.155148 0.127239 0.148732
H90   H     H_    0.782477 0.179700 0.064951 0.154765
H91   H     H_    0.690171 0.173965 0.036571 0.175135
O62   O     O_3   0.191743 0.656355 0.799075 -0.576665
C138  C     C_3   0.232068 0.632716 0.855556 -0.130017
H92   H     H_    0.198201 0.630713 0.905833 0.234114
H93   H     H_    0.284072 0.652253 0.869305 0.090153
H94   H     H_    0.244214 0.592360 0.839867 0.169800
O63   O     O_3   0.284887 0.278777 0.890583 -0.562351
C139  C     C_3   0.301699 0.232219 0.927176 -0.360218
H95   H     H_    0.342479 0.208801 0.896546 0.135207
H96   H     H_    0.252215 0.208834 0.937719 0.155240
H97   H     H_    0.325598 0.241588 0.980819 0.176799
O64   O     O_3   0.708434 0.762837 0.105274 -0.571682
C140  C     C_3   0.725136 0.811651 0.075726 -0.344264
H98   H     H_    0.773744 0.808048 0.039934 0.160041
H99   H     H_    0.733690 0.842218 0.117207 0.137417
H100  H     H_    0.679334 0.824375 0.041129 0.184364
O65   O     O_3   0.725143 0.695550 0.878918 -0.554511
C141  C     C_3   0.691426 0.724472 0.934794 -0.108233
H101  H     H_    0.704851 0.766349 0.932924 0.086163
H102  H     H_    0.710249 0.709067 0.987878 0.237758
H103  H     H_    0.631828 0.718890 0.933398 0.165917
O66   O     O_3   0.242243 0.333255 0.151577 -0.567088
C142  C     C_3   0.289293 0.327456 0.090436 -0.210151
H104  H     H_    0.257045 0.322030 0.040288 0.220878
H105  H     H_    0.328672 0.294886 0.094388 0.100739
H106  H     H_    0.320092 0.363749 0.082485 0.153792
O67   O     O_3   0.287584 0.722665 0.106707 -0.545024
C143  C     C_3   0.295610 0.766965 0.061865 -0.267713
H107  H     H_    0.296310 0.804380 0.091782 0.104804
H108  H     H_    0.251311 0.768265 0.021262 0.183123
H109  H     H_    0.347557 0.763735 0.031045 0.173070
O68   O     O_3   0.724084 0.303807 0.877821 -0.563428
C144  C     C_3   0.694697 0.273769 0.935254 -0.082781
H110  H     H_    0.709390 0.292240 0.987545 0.229652
H111  H     H_    0.716038 0.233557 0.936494 0.100801
H112  H     H_    0.634645 0.273608 0.932603 0.162394
O69   O     O_3   0.604173 0.241213 0.210787 -0.565957
C145  C     C_3   0.578808 0.190161 0.218532 -0.262454
H113  H     H_    0.596854 0.171121 0.269935 0.137605
H114  H     H_    0.595478 0.166723 0.170701 0.171925
H115  H     H_    0.518618 0.191047 0.219949 0.174535
O70   O     O_3   0.298583 0.656430 0.691286 -0.575973
C146  C     C_3   0.357749 0.633949 0.728649 -0.201617
H116  H     H_    0.339786 0.597928 0.755919 0.149611
H117  H     H_    0.384029 0.659426 0.769657 0.123867
H118  H     H_    0.399871 0.622722 0.687956 0.199905
O71   O     O_3   0.372654 0.308738 0.773114 -0.574031
C147  C     C_3   0.427837 0.285020 0.813576 -0.183608
H119  H     H_    0.433687 0.243202 0.801108 0.105435
H120  H     H_    0.419016 0.291096 0.872926 0.184740
H121  H     H_    0.479358 0.304476 0.799011 0.228493
O72   O     O_3   0.607524 0.775874 0.213975 -0.579480
C148  C     C_3   0.597688 0.828977 0.227891 -0.322603
H122  H     H_    0.545671 0.841585 0.203673 0.173473
H123  H     H_    0.640881 0.853004 0.202320 0.158620
H124  H     H_    0.594580 0.836656 0.287520 0.166388
O73   O     O_3   0.612534 0.711418 0.784782 -0.561787
C149  C     C_3   0.567296 0.753453 0.803987 -0.286642
H125  H     H_    0.592959 0.779539 0.844338 0.117488
H126  H     H_    0.516806 0.738107 0.829300 0.178713
H127  H     H_    0.551436 0.776256 0.755218 0.156605
O74   O     O_3   0.347044 0.333420 0.256465 -0.564962
C150  C     C_3   0.411502 0.326066 0.214856 -0.141047
H128  H     H_    0.411851 0.352588 0.167334 0.144022
H129  H     H_    0.420848 0.285747 0.195791 0.118200
H130  H     H_    0.458619 0.337099 0.248579 0.204251
O75   O     O_3   0.390461 0.719174 0.211755 -0.567341
C151  C     C_3   0.433883 0.762243 0.194391 -0.149882
H131  H     H_    0.450100 0.782754 0.244788 0.150892
H132  H     H_    0.406999 0.789729 0.156524 0.106281
H133  H     H_    0.483614 0.748245 0.166271 0.234001
O76   O     O_3   0.610114 0.274100 0.789881 -0.575627
C152  C     C_3   0.582849 0.224693 0.809256 -0.396854
H134  H     H_    0.545200 0.228754 0.856415 0.164285
H135  H     H_    0.625000 0.196495 0.827356 0.141428
H136  H     H_    0.552801 0.208111 0.762625 0.173688
O77   O     O_3   0.198045 0.843102 0.805368 -0.610721
C153  C     C_3   0.138549 0.863845 0.766631 -0.202987
H137  H     H_    0.155675 0.899237 0.737301 0.143782
H138  H     H_    0.096210 0.875811 0.806641 0.207526
H139  H     H_    0.112906 0.836871 0.727164 0.131537
O78   O     O_3   0.895263 0.260446 0.288799 -0.559624
C154  C     C_3   0.918545 0.311985 0.281095 -0.307852
H140  H     H_    0.893832 0.336752 0.323889 0.172094
H141  H     H_    0.907080 0.328132 0.225990 0.116071
H142  H     H_    0.978182 0.313165 0.288456 0.165172
O79   O     O_3   0.891529 0.723976 0.287369 -0.559036
C155  C     C_3   0.907075 0.673187 0.264081 -0.350588
H143  H     H_    0.858547 0.647854 0.259590 0.132684
H144  H     H_    0.943830 0.654892 0.304244 0.171995
H145  H     H_    0.936017 0.674427 0.210725 0.138357
O80   O     O_3   0.104107 0.236158 0.709129 -0.569809
C156  C     C_3   0.069924 0.285170 0.707939 -0.329841
H146  H     H_    0.039389 0.289026 0.656287 0.168253
H147  H     H_    0.107435 0.318885 0.710496 0.133656
H148  H     H_    0.030810 0.287921 0.754257 0.173447
O81   O     O_3   0.140399 0.176744 0.258707 -0.570541
C157  C     C_3   0.082142 0.196863 0.300965 -0.212967
H149  H     H_    0.098939 0.206994 0.357159 0.105428
H150  H     H_    0.039176 0.167103 0.305418 0.190153
H151  H     H_    0.057619 0.231631 0.275547 0.185160
O82   O     O_3   0.884560 0.794514 0.717871 -0.539544
C158  C     C_3   0.937514 0.758177 0.695542 -0.201651
H152  H     H_    0.939991 0.756515 0.635053 0.162570
H153  H     H_    0.929185 0.718687 0.718449 0.107472
H154  H     H_    0.991322 0.771599 0.714299 0.180342
O83   O     O_3   0.869668 0.184684 0.733232 -0.560535
C159  C     C_3   0.926886 0.202935 0.688635 -0.118842
H155  H     H_    0.931379 0.245701 0.687914 0.090993
H156  H     H_    0.921022 0.188088 0.632266 0.177826
H157  H     H_    0.978420 0.187175 0.710098 0.217221
O84   O     O_3   0.108387 0.776266 0.289429 -0.532290
C160  C     C_3   0.068968 0.730554 0.302784 -0.177667
H158  H     H_    0.021737 0.740052 0.338193 0.233704
H159  H     H_    0.100813 0.700230 0.331540 0.079007
H160  H     H_    0.048685 0.714618 0.250748 0.149430
O85   O     O_3   0.413096 0.947618 0.601408 -0.559088
C161  C     C_3   0.454371 0.925222 0.658065 -0.264207
H161  H     H_    0.420633 0.924596 0.708590 0.204276
H162  H     H_    0.505036 0.946721 0.670760 0.103197
H163  H     H_    0.468030 0.884659 0.644621 0.159117
O86   O     O_3   0.581028 0.053367 0.394392 -0.575973
C162  C     C_3   0.654314 0.062540 0.412648 -0.215795
H164  H     H_    0.689743 0.047189 0.368503 0.166602
H165  H     H_    0.672066 0.045457 0.465656 0.123514
H166  H     H_    0.663807 0.104712 0.414493 0.204265
O87   O     O_3   0.579794 0.946605 0.393986 -0.581226
C163  C     C_3   0.652666 0.935585 0.412149 -0.210058
H167  H     H_    0.663003 0.893975 0.402793 0.197189
H168  H     H_    0.667621 0.944346 0.469757 0.133239
H169  H     H_    0.689397 0.957011 0.374648 0.164528
O88   O     O_3   0.411358 0.053227 0.598251 -0.535005
C164  C     C_3   0.449338 0.067705 0.661469 -0.274568
H170  H     H_    0.412408 0.090788 0.696714 0.179200
H171  H     H_    0.497237 0.092184 0.648241 0.115379
H172  H     H_    0.466348 0.033408 0.693535 0.155886
O89   O     O_3   0.876266 0.447272 0.052546 -0.516126
C165  C     C_3   0.880470 0.427915 0.124678 -0.222921
H173  H     H_    0.861830 0.457464 0.164176 0.146214
H174  H     H_    0.935573 0.413846 0.139739 0.084216
H175  H     H_    0.842982 0.394670 0.129949 0.191654
O90   O     O_3   0.132594 0.551567 0.983590 -0.560895
C166  C     C_3   0.167403 0.560554 0.051019 -0.280468
H176  H     H_    0.220653 0.578968 0.039801 0.189427
H177  H     H_    0.177584 0.524313 0.081771 0.117015
H178  H     H_    0.135604 0.586914 0.086814 0.169940
O91   O     O_3   0.120887 0.448580 0.950514 -0.558126
C167  C     C_3   0.180044 0.437869 0.996712 -0.134976
H179  H     H_    0.205997 0.401569 0.978046 0.188234
H180  H     H_    0.164320 0.432172 0.055209 0.130801
H181  H     H_    0.221527 0.468564 0.991099 0.162667
O92   O     O_3   0.877868 0.552024 0.058983 -0.513738
C168  C     C_3   0.887324 0.569879 0.131072 -0.240044
H182  H     H_    0.834491 0.584565 0.151851 0.186262
H183  H     H_    0.926680 0.602102 0.132744 0.120172
H184  H     H_    0.905635 0.538897 0.168765 0.102084

loop_
_geom_bond_atom_site_label_1
_geom_bond_atom_site_label_2
_geom_bond_distance
_ccdc_geom_bond_type
C104  C109  1.408681 A    
Zn6   O16   1.933530 S    
O83   C159  1.408752 S    
C125  H51   1.111446 S    
O69   C145  1.411651 S    
Zn7   O13   1.933160 S    
C146  H117  1.116737 S    
O89   C165  1.413424 S    
N8    H29   1.030521 S    
Zn5   O51   1.940393 S    
O34   C11   1.278020 A    
C42   C50   1.418531 A    
C46   C47   1.392739 A    
C134  H81   1.114179 S    
O85   C161  1.414296 S    
C168  H184  1.111307 S    
C5    C92   1.465477 S    
O54   C130  1.415321 S    
O74   C150  1.417752 S    
C6    C91   1.465390 S    
C154  H141  1.112568 S    
C24   C51   1.454766 S    
C53   O53   1.386485 S    
C81   O81   1.384100 S    
C38   C39   1.401758 A    
N16   H61   1.030799 S    
Zn5   O20   1.951713 S    
C26   C43   1.423313 A    
C128  H64   1.110111 S    
Zn6   O19   1.951714 S    
C145  H115  1.109441 S    
C69   O69   1.385390 S    
O23   C6    1.280963 A    
C42   C43   1.392961 A    
C108  C111  1.412702 A    
C27   C35   1.415242 A    
C117  H20   1.111111 S    
C67   C100  1.411077 A    
C103  C110  1.410165 A    
C76   C92   1.405102 A    
C135  H85   1.112146 S    
C115  H12   1.110010 S    
C29   C37   1.411752 A    
C70   C86   1.409233 A    
N4    H13   1.030642 S    
C156  H147  1.117425 S    
C116  H16   1.111400 S    
C74   C90   1.415657 A    
O11   C7    1.277035 A    
C147  H119  1.114402 S    
C144  H111  1.114457 S    
O65   C141  1.409552 S    
C158  H154  1.109653 S    
C14   C99   1.467144 S    
C118  H23   1.109637 S    
C15   C98   1.467702 S    
C53   C86   1.408600 A    
C166  H176  1.109335 S    
C22   C49   1.471215 S    
Zn16  O33   1.930412 S    
Zn14  O30   1.946770 S    
C148  H124  1.111086 S    
C25   C33   1.415427 A    
O66   C142  1.417280 S    
C80   O80   1.382053 S    
N14   C126  1.445303 S    
C140  H98   1.108627 S    
Zn12  O24   1.949690 S    
C164  H172  1.110329 S    
C113  H2    1.111218 S    
C160  H158  1.108038 S    
N9    H33   1.029218 S    
O16   C12   1.278410 A    
C56   C80   1.393528 A    
O40   C18   1.280136 A    
C134  H80   1.109063 S    
Zn16  O4    1.952620 S    
C160  H160  1.108322 S    
O68   C144  1.410620 S    
C66   C97   1.416032 A    
C69   C85   1.406744 A    
O64   C140  1.408609 S    
C57   C81   1.397272 A    
C72   C88   1.402559 A    
C73   C89   1.410523 A    
O84   C160  1.411339 S    
C155  H144  1.109074 S    
Zn7   O3    1.950884 S    
C28   C36   1.416820 A    
C53   C77   1.398649 A    
C133  H77   1.113622 S    
C120  H32   1.111032 S    
C62   C70   1.399367 A    
C75   O75   1.382614 S    
C20   C111  1.467288 S    
N13   C125  1.449801 S    
C28   C41   1.425233 A    
C140  H100  1.109049 S    
O49   C23   1.293131 A    
C137  H91   1.108652 S    
C35   N1    1.424017 S    
Zn3   O10   1.949107 S    
C56   O56   1.385683 S    
O42   C20   1.291159 A    
C73   O73   1.385012 S    
C152  H134  1.107378 S    
C30   C38   1.413428 A    
O33   C12   1.277782 A    
Zn10  O22   1.946770 S    
C163  H167  1.109538 S    
C56   C87   1.408566 A    
O35   C10   1.277842 A    
Zn8   O14   1.933161 S    
C65   C98   1.415390 A    
Zn13  O29   1.946768 S    
C77   C93   1.408475 A    
C63   C96   1.405894 A    
Zn10  O2    1.956393 S    
C83   C99   1.413990 A    
C143  H107  1.116569 S    
O52   C24   1.273110 A    
Zn3   O1    1.950884 S    
C121  H36   1.111169 S    
C54   C78   1.396681 A    
O43   C19   1.285242 A    
C39   N5    1.424197 S    
C25   C44   1.420793 A    
C115  H10   1.110475 S    
O41   C19   1.281258 A    
O63   C139  1.414149 S    
C61   C69   1.397075 A    
C26   C34   1.415875 A    
C68   C76   1.391726 A    
N3    H9    1.031015 S    
O37   C17   1.279331 A    
C78   O78   1.385483 S    
C149  H125  1.113202 S    
C34   N4    1.423579 S    
C147  H121  1.106030 S    
C62   O62   1.386479 S    
C32   N16   1.424959 S    
C74   O74   1.388679 S    
C102  O86   1.385992 S    
C31   C46   1.428497 A    
Zn4   O9    1.949106 S    
O44   C20   1.277517 A    
C103  O87   1.386296 S    
O72   C148  1.413086 S    
C101  O85   1.385842 S    
C124  H46   1.109867 S    
O80   C156  1.418129 S    
O45   C21   1.276340 A    
C126  H54   1.110353 S    
C127  H60   1.111251 S    
C136  H87   1.115949 S    
Zn13  O41   1.938355 S    
O70   C146  1.416109 S    
C82   C98   1.410885 A    
O32   C13   1.279553 A    
N11   H41   1.029776 S    
Zn16  O44   1.940261 S    
C114  H7    1.112154 S    
C106  C107  1.393988 A    
C137  H90   1.109852 S    
C59   C83   1.398652 A    
C60   C84   1.395692 A    
C151  H131  1.110507 S    
C72   O72   1.382380 S    
C28   N12   1.428765 S    
C9    C96   1.451667 S    
C67   C75   1.396483 A    
C10   C95   1.453820 S    
C122  H38   1.110679 S    
C130  H70   1.109140 S    
C116  H15   1.111139 S    
C135  H84   1.108388 S    
C128  H62   1.107209 S    
C140  H99   1.112549 S    
C157  H150  1.109298 S    
C117  H18   1.111353 S    
N5    C117  1.444585 S    
C152  H136  1.110490 S    
C8    C89   1.463169 S    
C32   C40   1.413347 A    
C1    C88   1.447407 S    
C70   O70   1.387366 S    
C165  H173  1.107640 S    
C2    C87   1.459064 S    
C80   C96   1.409751 A    
C163  H169  1.108073 S    
C81   C97   1.416039 A    
O92   C168  1.412601 S    
C113  H4    1.110847 S    
O38   C18   1.284029 A    
O36   C9    1.280726 A    
O50   C24   1.276284 A    
N7    H25   1.029886 S    
C3    C86   1.451102 S    
C143  H109  1.109603 S    
C48   C52   1.441125 A    
O5    C1    1.281198 A    
C138  H93   1.116408 S    
C131  H72   1.110024 S    
C132  H74   1.108157 S    
C166  H178  1.111209 S    
C157  H151  1.110621 S    
Zn4   O6    1.933161 S    
C38   N8    1.425747 S    
C71   C87   1.409805 A    
C146  H116  1.107466 S    
C123  H44   1.111179 S    
O47   C21   1.272977 A    
C145  H114  1.108501 S    
N15   C127  1.446223 S    
C47   C51   1.413327 A    
C142  H105  1.115319 S    
O82   C158  1.414108 S    
C146  H118  1.109802 S    
C153  H138  1.109560 S    
C71   O71   1.384114 S    
C159  H155  1.112852 S    
O8    C4    1.276078 A    
C105  O89   1.385643 S    
O78   C154  1.411284 S    
C58   C89   1.414557 A    
C124  H48   1.110849 S    
C55   C79   1.396241 A    
O88   C164  1.410666 S    
C126  H56   1.110947 S    
C63   O63   1.383991 S    
C127  H58   1.109510 S    
N8    C120  1.448532 S    
C107  C112  1.410663 A    
C68   C99   1.410770 A    
C168  H183  1.108611 S    
C141  H103  1.108633 S    
C65   O65   1.385025 S    
Zn1   O1    1.943634 S    
C43   C49   1.432522 A    
C150  H130  1.108891 S    
Zn4   O2    1.950883 S    
C79   C95   1.408367 A    
O77   C153  1.415653 S    
C119  H28   1.111099 S    
C58   C82   1.394567 A    
C30   C47   1.422255 A    
C151  H133  1.107999 S    
C108  O92   1.384536 S    
C128  H63   1.110908 S    
O9    C5    1.285377 A    
C34   C35   1.406453 A    
C54   C85   1.408865 A    
C63   C71   1.392278 A    
O13   C9    1.281422 A    
C167  H179  1.109060 S    
C122  H40   1.111357 S    
C130  H68   1.109795 S    
C117  H19   1.110270 S    
C129  H65   1.116331 S    
O18   C14   1.278968 A    
O86   C162  1.415254 S    
C59   C92   1.413028 A    
O6    C2    1.277577 A    
C125  H50   1.108523 S    
C60   C91   1.410720 A    
C115  H11   1.108310 S    
C30   N14   1.421225 S    
C156  H146  1.108929 S    
C66   O66   1.387792 S    
O48   C22   1.280118 A    
C147  H120  1.108633 S    
C144  H110  1.108209 S    
C41   C49   1.434880 A    
C158  H153  1.115843 S    
C118  H22   1.109428 S    
Zn15  O3    1.952622 S    
C78   C94   1.406842 A    
C29   N13   1.419015 S    
C132  H76   1.111567 S    
C148  H123  1.110723 S    
C26   N10   1.428043 S    
C104  O88   1.384783 S    
C130  H69   1.115175 S    
C123  H42   1.110214 S    
Zn4   O46   1.936737 S    
O24   C5    1.274776 A    
Zn11  O26   1.930410 S    
C116  H14   1.110324 S    
C164  H171  1.112687 S    
C161  H161  1.109397 S    
C16   C97   1.469326 S    
C19   C112  1.461277 S    
C45   C51   1.429168 A    
O71   C147  1.403472 S    
C160  H159  1.114109 S    
C129  H67   1.108676 S    
Zn1   O12   1.951713 S    
N10   H37   1.029721 S    
Zn2   O11   1.951714 S    
C159  H157  1.108060 S    
C55   C88   1.405192 A    
N1    C113  1.447117 S    
O62   C138  1.416000 S    
C125  H52   1.110641 S    
C133  H78   1.109511 S    
C139  H97   1.108026 S    
C84   C100  1.412531 A    
C33   N3    1.424419 S    
C134  H82   1.108508 S    
N12   C124  1.446819 S    
Zn14  O42   1.938355 S    
Zn13  O3    1.956391 S    
C102  C109  1.408929 A    
O87   C163  1.414911 S    
C84   O84   1.382169 S    
Zn14  O4    1.956393 S    
C154  H142  1.109028 S    
O67   C143  1.416848 S    
C106  O90   1.383793 S    
O19   C15   1.283726 A    
O90   C166  1.416744 S    
C139  H95   1.113942 S    
C105  C112  1.413987 A    
C18   C109  1.457389 S    
O59   C135  1.412246 S    
C133  H79   1.109005 S    
C163  H168  1.116765 S    
O39   C17   1.284699 A    
C131  H73   1.108982 S    
Zn12  O25   1.930412 S    
O7    C3    1.278237 A    
C66   C74   1.398364 A    
Zn13  O36   1.931788 S    
C57   O57   1.389435 S    
Zn14  O35   1.931787 S    
C58   O58   1.383217 S    
C167  H181  1.108827 S    
C59   O59   1.382643 S    
O51   C23   1.272013 A    
O28   C1    1.278586 A    
C121  H35   1.110897 S    
C29   C48   1.431961 A    
C54   O54   1.383749 S    
C55   O55   1.383291 S    
C7    C90   1.464958 S    
O21   C8    1.276388 A    
C156  H148  1.109840 S    
Zn7   O18   1.949107 S    
C64   C95   1.410659 A    
C11   C94   1.450836 S    
C149  H126  1.109332 S    
O12   C8    1.280546 A    
C119  H26   1.110430 S    
C144  H112  1.108201 S    
Zn11  O39   1.940261 S    
C118  H24   1.111716 S    
O75   C151  1.409209 S    
Zn11  O1    1.952622 S    
C4    C85   1.450892 S    
C57   C90   1.410551 A    
Zn15  O43   1.940261 S    
O76   C152  1.420216 S    
C27   C42   1.422197 A    
C75   C91   1.412780 A    
Zn5   O3    1.943634 S    
C64   C72   1.394322 A    
C31   C39   1.413567 A    
C65   C73   1.395484 A    
C67   O67   1.386673 S    
C149  H127  1.110115 S    
C167  H180  1.115805 S    
N2    H5    1.031368 S    
N9    C121  1.446555 S    
C127  H59   1.111239 S    
C136  H86   1.109691 S    
N13   H49   1.030661 S    
O26   C3    1.277587 A    
C13   C100  1.464199 S    
C114  H6    1.109599 S    
O30   C15   1.275848 A    
C155  H143  1.114805 S    
C151  H132  1.111594 S    
C102  C103  1.402065 A    
N4    C116  1.446497 S    
C161  H163  1.109610 S    
C46   C52   1.430209 A    
C61   O61   1.383848 S    
C79   O79   1.382840 S    
C142  H104  1.107863 S    
Zn8   O50   1.936737 S    
Zn2   O2    1.943636 S    
O57   C133  1.411867 S    
C154  H140  1.108892 S    
Zn15  O31   1.949691 S    
C162  H165  1.116661 S    
Zn16  O32   1.949690 S    
O81   C157  1.417058 S    
N5    H17   1.030602 S    
O60   C136  1.414791 S    
C152  H135  1.117624 S    
Zn8   O4    1.950883 S    
C165  H174  1.115115 S    
O61   C137  1.413145 S    
C141  H102  1.107680 S    
O56   C132  1.413369 S    
C113  H3    1.110419 S    
C64   O64   1.382760 S    
Zn7   O49   1.936737 S    
N1    H1    1.030791 S    
Zn15  O34   1.930410 S    
C162  H166  1.109110 S    
C120  H31   1.109947 S    
N6    H21   1.029339 S    
N3    C115  1.447275 S    
C165  H175  1.109532 S    
O79   C155  1.414461 S    
N15   H57   1.030244 S    
C68   O68   1.385601 S    
C45   C48   1.420278 A    
Zn6   O52   1.940393 S    
N10   C122  1.445793 S    
C153  H139  1.116630 S    
C164  H170  1.109424 S    
Zn1   O47   1.940393 S    
C143  H108  1.109647 S    
C159  H156  1.109026 S    
O22   C7    1.281429 A    
Zn3   O45   1.936737 S    
C37   C40   1.400532 A    
C124  H47   1.110500 S    
C76   O76   1.378483 S    
Zn2   O48   1.940393 S    
C139  H96   1.111239 S    
C41   C44   1.392441 A    
C158  H152  1.108620 S    
C126  H55   1.111267 S    
C17   C110  1.456930 S    
C136  H88   1.108806 S    
C123  H43   1.110987 S    
C168  H182  1.109145 S    
N11   C123  1.445579 S    
C114  H8    1.110578 S    
C150  H129  1.116556 S    
C137  H89   1.112234 S    
C119  H27   1.110928 S    
O91   C167  1.412597 S    
C155  H145  1.108554 S    
Zn6   O4    1.943636 S    
Zn9   O21   1.946768 S    
C120  H30   1.109503 S    
Zn11  O23   1.949691 S    
O73   C149  1.414770 S    
Zn12  O40   1.940261 S    
O25   C4    1.278967 A    
C62   C93   1.409459 A    
Zn9   O1    1.956391 S    
N6    C118  1.449804 S    
C27   N11   1.428184 S    
Zn1   O7    1.933532 S    
O27   C2    1.288766 A    
C122  H39   1.111143 S    
O55   C131  1.413516 S    
Zn2   O8    1.933530 S    
C101  C104  1.398371 A    
C129  H66   1.108530 S    
Zn3   O5    1.933160 S    
O29   C16   1.278894 A    
N14   H53   1.025040 S    
C82   O82   1.386419 S    
C101  C110  1.410956 A    
C40   N6    1.431563 S    
C83   O83   1.386790 S    
C135  H83   1.109391 S    
C157  H149  1.109659 S    
C105  C108  1.395361 A    
C25   N9    1.429362 S    
N16   C128  1.447918 S    
C36   N2    1.426483 S    
O58   C134  1.413011 S    
C31   N15   1.426239 S    
Zn9   O28   1.931788 S    
Zn10  O27   1.931787 S    
C153  H137  1.106794 S    
O31   C14   1.282679 A    
C32   C45   1.433007 A    
N12   H45   1.029412 S    
O15   C11   1.277141 A    
C107  O91   1.388874 S    
N7    C119  1.446381 S    
C37   N7    1.426940 S    
C60   O60   1.386436 S    
C138  H94   1.108628 S    
C131  H71   1.113005 S    
C162  H164  1.108575 S    
C132  H75   1.110657 S    
C148  H122  1.108230 S    
C44   C50   1.417060 A    
O20   C16   1.281717 A    
O46   C22   1.281968 A    
O10   C6    1.279060 A    
C61   C94   1.410131 A    
C138  H92   1.107979 S    
Zn8   O17   1.949106 S    
C145  H113  1.114228 S    
Zn10  O38   1.938355 S    
C161  H162  1.115443 S    
C12   C93   1.451892 S    
N2    C114  1.450026 S    
O14   C10   1.285709 A    
Zn9   O37   1.938355 S    
C21   C50   1.450265 S    
C77   O77   1.385859 S    
C141  H101  1.115142 S    
C142  H106  1.108827 S    
Zn12  O2    1.952620 S    
C121  H34   1.110390 S    
C166  H177  1.110525 S    
C23   C52   1.479873 S    
C33   C36   1.411291 A    
O53   C129  1.415267 S    
O17   C13   1.280042 A    
C106  C111  1.416779 A    
C150  H128  1.106917 S    
Zn5   O15   1.933532 S    
