data_mof_unit_52636.cif
_audit_creation_date              2012-12-10T18:22:34-0500
_audit_creation_method            fapswitch 2.2
_symmetry_space_group_name_H-M    P1
_symmetry_Int_Tables_number       1
_space_group_crystal_system       triclinic
_cell_length_a                    23.49045
_cell_length_b                    10.650736
_cell_length_c                    9.51897
_cell_angle_alpha                 90.069728
_cell_angle_beta                  90.100787
_cell_angle_gamma                 89.933595
_cell_volume                      2381.54959746

loop_
_atom_site_label
_atom_site_type_symbol
_atom_type_description
_atom_site_fract_x
_atom_site_fract_y
_atom_site_fract_z
_atom_type_partial_charge
C1    C     C_R   0.499831 0.260197 0.499992 0.851570
C2    C     C_R   0.500168 0.739803 0.500008 0.851574
C3    C     C_R   0.240652 0.599934 0.564319 0.570751
C4    C     C_R   0.759354 0.400101 0.435694 0.570820
C5    C     C_R   0.299948 0.596651 0.563627 0.432185
C6    C     C_R   0.700058 0.403369 0.436382 0.432172
C7    C     C_R   0.328969 0.495750 0.500823 -0.319666
C8    C     C_R   0.671031 0.504266 0.499179 -0.319670
C9    C     C_R   0.297653 0.394931 0.441552 -0.077291
C10   C     C_R   0.702341 0.605095 0.558445 -0.077277
C11   C     C_R   0.237985 0.400357 0.441796 0.622491
C12   C     C_R   0.762009 0.599687 0.558203 0.622448
C13   C     C_R   0.209636 0.502328 0.502736 -0.025695
C14   C     C_R   0.790364 0.497719 0.497271 -0.025723
C15   C     C_3   0.549139 0.041750 0.554329 -0.033330
C16   C     C_3   0.450859 0.958250 0.445669 -0.033326
C17   C     C_3   0.543665 0.958887 0.421882 -0.025559
C18   C     C_3   0.456333 0.041113 0.578117 -0.025559
C19   C     C_3   0.500208 0.876072 0.499389 -0.243176
C20   C     C_3   0.499791 0.123928 0.500610 -0.243176
C21   C     C_3   0.505683 0.958605 0.631389 0.687726
C22   C     C_3   0.494315 0.041395 0.368610 0.687722
C23   C     C_R   0.391394 0.497849 0.500068 0.908904
C24   C     C_R   0.608606 0.502152 0.499932 0.908910
C25   C     C_3   0.498041 0.612357 0.050007 0.733564
C26   C     C_3   0.501959 0.387642 0.949993 0.733564
C27   C     C_3   0.454737 0.552852 0.950232 -0.022562
C28   C     C_3   0.545263 0.447148 0.049768 -0.022555
C29   C     C_3   0.543341 0.559971 0.950928 0.048904
C30   C     C_3   0.456659 0.440029 0.049072 0.048906
C31   C     C_R   0.879454 0.532384 0.377723 0.693192
C32   C     C_R   0.120547 0.467654 0.622279 0.693189
C33   C     C_R   0.879604 0.458807 0.614192 0.701775
C34   C     C_R   0.120398 0.541328 0.385843 0.701767
C35   C     C_R   0.939434 0.460181 0.618475 -0.161959
C36   C     C_R   0.060567 0.539968 0.381565 -0.161939
C37   C     C_R   0.969837 0.498899 0.498130 -0.109169
C38   C     C_R   0.030164 0.501235 0.501904 -0.109153
C39   C     C_R   0.939878 0.534833 0.374270 -0.082497
C40   C     C_R   0.060122 0.465289 0.625759 -0.082508
C41   C     C_R   0.969017 0.424499 0.740689 0.644220
C42   C     C_R   0.030984 0.575700 0.259369 0.644172
C43   C     C_R   0.028682 0.427895 0.746827 0.002546
C44   C     C_R   0.971319 0.572312 0.253231 0.002596
Cu1   Cu    Cu3+1 0.500010 0.499990 0.643150 1.003860
Cu2   Cu    Cu3+1 0.499990 0.500010 0.356850 1.003858
N1    N     N_R   0.851415 0.495006 0.495880 -0.418019
N2    N     N_R   0.148586 0.505062 0.504133 -0.418011
N3    N     N_3   0.500040 0.499970 0.858290 -0.247361
N4    N     N_3   0.499960 0.500030 0.141710 -0.247360
O1    O     O_R   0.500030 0.316850 0.620870 -0.525824
O2    O     O_R   0.499970 0.683150 0.379130 -0.525822
O3    O     O_R   0.500000 0.316860 0.379090 -0.561910
O4    O     O_R   0.500000 0.683140 0.620910 -0.561909
O5    O     O_R   0.417890 0.499960 0.620920 -0.568798
O6    O     O_R   0.582110 0.500040 0.379080 -0.568802
O7    O     O_R   0.417870 0.499970 0.379140 -0.586018
O8    O     O_R   0.582130 0.500030 0.620860 -0.586017
O9    O     O_2   0.848281 0.568110 0.265711 -0.511682
O10   O     O_2   0.151718 0.431800 0.734245 -0.511735
O11   O     O_2   0.849340 0.422222 0.727358 -0.419677
O12   O     O_2   0.150662 0.577957 0.272694 -0.419700
F1    F     F_    0.939679 0.385067 0.855449 -0.625985
F2    F     F_    0.060323 0.615169 0.144625 -0.626017
C45   C     C_3   0.401830 0.619756 0.896587 -0.540845
H1    H     H_    0.380206 0.667142 0.985668 0.217917
H2    H     H_    0.413918 0.691367 0.817598 0.286409
H3    H     H_    0.371829 0.550757 0.850462 0.237178
C46   C     C_3   0.598170 0.380245 0.103414 -0.540853
H4    H     H_    0.619794 0.332858 0.014333 0.217919
H5    H     H_    0.628171 0.449244 0.149537 0.237180
H6    H     H_    0.586082 0.308634 0.182405 0.286398
F3    F     F_    0.495498 0.732803 0.103711 -0.625825
F4    F     F_    0.504502 0.267197 0.896289 -0.625822
C47   C     C_3   0.593989 0.634253 0.898446 -0.685986
H7    H     H_    0.615112 0.681296 0.988598 0.224182
H8    H     H_    0.625127 0.569993 0.848629 0.236764
H9    H     H_    0.579381 0.706746 0.823230 0.277921
C48   C     C_3   0.406010 0.365748 0.101554 -0.685986
H10   H     H_    0.384887 0.318704 0.011403 0.224183
H11   H     H_    0.420618 0.293256 0.176774 0.277921
H12   H     H_    0.374873 0.430009 0.151369 0.236759
C49   C     C_3   0.056930 0.391741 0.884339 -0.556005
H13   H     H_    0.026217 0.370464 0.969369 0.255382
H14   H     H_    0.083207 0.306076 0.869499 0.252379
H15   H     H_    0.083421 0.470645 0.923346 0.290197
C50   C     C_3   0.943069 0.608621 0.115768 -0.556167
H16   H     H_    0.973780 0.630105 0.030795 0.255397
H17   H     H_    0.916616 0.529722 0.076591 0.290263
H18   H     H_    0.916755 0.694212 0.130763 0.252337
F5    F     F_    0.213162 0.698408 0.624333 -0.567805
F6    F     F_    0.786850 0.301630 0.375690 -0.567770
F7    F     F_    0.329170 0.692891 0.623109 -0.652859
F8    F     F_    0.670841 0.307119 0.376904 -0.652849
C51   C     C_3   0.325386 0.278187 0.383595 -0.696141
H19   H     H_    0.372192 0.277430 0.397180 0.192005
H20   H     H_    0.308301 0.194544 0.438687 0.255515
H21   H     H_    0.315153 0.268861 0.270242 0.259844
C52   C     C_3   0.674602 0.721833 0.616398 -0.696150
H22   H     H_    0.627796 0.722579 0.602810 0.192009
H23   H     H_    0.684834 0.731164 0.729751 0.259846
H24   H     H_    0.691683 0.805480 0.561306 0.255507
F9    F     F_    0.207086 0.305008 0.385230 -0.609154
F10   F     F_    0.792902 0.695048 0.614762 -0.609172
C53   C     C_3   0.592182 0.914229 0.328699 -0.647088
H25   H     H_    0.617289 0.996208 0.292519 0.262875
H26   H     H_    0.620196 0.849719 0.387972 0.196720
H27   H     H_    0.574789 0.864014 0.236029 0.290453
C54   C     C_3   0.407816 0.085773 0.671294 -0.647078
H28   H     H_    0.382711 0.003793 0.707484 0.262885
H29   H     H_    0.425207 0.136001 0.763958 0.290444
H30   H     H_    0.379800 0.150273 0.612011 0.196719
C55   C     C_3   0.604347 0.088540 0.619260 -0.656596
H31   H     H_    0.630923 0.007266 0.651344 0.234463
H32   H     H_    0.627927 0.145410 0.541439 0.268399
H33   H     H_    0.594816 0.147128 0.712822 0.270823
C56   C     C_3   0.395652 0.911462 0.380736 -0.656590
H34   H     H_    0.369076 0.992737 0.348653 0.234463
H35   H     H_    0.405183 0.852874 0.287175 0.270821
H36   H     H_    0.372071 0.854592 0.458557 0.268402
F11   F     F_    0.511556 0.915260 0.767593 -0.606545
F12   F     F_    0.488443 0.084741 0.232406 -0.606545

loop_
_geom_bond_atom_site_label_1
_geom_bond_atom_site_label_2
_ccdc_geom_bond_type
C50   H16   S    
C56   H34   S    
C18   C21   S    
C43   C49   S    
C36   C42   A    
C51   H19   S    
C18   C54   S    
C51   H21   S    
C29   N3    S    
Cu1   Cu2   S    
C53   H26   S    
C28   C29   S    
C19   C21   S    
C25   F3    S    
C12   F10   S    
C54   H29   S    
C33   C35   A    
Cu1   O1    S    
Cu2   O2    S    
C34   O12   S    
C3    F5    S    
C31   O9    S    
C46   H5    S    
C1    O3    A    
C25   N4    S    
C26   F4    S    
C28   N4    S    
C40   C43   A    
C49   H13   S    
C45   H2    S    
C15   C55   S    
C44   C50   S    
C9    C51   S    
C34   C36   A    
C3    C13   A    
C55   H33   S    
C30   N4    S    
C31   N1    A    
C26   N3    S    
C27   C30   S    
C4    C14   A    
C32   N2    A    
C46   H4    S    
C42   C44   A    
C22   F12   S    
C25   C29   S    
C15   C20   S    
C53   H27   S    
Cu1   O8    S    
C24   O8    A    
C4    C6    A    
C2    O4    A    
C56   H36   S    
C48   H11   S    
C17   C19   S    
C6    C8    A    
C6    F8    S    
C46   H6    S    
C47   H7    S    
C37   C38   A    
C27   C45   S    
C17   C53   S    
C13   N2    S    
C47   H8    S    
C52   H22   S    
Cu1   N3    S    
C45   H3    S    
C52   H24   S    
C28   C46   S    
C9    C11   A    
C39   C44   A    
C10   C12   A    
C23   O7    A    
C30   C48   S    
C33   O11   S    
C49   H14   S    
C12   C14   A    
Cu1   O4    S    
C26   C30   S    
C50   H17   S    
Cu2   O7    S    
C33   N1    A    
C54   H30   S    
C24   O6    A    
C41   F1    S    
C42   F2    S    
C5    C7    A    
C55   H31   S    
C15   C17   S    
C1    C20   S    
C16   C22   S    
C35   C37   A    
C2    C19   S    
C8    C10   A    
C41   C43   A    
C20   C22   S    
C3    C5    A    
C48   H12   S    
C5    F7    S    
C51   H20   S    
C23   O5    A    
C14   N1    S    
C29   C47   S    
C25   C27   S    
C53   H25   S    
Cu2   N4    S    
C26   C28   S    
C17   C22   S    
C1    O1    A    
C2    O2    A    
C56   H35   S    
C37   C39   A    
C54   H28   S    
C38   C40   A    
C11   C13   A    
C16   C19   S    
C7    C23   S    
Cu2   O3    S    
C36   C38   A    
C8    C24   S    
C31   C39   A    
C18   C20   S    
C32   C40   A    
C21   F11   S    
C10   C52   S    
C35   C41   A    
C47   H9    S    
C48   H10   S    
C7    C9    A    
C15   C21   S    
C49   H15   S    
C34   N2    A    
Cu1   O5    S    
C16   C18   S    
C45   H1    S    
C50   H18   S    
Cu2   O6    S    
C32   O10   S    
C11   F9    S    
C4    F6    S    
C16   C56   S    
C52   H23   S    
C27   N3    S    
C55   H32   S    
