data_mof_unit_29684.cif
_audit_creation_date              2012-12-10T18:14:38-0500
_audit_creation_method            fapswitch 2.2
_symmetry_space_group_name_H-M    P1
_symmetry_Int_Tables_number       1
_space_group_crystal_system       triclinic
_cell_length_a                    10.73836
_cell_length_b                    9.528329
_cell_length_c                    27.758917
_cell_angle_alpha                 89.986849
_cell_angle_beta                  91.593054
_cell_angle_gamma                 90.282406
_cell_volume                      2839.12199571

loop_
_atom_site_label
_atom_site_type_symbol
_atom_type_description
_atom_site_fract_x
_atom_site_fract_y
_atom_site_fract_z
_atom_type_partial_charge
C1    C     C_R   0.259714 0.499574 0.499100 0.840232
C2    C     C_R   0.429473 0.431022 0.277052 -0.109867
C3    C     C_R   0.527084 0.503057 0.255089 0.335174
C4    C     C_R   0.526634 0.532900 0.103236 -0.104268
C5    C     C_R   0.425272 0.587289 0.128761 -0.190652
C6    C     C_R   0.325557 0.651075 0.102452 0.349632
C7    C     C_R   0.629382 0.474728 0.128812 0.023069
C8    C     C_R   0.512898 0.497582 0.355602 -0.058153
C9    C     C_R   0.498563 0.499419 0.645964 -0.319256
C10   C     C_R   0.409397 0.559330 0.975692 0.064332
C11   C     C_R   0.631528 0.497846 0.976040 0.043411
C12   C     C_R   0.502780 0.499640 0.407918 0.854653
C13   C     C_R   0.518216 0.525457 0.950565 0.071602
C14   C     C_R   0.294718 0.563515 0.949541 -0.162000
C15   C     C_R   0.289681 0.550882 0.899620 -0.181903
C16   C     C_R   0.398757 0.531555 0.874111 -0.024646
C17   C     C_R   0.513289 0.517762 0.899542 -0.055905
C18   C     C_R   0.622768 0.495658 0.873959 -0.046373
C19   C     C_R   0.616267 0.492210 0.823417 0.619033
C20   C     C_R   0.395810 0.522654 0.823641 0.537750
C21   C     C_R   0.460126 0.618561 0.721657 -0.271704
C22   C     C_R   0.455059 0.617514 0.671337 0.414174
C23   C     C_R   0.739509 0.500633 0.500443 0.760910
C24   C     C_R   0.540807 0.380620 0.672366 0.298720
C25   C     C_R   0.534265 0.378747 0.722868 0.444273
C26   C     C_R   0.499137 0.500270 0.747550 0.122174
C27   C     C_R   0.417996 0.581945 0.026280 -0.140618
C28   C     C_R   0.525343 0.534867 0.052100 0.010732
C29   C     C_R   0.631519 0.489124 0.027061 0.081564
C30   C     C_R   0.324798 0.653361 0.051928 0.394513
C31   C     C_R   0.731529 0.425355 0.103767 -0.119069
C32   C     C_R   0.740469 0.478261 0.949437 -0.204723
C33   C     C_R   0.736121 0.478600 0.899296 -0.140317
C34   C     C_R   0.499671 0.499909 0.592555 0.851012
C35   C     C_R   0.733312 0.433570 0.053899 -0.194101
C36   C     C_3   0.070983 0.651716 0.498273 -0.426612
C37   C     C_3   0.074501 0.423970 0.544031 -0.464167
C38   C     C_3   0.929299 0.653689 0.502444 -0.412068
C39   C     C_3   0.931163 0.417977 0.543200 -0.394863
C40   C     C_3   0.066399 0.416850 0.452240 0.938025
C41   C     C_3   0.120603 0.497932 0.497920 0.058091
C42   C     C_3   0.877158 0.501793 0.499686 0.101464
C43   C     C_3   0.919868 0.436039 0.451975 -0.508798
C44   C     C_3   0.614469 0.082888 0.525292 -0.259474
C45   C     C_3   0.620510 0.917340 0.519761 -0.292079
C46   C     C_3   0.394309 0.082310 0.527960 -0.328931
C47   C     C_3   0.403935 0.917178 0.532936 -0.301992
C48   C     C_3   0.493714 0.085311 0.450428 0.776162
C49   C     C_3   0.477602 0.915828 0.450836 0.784392
C50   C     C_R   0.429758 0.578323 0.179730 0.606087
C51   C     C_R   0.627244 0.464838 0.179097 0.539259
C52   C     C_R   0.620763 0.566888 0.283884 -0.094268
C53   C     C_R   0.614746 0.561964 0.333976 -0.300042
C54   C     C_R   0.422244 0.428943 0.327052 -0.202991
Cu1   Cu    Cu3+1 0.499860 0.642410 0.500020 0.994202
Cu2   Cu    Cu3+1 0.499860 0.357590 0.500020 0.998109
H1    H     H_    0.345370 0.375468 0.343437 0.187108
H2    H     H_    0.696925 0.622343 0.267465 0.162570
H3    H     H_    0.811109 0.379620 0.122663 0.195000
H4    H     H_    0.831270 0.466374 0.966502 0.146295
H5    H     H_    0.822091 0.463673 0.880470 0.186245
H6    H     H_    0.813844 0.390001 0.037129 0.145093
H7    H     H_    0.097128 0.707028 0.464732 0.251733
H8    H     H_    0.112156 0.315673 0.547170 0.200035
H9    H     H_    0.113017 0.711213 0.529245 0.172844
H10   H     H_    0.108299 0.482303 0.576571 0.158262
H11   H     H_    0.904290 0.703132 0.537196 0.175566
H12   H     H_    0.897225 0.463178 0.577310 0.154752
H13   H     H_    0.357768 0.379198 0.255278 0.157167
H14   H     H_    0.888619 0.719450 0.472853 0.191605
H15   H     H_    0.899360 0.306779 0.541360 0.169122
H16   H     H_    0.891801 0.509428 0.422438 0.158314
H17   H     H_    0.864768 0.340440 0.443681 0.153845
H18   H     H_    0.616420 0.110302 0.564197 0.194696
H19   H     H_    0.645945 0.869423 0.555210 0.174083
H20   H     H_    0.700789 0.129200 0.510922 0.190502
H21   H     H_    0.697288 0.890383 0.495409 0.193076
H22   H     H_    0.391708 0.129733 0.564510 0.196677
H23   H     H_    0.427383 0.891417 0.571123 0.227737
H24   H     H_    0.303658 0.109271 0.510242 0.227691
H25   H     H_    0.311052 0.869172 0.525977 0.199287
H26   H     H_    0.432172 0.711902 0.740755 0.191196
H27   H     H_    0.199653 0.556150 0.881122 0.191254
H28   H     H_    0.206701 0.570322 0.967198 0.203259
H29   H     H_    0.687604 0.611372 0.355895 0.160323
N1    N     N_R   0.528261 0.515499 0.203441 -0.474115
N2    N     N_R   0.503759 0.504433 0.799325 -0.426444
N3    N     N_3   0.500250 0.143650 0.501060 -0.171638
N4    N     N_3   0.500250 0.856350 0.501060 -0.174451
O1    O     O_R   0.317570 0.620260 0.500030 -0.569084
O2    O     O_R   0.317570 0.379740 0.500030 -0.537284
O3    O     O_R   0.499900 0.620250 0.430280 -0.504513
O4    O     O_R   0.499900 0.379750 0.430280 -0.524741
O5    O     O_R   0.682190 0.620260 0.500010 -0.593998
O6    O     O_R   0.682190 0.379740 0.500010 -0.588285
O7    O     O_R   0.499860 0.620280 0.569750 -0.553415
O8    O     O_R   0.499860 0.379720 0.569750 -0.558493
O9    O     O_2   0.337442 0.632090 0.205830 -0.464894
O10   O     O_2   0.285937 0.531558 0.799040 -0.554393
O11   O     O_2   0.722704 0.403131 0.203504 -0.541114
O12   O     O_2   0.721629 0.477802 0.798515 -0.525253
O13   O     O_3   0.586555 0.264182 0.649123 -0.553018
C55   C     C_3   0.717442 0.276432 0.648347 -0.238346
H30   H     H_    0.759719 0.276184 0.685404 0.205247
H31   H     H_    0.745986 0.372585 0.628742 0.120875
H32   H     H_    0.755175 0.184778 0.629062 0.152470
O14   O     O_3   0.571068 0.260658 0.748319 -0.540017
C56   C     C_3   0.466271 0.172728 0.753229 -0.251337
H33   H     H_    0.428622 0.137056 0.717488 0.178803
H34   H     H_    0.392239 0.225582 0.773764 0.159058
H35   H     H_    0.495199 0.078003 0.773820 0.188073
O15   O     O_3   0.116154 0.483891 0.411013 -0.604575
C57   C     C_3   0.089822 0.408947 0.367955 -0.251912
H36   H     H_    0.988565 0.389758 0.361789 0.134691
H37   H     H_    0.141515 0.308456 0.367308 0.224124
H38   H     H_    0.121801 0.472969 0.337258 0.198793
O16   O     O_3   0.113473 0.275912 0.455981 -0.563316
C58   C     C_3   0.028817 0.164995 0.446430 -0.306478
H39   H     H_    0.961642 0.154255 0.475903 0.143761
H40   H     H_    0.082160 0.065678 0.445717 0.241219
H41   H     H_    0.981341 0.175394 0.410588 0.157425
Cl1   Cl    Cl    0.357393 0.157685 0.418274 -0.636022
Cl2   Cl    Cl    0.320557 0.855615 0.431455 -0.644576
O17   O     O_3   0.612459 0.120214 0.430053 -0.598494
C59   C     C_3   0.619981 0.167177 0.381789 -0.210359
H42   H     H_    0.531439 0.179643 0.361289 0.185669
H43   H     H_    0.680033 0.094557 0.361825 0.158244
H44   H     H_    0.670243 0.269041 0.381738 0.168934
O18   O     O_3   0.568065 0.860455 0.419197 -0.575307
C60   C     C_3   0.529494 0.865207 0.369697 -0.201612
H45   H     H_    0.473044 0.957960 0.359832 0.176754
H46   H     H_    0.470918 0.773658 0.359719 0.225087
H47   H     H_    0.612927 0.863456 0.347079 0.151612
Cl3   Cl    Cl    0.198285 0.733533 0.130050 -0.486629
O19   O     O_3   0.412233 0.735543 0.647356 -0.560387
C61   C     C_3   0.281358 0.726181 0.642702 -0.319935
H48   H     H_    0.237343 0.723712 0.678535 0.182560
H49   H     H_    0.252275 0.632896 0.621011 0.141025
H50   H     H_    0.246326 0.820613 0.623396 0.166054
O20   O     O_3   0.234189 0.732277 0.028235 -0.559928
C62   C     C_3   0.285633 0.864296 0.016783 -0.234662
H51   H     H_    0.362884 0.854048 0.991139 0.149715
H52   H     H_    0.318576 0.921290 0.049791 0.178934
H53   H     H_    0.212019 0.928808 0.998967 0.191649

loop_
_geom_bond_atom_site_label_1
_geom_bond_atom_site_label_2
_ccdc_geom_bond_type
C10   C27   A    
C43   H17   S    
Cu2   O6    S    
C21   C26   A    
C38   H14   S    
C1    O1    A    
C11   C13   A    
C39   H12   S    
C14   H28   S    
Cu1   Cu2   S    
O19   C61   S    
C40   O15   S    
C52   C53   A    
C43   H16   S    
C23   C42   S    
C28   C29   A    
C34   O7    A    
C57   H36   S    
Cu1   O1    S    
C19   N2    A    
C62   H52   S    
C48   Cl1   S    
C5    C6    A    
C9    C22   A    
Cu2   N3    S    
C15   C16   A    
C49   Cl2   S    
C20   N2    A    
C34   O8    A    
C56   H33   S    
C18   C19   A    
C31   H3    S    
C44   H20   S    
C58   H39   S    
C40   C43   S    
C56   H34   S    
C16   C17   A    
C59   H44   S    
O14   C56   S    
C48   N3    S    
C47   H23   S    
C35   H6    S    
C36   H7    S    
C45   N4    S    
Cu1   O7    S    
C16   C20   A    
C57   H38   S    
C40   O16   S    
C1    O2    A    
C21   C22   A    
C3    N1    S    
C47   N4    S    
C36   C41   S    
Cu2   O8    S    
Cu1   O5    S    
C51   N1    A    
O15   C57   S    
C4    C28   A    
C39   C42   S    
C46   N3    S    
Cu2   O2    S    
Cu2   O4    S    
C50   O9    S    
C7    C31   A    
C30   O20   S    
O20   C62   S    
C61   H49   S    
C10   C14   A    
C62   H53   S    
C8    C54   A    
C46   H22   S    
C36   H9    S    
C26   N2    S    
C15   H27   S    
C4    C7    A    
C25   C26   A    
C49   O18   S    
C58   H41   S    
C61   H50   S    
C60   H46   S    
Cu1   O3    S    
C8    C12   S    
C37   H10   S    
C17   C18   A    
C55   H31   S    
C24   C25   A    
C44   H18   S    
C52   H2    S    
C1    C41   S    
C40   C41   S    
C6    C30   A    
C11   C32   A    
C2    C54   A    
C9    C34   S    
C31   C35   A    
C12   O4    A    
C60   H47   S    
C42   C43   S    
C32   H4    S    
C2    H13   S    
C27   C28   A    
C37   H8    S    
C44   C45   S    
C25   O14   S    
O18   C60   S    
C51   O11   S    
C46   C47   S    
C48   C49   S    
C12   O3    A    
C49   N4    S    
C61   H48   S    
C10   C13   A    
C8    C53   A    
C48   O17   S    
C38   H11   S    
C53   H29   S    
C3    C52   A    
C56   H35   S    
C9    C24   A    
C38   C42   S    
C29   C35   A    
C23   O5    A    
C13   C17   A    
C22   O19   S    
C45   H19   S    
C32   C33   A    
C36   C38   S    
C2    C3    A    
C7    C51   A    
C37   C39   S    
C44   N3    S    
C62   H51   S    
C46   H24   S    
C19   O12   S    
C59   H42   S    
C20   O10   S    
C33   H5    S    
C4    C5    A    
C23   O6    A    
C60   H45   S    
C55   H32   S    
C24   O13   S    
C47   H25   S    
C37   C41   S    
O13   C55   S    
C5    C50   A    
C18   C33   A    
C58   H40   S    
C50   N1    A    
C6    Cl3   S    
C21   H26   S    
C11   C29   A    
Cu1   N4    S    
C55   H30   S    
C59   H43   S    
C39   H15   S    
C14   C15   A    
C45   H21   S    
C57   H37   S    
O16   C58   S    
O17   C59   S    
C27   C30   A    
C54   H1    S    
