data_mof_unit_67968.cif
_audit_creation_date              2012-12-10T20:49:10-0500
_audit_creation_method            fapswitch 2.2
_symmetry_space_group_name_H-M    P1
_symmetry_Int_Tables_number       1
_space_group_crystal_system       triclinic
_cell_length_a                    9.004214
_cell_length_b                    8.146214
_cell_length_c                    10.588657
_cell_angle_alpha                 86.189147
_cell_angle_beta                  89.526334
_cell_angle_gamma                 89.536501
_cell_volume                      774.914750947

loop_
_atom_site_label
_atom_site_type_symbol
_atom_type_description
_atom_site_fract_x
_atom_site_fract_y
_atom_site_fract_z
_atom_type_partial_charge
C1    C     C_R   0.218090 0.500406 0.497222 0.952391
C2    C     C_3   0.644828 0.527114 0.050855 0.466835
C3    C     C_3   0.528396 0.493423 0.876268 -0.460689
C4    C     C_3   0.496895 0.510657 0.122442 -0.430791
C5    C     C_1   0.065198 0.499746 0.492893 -0.196917
C6    C     C_1   0.934992 0.498278 0.492457 -0.171053
C7    C     C_3   0.250565 0.824635 0.942562 0.108203
C8    C     C_3   0.335215 0.964148 0.869441 -0.343607
C9    C     C_3   0.233066 0.082891 0.792731 -0.853574
C10   C     C_3   0.724873 0.126125 0.036777 0.170130
C11   C     C_3   0.785172 0.167686 0.165717 -0.378019
C12   C     C_R   0.781946 0.499559 0.496256 0.952851
C13   C     C_3   0.779125 0.016631 0.259193 -0.837804
C14   C     C_3   0.732494 0.812875 0.818896 0.047709
C15   C     C_3   0.861063 0.688415 0.828138 -0.326220
C16   C     C_3   0.977227 0.735721 0.727790 -0.968666
C17   C     C_3   0.253898 0.225637 0.149715 0.165041
C18   C     C_3   0.204083 0.060545 0.215534 -0.323277
C19   C     C_3   0.140206 0.077032 0.347938 -0.893486
C20   C     C_R   0.492369 0.504654 0.257019 0.994257
C21   C     C_R   0.519991 0.496147 0.741491 1.009182
C22   C     C_3   0.421216 0.626439 0.022166 0.346351
C23   C     C_3   0.605207 0.376582 0.977150 0.313410
C24   C     C_3   0.570168 0.643675 0.950791 0.340105
C25   C     C_3   0.456105 0.359854 0.049511 0.249317
C26   C     C_3   0.379423 0.475546 0.949480 0.367734
F1    F     F_    0.244421 0.445916 0.894156 -0.703636
F2    F     F_    0.779123 0.554558 0.108124 -0.679350
H1    H     H_    0.142379 0.871645 0.976121 0.149148
H2    H     H_    0.901208 0.211539 0.154457 0.229931
H3    H     H_    0.719013 0.265695 0.205954 0.275181
H4    H     H_    0.664195 0.968188 0.266608 0.287963
H5    H     H_    0.812918 0.050553 0.354510 0.258329
H6    H     H_    0.854476 0.918413 0.227830 0.273399
H7    H     H_    0.781053 0.937553 0.816063 0.171225
H8    H     H_    0.677232 0.815141 0.726799 0.187515
H9    H     H_    0.913363 0.688431 0.922664 0.281888
H10   H     H_    0.821353 0.562975 0.812499 0.237451
H11   H     H_    0.926207 0.756157 0.633297 0.278702
H12   H     H_    0.222797 0.731164 0.876203 0.195848
H13   H     H_    0.063850 0.638434 0.725839 0.306104
H14   H     H_    0.027889 0.852540 0.750149 0.257132
H15   H     H_    0.178937 0.254177 0.068347 0.181287
H16   H     H_    0.242384 0.326541 0.214944 0.147270
H17   H     H_    0.117422 0.006043 0.157763 0.191113
H18   H     H_    0.298742 0.972106 0.223494 0.293671
H19   H     H_    0.057935 0.179176 0.348352 0.260204
H20   H     H_    0.230486 0.099311 0.414284 0.295122
H21   H     H_    0.085468 0.960379 0.381722 0.262694
H22   H     H_    0.398834 0.033727 0.935930 0.295606
H23   H     H_    0.414854 0.911704 0.802453 0.244774
H24   H     H_    0.203281 0.031459 0.702028 0.244713
H25   H     H_    0.292197 0.198772 0.768327 0.328777
H26   H     H_    0.131459 0.112905 0.847040 0.268499
H27   H     H_    0.805809 0.037539 0.000560 0.164134
H28   H     H_    0.617771 0.060901 0.046493 0.225892
N1    N     N_1   0.500000 0.073640 0.500000 -0.054603
N2    N     N_1   0.500000 0.926360 0.500000 -0.066433
O1    O     O_R   0.285350 0.636850 0.500000 -0.613980
O2    O     O_3   0.716441 0.261719 0.946215 -0.636353
O3    O     O_3   0.630431 0.801883 0.921465 -0.651497
O4    O     O_3   0.402193 0.209963 0.107107 -0.639589
O5    O     O_R   0.714650 0.363150 0.500000 -0.624711
O6    O     O_R   0.714650 0.636850 0.500000 -0.640321
O7    O     O_R   0.285350 0.363150 0.500000 -0.637563
O8    O     O_R   0.499970 0.636850 0.313950 -0.592029
O9    O     O_R   0.500030 0.363150 0.686050 -0.600580
O10   O     O_R   0.500030 0.636850 0.686050 -0.653484
O11   O     O_R   0.499970 0.363150 0.313950 -0.610810
O12   O     O_3   0.329017 0.760386 0.050955 -0.623923
Zn1   Zn    Zn3+2 0.500000 0.682780 0.500000 0.963391
Zn2   Zn    Zn3+2 0.500000 0.317220 0.500000 0.972487

loop_
_geom_bond_atom_site_label_1
_geom_bond_atom_site_label_2
_ccdc_geom_bond_type
O11   Zn2   S    
C1    O7    A    
C7    H12   S    
C17   H15   S    
C15   H10   S    
C13   H5    S    
C24   O3    S    
C7    H1    S    
C16   H14   S    
C17   O4    S    
O7    Zn2   S    
C10   H28   S    
C19   H21   S    
C13   H4    S    
C3    C23   S    
O8    Zn1   S    
C14   H7    S    
C10   O2    S    
C10   C11   S    
C7    O12   S    
C1    O1    A    
C4    C25   S    
N1    N2    T    
C17   H16   S    
C11   H3    S    
C13   H6    S    
C21   O10   A    
C21   O9    A    
C2    C24   S    
C10   H27   S    
C11   C13   S    
C8    H23   S    
C26   F1    S    
C5    C6    T    
C9    H24   S    
O10   Zn1   S    
C1    C5    S    
C2    C4    S    
C18   H18   S    
C20   O8    A    
C3    C24   S    
C17   C18   S    
C22   C24   S    
C25   O4    S    
C23   C25   S    
N1    Zn2   S    
C6    C12   S    
C23   O2    S    
C12   O6    A    
C19   H19   S    
C20   O11   A    
C3    C21   S    
C9    H25   S    
N2    Zn1   S    
C16   H11   S    
C15   C16   S    
C4    C20   S    
C18   H17   S    
C8    H22   S    
C7    C8    S    
C4    C22   S    
O5    Zn2   S    
O9    Zn2   S    
C22   C26   S    
O6    Zn1   S    
C2    C23   S    
C12   O5    A    
C14   C15   S    
C18   C19   S    
C14   H8    S    
C2    F2    S    
C9    H26   S    
C25   C26   S    
C19   H20   S    
C14   O3    S    
C16   H13   S    
C22   O12   S    
C3    C26   S    
C15   H9    S    
C11   H2    S    
O1    Zn1   S    
C8    C9    S    
