data_mof_unit_39264.cif
_audit_creation_date              2012-12-10T19:45:20-0500
_audit_creation_method            fapswitch 2.2
_symmetry_space_group_name_H-M    P1
_symmetry_Int_Tables_number       1
_space_group_crystal_system       triclinic
_cell_length_a                    14.957342
_cell_length_b                    14.301295
_cell_length_c                    10.726253
_cell_angle_alpha                 90.452813
_cell_angle_beta                  91.509535
_cell_angle_gamma                 90.46265
_cell_volume                      2293.49927575

loop_
_atom_site_label
_atom_site_type_symbol
_atom_type_description
_atom_site_fract_x
_atom_site_fract_y
_atom_site_fract_z
_atom_type_partial_charge
C1    C     C_R   0.327787 0.499768 0.498011 0.880118
C2    C     C_R   0.545092 0.894798 0.598723 -0.334672
C3    C     C_R   0.464782 0.895617 0.403322 -0.341734
C4    C     C_R   0.541069 0.795817 0.597463 0.316625
C5    C     C_R   0.462707 0.796839 0.402909 0.322715
C6    C     C_R   0.505683 0.946857 0.502003 0.111130
C7    C     C_R   0.493648 0.499689 0.262440 0.939678
C8    C     C_R   0.499913 0.500167 0.736828 0.951028
C9    C     C_2   0.431779 0.449069 0.923872 0.223051
C10   C     C_2   0.437295 0.436867 0.059056 0.231852
C11   C     C_2   0.495675 0.498997 0.868098 -0.455056
C12   C     C_R   0.671866 0.500194 0.501448 0.921637
C13   C     C_2   0.479906 0.502570 0.129782 -0.465458
C14   C     C_R   0.089400 0.570598 0.452719 -0.369448
C15   C     C_R   0.908428 0.556069 0.591721 -0.339112
C16   C     C_R   0.181483 0.571101 0.441523 0.236058
C17   C     C_R   0.815714 0.558324 0.590778 0.222166
C18   C     C_R   0.231427 0.499195 0.498783 -0.121628
C19   C     C_R   0.767697 0.499692 0.506588 -0.129023
C20   C     C_R   0.188576 0.426155 0.560377 -0.392417
C21   C     C_R   0.811502 0.437844 0.427694 -0.373416
C22   C     C_R   0.096042 0.423525 0.565266 0.558082
C23   C     C_R   0.047474 0.496551 0.511750 0.015964
C24   C     C_R   0.903929 0.436255 0.428237 0.568168
C25   C     C_3   0.368102 0.305404 0.830770 -0.699576
C26   C     C_3   0.301333 0.366187 0.135711 -0.795832
C27   C     C_3   0.536011 0.757118 0.815212 -0.777094
C28   C     C_3   0.459860 0.758139 0.183761 -0.796302
C29   C     C_3   0.241499 0.608580 0.241926 -0.796362
C30   C     C_3   0.742751 0.569369 0.787512 -0.787565
C31   C     C_3   0.061670 0.344185 0.743615 0.057127
C32   C     C_3   0.100760 0.250234 0.783091 -0.318104
C33   C     C_3   0.105846 0.241607 0.924804 -0.984634
C34   C     C_R   0.951686 0.494975 0.511822 0.013184
C35   C     C_3   0.973761 0.422613 0.241359 0.077207
C36   C     C_3   0.912277 0.394662 0.130970 -0.336013
C37   C     C_3   0.938639 0.445345 0.012774 -1.012876
C38   C     C_3   0.273336 0.222393 0.419056 -0.773188
C39   C     C_3   0.722251 0.247601 0.606701 -0.737428
C40   C     C_R   0.436010 0.101392 0.442158 -0.263321
C41   C     C_R   0.569359 0.107936 0.569118 -0.328749
C42   C     C_R   0.433763 0.199654 0.440910 0.281588
C43   C     C_R   0.566356 0.207243 0.566211 0.323664
C44   C     C_R   0.504492 0.053090 0.504377 0.083684
H1    H     H_    0.551990 0.531689 0.917280 0.121329
H2    H     H_    0.434897 0.931400 0.324479 0.146548
H3    H     H_    0.334149 0.442221 0.779418 0.207498
H4    H     H_    0.368140 0.291080 0.728797 0.229011
H5    H     H_    0.310247 0.268494 0.870932 0.239726
H6    H     H_    0.430671 0.276734 0.873168 0.237828
H7    H     H_    0.433312 0.315419 0.167273 0.241098
H8    H     H_    0.270578 0.295784 0.144684 0.252428
H9    H     H_    0.265097 0.403544 0.059662 0.253032
H10   H     H_    0.293348 0.405510 0.224005 0.225589
H11   H     H_    0.648683 0.761275 0.708404 0.213969
H12   H     H_    0.499425 0.568613 0.089509 0.140330
H13   H     H_    0.566480 0.709867 0.885719 0.227335
H14   H     H_    0.463996 0.738438 0.803307 0.255879
H15   H     H_    0.542436 0.830083 0.850828 0.213787
H16   H     H_    0.351453 0.768164 0.296933 0.218352
H17   H     H_    0.457949 0.831658 0.151232 0.217539
H18   H     H_    0.423235 0.714107 0.113383 0.234565
H19   H     H_    0.530481 0.734762 0.190365 0.254989
H20   H     H_    0.187955 0.703219 0.365793 0.213333
H21   H     H_    0.184011 0.568580 0.199834 0.228635
H22   H     H_    0.302074 0.564612 0.244843 0.256837
H23   H     H_    0.049779 0.625175 0.409241 0.157129
H24   H     H_    0.254935 0.669160 0.180963 0.228714
H25   H     H_    0.805745 0.678096 0.698236 0.212548
H26   H     H_    0.801792 0.544785 0.842485 0.235396
H27   H     H_    0.698864 0.508719 0.762508 0.237851
H28   H     H_    0.704622 0.618232 0.846343 0.233022
H29   H     H_    0.993766 0.350515 0.781858 0.172490
H30   H     H_    0.103597 0.402018 0.785670 0.116289
H31   H     H_    0.058272 0.192508 0.743708 0.235408
H32   H     H_    0.168906 0.243216 0.745545 0.210019
H33   H     H_    0.137494 0.174275 0.950603 0.267279
H34   H     H_    0.946870 0.600714 0.655730 0.159796
H35   H     H_    0.037686 0.243431 0.963367 0.273857
H36   H     H_    0.146511 0.299673 0.966452 0.266302
H37   H     H_    0.043077 0.400817 0.221054 0.169525
H38   H     H_    0.975602 0.500498 0.250932 0.118569
H39   H     H_    0.916235 0.317928 0.115106 0.229038
H40   H     H_    0.842051 0.412400 0.151954 0.214982
H41   H     H_    0.929777 0.521944 0.024250 0.267593
H42   H     H_    0.895398 0.420542 0.933408 0.263526
H43   H     H_    0.009534 0.431084 0.991664 0.264527
H44   H     H_    0.373309 0.310242 0.352060 0.285107
H45   H     H_    0.226724 0.371212 0.604776 0.177476
H46   H     H_    0.252635 0.150071 0.392844 0.236317
H47   H     H_    0.271758 0.230456 0.521997 0.237269
H48   H     H_    0.224371 0.271001 0.375464 0.252313
H49   H     H_    0.619775 0.255606 0.732769 0.206145
H50   H     H_    0.746322 0.178260 0.638367 0.210883
H51   H     H_    0.764026 0.302599 0.653783 0.243524
H52   H     H_    0.730372 0.253529 0.504393 0.256516
H53   H     H_    0.773907 0.392194 0.364070 0.168889
H54   H     H_    0.382432 0.063253 0.394671 0.151078
H55   H     H_    0.622828 0.074517 0.621274 0.149304
H56   H     H_    0.577177 0.930134 0.677590 0.145430
N1    N     N_R   0.500000 0.252470 0.500000 -0.146248
N2    N     N_2   0.629623 0.260551 0.638259 -0.260466
N3    N     N_R   0.500000 0.747550 0.500000 -0.121286
N4    N     N_2   0.360056 0.405019 0.853829 -0.292028
N5    N     N_2   0.395190 0.356502 0.108864 -0.282197
N6    N     N_2   0.581299 0.746562 0.698157 -0.244930
N7    N     N_2   0.417681 0.749173 0.303190 -0.245916
N8    N     N_2   0.221842 0.640642 0.366598 -0.286669
N9    N     N_2   0.771315 0.617014 0.676759 -0.291906
N10   N     N_2   0.362110 0.242402 0.374884 -0.319885
O1    O     O_R   0.369060 0.579480 0.500010 -0.588512
O2    O     O_3   0.947215 0.375129 0.349932 -0.626915
O3    O     O_R   0.630940 0.579480 0.499990 -0.596954
O4    O     O_R   0.369050 0.420520 0.500010 -0.651149
O5    O     O_R   0.630950 0.420520 0.499990 -0.598703
O6    O     O_R   0.500000 0.579460 0.319080 -0.589261
O7    O     O_R   0.500000 0.579460 0.680920 -0.586198
O8    O     O_R   0.499990 0.420500 0.319080 -0.644305
O9    O     O_R   0.500010 0.420500 0.680920 -0.601235
O10   O     O_3   0.052404 0.346273 0.612107 -0.625466
Zn1   Zn    Zn3+2 0.500000 0.606140 0.500000 0.982528
Zn2   Zn    Zn3+2 0.500000 0.393860 0.500000 0.928234

loop_
_geom_bond_atom_site_label_1
_geom_bond_atom_site_label_2
_ccdc_geom_bond_type
C7    O6    A    
C5    N3    A    
O1    Zn1   S    
C35   C36   S    
C24   O2    S    
C3    C6    A    
C32   H31   S    
C30   H27   S    
C35   H37   S    
C22   O10   S    
C1    C18   S    
C37   H41   S    
C36   C37   S    
C19   C21   A    
C8    C11   S    
C40   H54   S    
C31   H29   S    
C15   H34   S    
C28   N7    S    
C4    N3    A    
C38   H48   S    
O8    Zn2   S    
O7    Zn1   S    
C25   H6    S    
H25   N9    S    
C14   H23   S    
C41   H55   S    
C29   N8    S    
C38   N10   S    
C9    C10   S    
C15   C34   A    
C12   O5    A    
H44   N10   S    
C28   H17   S    
C40   C42   A    
C2    H56   S    
O5    Zn2   S    
C6    C44   S    
C41   C43   A    
C7    O8    A    
C2    C6    A    
C26   H10   S    
C26   N5    S    
C30   H26   S    
C35   H38   S    
C8    O7    A    
H20   N8    S    
C39   H52   S    
O6    Zn1   S    
H11   N6    S    
C26   H9    S    
C37   H42   S    
C27   H13   S    
C33   H35   S    
C31   H30   S    
C30   N9    S    
C27   N6    S    
C4    N6    S    
C38   H47   S    
C10   C13   D    
C24   C34   A    
C14   C23   A    
C2    C4    A    
C43   N1    A    
C39   H50   S    
C26   H8    S    
C29   H24   S    
C21   H53   S    
C31   C32   S    
C7    C13   S    
H7    N5    S    
C23   C34   S    
C33   H36   S    
C9    C11   D    
C25   H4    S    
C39   H51   S    
H16   N7    S    
C29   H21   S    
C20   C22   A    
C41   C44   A    
C14   C16   A    
C11   H1    S    
C1    O4    A    
N3    Zn1   S    
C42   N1    A    
C39   N2    S    
C12   O3    A    
C5    N7    S    
O9    Zn2   S    
C15   C17   A    
H3    N4    S    
C37   H43   S    
C3    C5    A    
C27   H14   S    
C17   N9    S    
H49   N2    S    
C32   H32   S    
C30   H28   S    
C25   N4    S    
C20   H45   S    
C38   H46   S    
C3    H2    S    
N1    Zn2   S    
C32   C33   S    
C13   H12   S    
C42   N10   S    
C43   N2    S    
C27   H15   S    
C1    O1    A    
C33   H33   S    
C36   H40   S    
C9    N4    S    
C12   C19   S    
C17   C19   A    
C18   C20   A    
C25   H5    S    
C31   O10   S    
C16   N8    S    
C29   H22   S    
O4    Zn2   S    
C28   H19   S    
C40   C44   A    
O3    Zn1   S    
C16   C18   A    
C21   C24   A    
C22   C23   A    
C10   N5    S    
C36   H39   S    
C35   O2    S    
C8    O9    A    
C28   H18   S    
