data_mof_unit_53713.cif
_audit_creation_date              2012-10-26T19:42:38-0400
_audit_creation_method            fapswitch 2.2
_symmetry_space_group_name_H-M    P1
_symmetry_Int_Tables_number       1
_space_group_crystal_system       triclinic
_cell_length_a                    19.189897
_cell_length_b                    10.906422
_cell_length_c                    9.58831
_cell_angle_alpha                 88.1118
_cell_angle_beta                  88.728474
_cell_angle_gamma                 95.588765
_cell_volume                      1995.49281879

loop_
_atom_site_label
_atom_site_type_symbol
_atom_type_description
_atom_site_fract_x
_atom_site_fract_y
_atom_site_fract_z
_atom_type_partial_charge
C1    C     C_R   0.498463 0.261691 0.503534 0.538415
C2    C     C_R   0.845362 0.405786 0.494535 0.003896
C3    C     C_R   0.483792 0.098685 0.772779 -0.101665
C4    C     C_R   0.367027 0.494364 0.501649 0.580419
C5    C     C_R   0.455373 0.027105 0.886865 -0.174133
C6    C     C_R   0.423782 0.909488 0.867907 -0.064006
C7    C     C_R   0.425079 0.859091 0.736428 0.257654
C8    C     C_R   0.462899 0.924220 0.623272 0.014691
C9    C     C_R   0.481759 0.052079 0.636174 -0.006872
C10   C     C_R   0.493205 0.126320 0.510810 -0.043106
C11   C     C_R   0.491397 0.069299 0.382974 -0.141531
C12   C     C_R   0.289886 0.485146 0.505953 0.004410
C13   C     C_R   0.495067 0.943955 0.374738 0.233572
C14   C     C_R   0.481207 0.868280 0.496822 0.035223
C15   C     C_R   0.606204 0.637611 0.142240 -0.164404
C16   C     C_R   0.493220 0.736274 0.498248 0.624497
C17   C     C_R   0.668889 0.687517 0.078374 0.182279
C18   C     C_R   0.678149 0.671626 0.937196 0.315824
C19   C     C_R   0.619071 0.634555 0.857596 0.240063
C20   C     C_R   0.556589 0.565741 0.922205 0.130560
C21   C     C_R   0.554517 0.565026 0.072102 0.074690
C22   C     C_R   0.448231 0.437276 0.078214 0.004042
C23   C     C_R   0.922738 0.414036 0.498954 0.366186
C24   C     C_R   0.447939 0.438356 0.930496 0.003832
C25   C     C_R   0.630888 0.484479 0.499383 0.593169
C26   C     C_R   0.251449 0.437569 0.626097 0.278566
C27   C     C_R   0.178655 0.442991 0.634535 0.276729
C28   C     C_R   0.142161 0.471428 0.512705 -0.014254
C29   C     C_R   0.180853 0.511937 0.390877 -0.189222
C30   C     C_R   0.253805 0.522070 0.388742 -0.192138
C31   C     C_3   0.277734 0.252229 0.714321 0.018564
C32   C     C_3   0.286376 0.183070 0.853248 -0.255988
C33   C     C_3   0.268538 0.044451 0.840431 -0.462047
C34   C     C_R   0.064669 0.453159 0.508191 0.350776
C35   C     C_3   0.573589 0.916539 0.195519 0.019864
C36   C     C_3   0.599064 0.050598 0.149216 -0.309555
C37   C     C_3   0.664999 0.057811 0.055989 -0.382099
C38   C     C_3   0.737981 0.748435 0.266026 -0.018349
C39   C     C_3   0.771695 0.863268 0.334452 -0.254687
C40   C     C_3   0.804099 0.829928 0.472907 -0.446249
C41   C     C_3   0.787217 0.647404 0.845707 0.029492
C42   C     C_3   0.835860 0.636837 0.969251 -0.266831
C43   C     C_3   0.902026 0.578005 0.928855 -0.454825
C44   C     C_3   0.133869 0.516972 0.834455 0.036263
C45   C     C_R   0.801809 0.364156 0.611021 0.247739
C46   C     C_3   0.194460 0.548395 0.932884 -0.253313
C47   C     C_3   0.183332 0.663205 0.014110 -0.484905
C48   C     C_R   0.730743 0.386574 0.613484 0.231593
C49   C     C_R   0.702985 0.447477 0.497625 -0.013238
C50   C     C_R   0.743391 0.464307 0.374020 -0.208305
C51   C     C_R   0.814270 0.448128 0.373526 -0.182970
Cl1   Cl    Cl    0.361878 0.734991 0.710654 -0.655974
Cl2   Cl    Cl    0.624919 0.731355 0.705866 -0.585148
Cl3   Cl    Cl    0.833565 0.275647 0.749469 -0.544779
Cl4   Cl    Cl    0.676696 0.329114 0.758019 -0.603832
Cu1   Cu    Cu3+1 0.500000 0.499990 0.640660 1.072284
Cu2   Cu    Cu3+1 0.500000 0.500010 0.359340 0.944493
H1    H     H_    0.507486 0.188481 0.796955 0.186328
H2    H     H_    0.845164 0.473295 0.279235 0.148792
H3    H     H_    0.490771 0.123057 0.286390 0.146425
H4    H     H_    0.319326 0.230097 0.639058 0.119783
H5    H     H_    0.225653 0.217961 0.673031 0.151766
H6    H     H_    0.341214 0.200222 0.887288 0.139086
H7    H     H_    0.251228 0.216764 0.934176 0.189850
H8    H     H_    0.212288 0.023733 0.816899 0.160192
H9    H     H_    0.279027 0.996016 0.940328 0.152575
H10   H     H_    0.300901 0.009508 0.755836 0.180756
H11   H     H_    0.576737 0.861299 0.101336 0.192005
H12   H     H_    0.453222 0.066191 0.988842 0.120417
H13   H     H_    0.609328 0.882401 0.274552 0.152616
H14   H     H_    0.611842 0.105972 0.242047 0.158856
H15   H     H_    0.558059 0.092616 0.090183 0.170699
H16   H     H_    0.708895 0.023310 0.114011 0.194759
H17   H     H_    0.680413 0.155288 0.022553 0.209608
H18   H     H_    0.655350 0.003137 0.961356 0.219802
H19   H     H_    0.779565 0.686779 0.247765 0.138740
H20   H     H_    0.697125 0.703817 0.339768 0.141450
H21   H     H_    0.813121 0.910506 0.263291 0.186672
H22   H     H_    0.731478 0.927872 0.353879 0.175362
H23   H     H_    0.395295 0.859709 0.954359 0.160464
H24   H     H_    0.763242 0.784343 0.546192 0.209108
H25   H     H_    0.828043 0.914915 0.520500 0.190821
H26   H     H_    0.845377 0.766841 0.456118 0.138939
H27   H     H_    0.818905 0.683315 0.752205 0.152650
H28   H     H_    0.762604 0.554624 0.819670 0.164416
H29   H     H_    0.851231 0.729998 0.008903 0.205255
H30   H     H_    0.807458 0.579112 0.053836 0.146715
H31   H     H_    0.888289 0.483307 0.893357 0.231008
H32   H     H_    0.935838 0.572888 0.020963 0.156076
H33   H     H_    0.931925 0.633686 0.844318 0.157397
H34   H     H_    0.405722 0.385465 0.136858 0.107783
H35   H     H_    0.084854 0.497634 0.898632 0.173869
H36   H     H_    0.126065 0.598597 0.765033 0.122697
H37   H     H_    0.198712 0.469346 0.007374 0.175204
H38   H     H_    0.244481 0.566344 0.872144 0.239106
H39   H     H_    0.182481 0.744406 0.941300 0.166453
H40   H     H_    0.226912 0.681820 0.087116 0.156888
H41   H     H_    0.133141 0.649707 0.075144 0.149110
H42   H     H_    0.595646 0.667436 0.243836 0.195438
H43   H     H_    0.405266 0.388616 0.878736 0.142998
H44   H     H_    0.154654 0.536637 0.296783 0.150411
H45   H     H_    0.281976 0.556777 0.294178 0.149608
H46   H     H_    0.720777 0.494766 0.278194 0.137406
N1    N     N_R   0.031941 0.449084 0.384022 -0.242984
N2    N     N_R   0.962442 0.430404 0.379506 -0.238678
N3    N     N_R   0.955500 0.418944 0.622709 -0.179131
N4    N     N_R   0.024886 0.436941 0.627173 -0.185243
N5    N     N_R   0.500660 0.501210 0.147910 -0.227301
N6    N     N_R   0.500680 0.501290 0.852040 -0.214387
O1    O     O_R   0.499990 0.319640 0.618810 -0.513374
O2    O     O_3   0.502675 0.896800 0.243606 -0.566819
O3    O     O_3   0.710714 0.783072 0.136823 -0.565609
O4    O     O_3   0.737898 0.732386 0.872982 -0.489314
O5    O     O_3   0.143752 0.409419 0.759984 -0.536402
O6    O     O_R   0.500000 0.319660 0.381240 -0.521145
O7    O     O_R   0.400140 0.499970 0.618820 -0.422781
O8    O     O_R   0.400150 0.500000 0.381250 -0.526689
O9    O     O_R   0.500000 0.680340 0.618760 -0.414916
O10   O     O_R   0.500010 0.680360 0.381190 -0.489384
O11   O     O_R   0.599850 0.500000 0.618750 -0.415572
O12   O     O_R   0.599860 0.500030 0.381180 -0.542677
O13   O     O_3   0.283964 0.380928 0.734690 -0.559310

loop_
_geom_bond_atom_site_label_1
_geom_bond_atom_site_label_2
_ccdc_geom_bond_type
C48   Cl4   S    
C37   H17   S    
C25   O11   A    
C11   C13   A    
C41   C42   S    
C31   H4    S    
C35   C36   S    
C40   H26   S    
C33   H8    S    
C7    C8    A    
Cu2   O6    S    
C38   H19   S    
C26   C27   A    
C43   H32   S    
C47   H41   S    
C34   N4    A    
C36   C37   S    
C7    Cl1   S    
C38   C39   S    
N3    N4    A    
C23   N2    A    
Cu1   Cu2   S    
C18   C19   A    
C5    H12   S    
C44   H36   S    
C46   H38   S    
C19   C20   A    
C35   H13   S    
C8    C9    A    
C47   H39   S    
C42   H29   S    
C4    C12   S    
C9    C10   A    
C44   H35   S    
C36   H14   S    
Cu2   O10   S    
C19   Cl2   S    
C37   H18   S    
C44   O5    S    
C50   H46   S    
C13   C14   A    
Cu1   O11   S    
C31   H5    S    
C18   O4    S    
Cu1   O1    S    
N1    N2    A    
C44   C46   S    
C33   H9    S    
C50   C51   A    
C2    C45   A    
C43   H33   S    
C1    C10   S    
C39   H21   S    
C40   H25   S    
C1    O6    A    
C32   H7    S    
C10   C11   A    
C16   O10   A    
C15   H42   S    
C39   C40   S    
C41   H27   S    
Cu2   O12   S    
C34   N1    A    
C12   C26   A    
C39   H22   S    
C3    H1    S    
C29   C30   A    
C3    C9    A    
C16   O9    A    
C1    O1    A    
C6    H23   S    
C31   C32   S    
C46   H37   S    
C22   H34   S    
C30   H45   S    
C17   C18   A    
Cu1   O7    S    
C29   H44   S    
C48   C49   A    
C45   Cl3   S    
C14   C16   S    
C4    O8    A    
C51   H2    S    
C42   C43   S    
C43   H31   S    
C38   O3    S    
C11   H3    S    
C17   O3    S    
Cu1   N6    S    
C2    C23   S    
C35   O2    S    
C33   H10   S    
Cu2   O8    S    
C45   C48   A    
C15   C17   A    
C37   H16   S    
C46   C47   S    
C28   C29   A    
C8    C14   A    
C12   C30   A    
C24   H43   S    
Cu1   O9    S    
C40   H24   S    
C4    O7    A    
C24   N6    A    
C32   H6    S    
C41   O4    S    
C3    C5    A    
C6    C7    A    
C38   H20   S    
C41   H28   S    
C47   H40   S    
C32   C33   S    
C13   O2    S    
C23   N3    A    
C5    C6    A    
C35   H11   S    
C22   N5    A    
C31   O13   S    
C22   C24   A    
C25   C49   S    
C21   N5    A    
C2    C51   A    
C28   C34   S    
C20   N6    A    
C27   O5    S    
C15   C21   A    
Cu2   N5    S    
C20   C21   A    
C49   C50   A    
C27   C28   A    
C42   H30   S    
C26   O13   S    
C25   O12   A    
C36   H15   S    
