data_mof_unit_13770.cif
_audit_creation_date              2012-12-11T15:07:42-0500
_audit_creation_method            fapswitch 2.2
_symmetry_space_group_name_H-M    P1
_symmetry_Int_Tables_number       1
_space_group_crystal_system       triclinic
_cell_length_a                    21.630618
_cell_length_b                    7.209268
_cell_length_c                    18.614924
_cell_angle_alpha                 89.999849
_cell_angle_beta                  95.978677
_cell_angle_gamma                 89.999793
_cell_volume                      2887.03913969

loop_
_atom_site_label
_atom_site_type_symbol
_atom_type_description
_atom_site_fract_x
_atom_site_fract_y
_atom_site_fract_z
_atom_type_partial_charge
O1    O     O_R   0.449650 0.506500 0.414480 -0.530831
O2    O     O_R   0.550350 0.006500 0.585520 -0.530832
O3    O     O_R   0.432010 0.173150 0.560250 -0.539297
O4    O     O_R   0.567990 0.673150 0.439750 -0.539296
C1    C     C_R   0.416188 0.344688 0.581169 0.687522
C2    C     C_R   0.583811 0.844688 0.418831 0.687522
O5    O     O_R   0.442320 0.176650 0.413480 -0.534407
O6    O     O_R   0.557680 0.676650 0.586520 -0.534407
O7    O     O_R   0.560730 0.008380 0.437700 -0.539643
O8    O     O_R   0.439270 0.508380 0.562300 -0.539643
C3    C     C_R   0.428520 0.345062 0.387592 0.684924
C4    C     C_R   0.571480 0.845061 0.612408 0.684923
O9    O     O_3   0.538840 0.339860 0.508120 -0.373123
O10   O     O_3   0.461160 0.839860 0.491880 -0.373122
V1    V     V_3+5 0.492800 0.064220 0.498490 1.422477
V2    V     V_3+5 0.507200 0.564220 0.501510 1.422478
C5    C     C_R   0.871222 0.980046 0.689989 -0.160149
C6    C     C_R   0.128774 0.479986 0.310014 -0.160148
H1    H     H_    0.959333 0.007459 0.753335 0.102929
H2    H     H_    0.040663 0.507397 0.246667 0.102928
H3    H     H_    0.789399 0.976622 0.573871 0.125162
H4    H     H_    0.210596 0.476536 0.426133 0.125162
H5    H     H_    0.891159 0.008342 0.640062 0.113644
H6    H     H_    0.108835 0.508255 0.359942 0.113644
C7    C     C_R   0.886360 0.942278 0.819751 -0.036112
C8    C     C_R   0.113640 0.442272 0.180249 -0.036109
C9    C     C_R   0.585422 0.815915 0.744654 -0.210952
C10   C     C_R   0.414581 0.315957 0.255345 -0.210955
C11   C     C_R   0.621035 0.813166 0.811804 0.023998
C12   C     C_R   0.378968 0.313222 0.188194 0.023998
C13   C     C_R   0.685375 0.844759 0.815443 -0.205728
C14   C     C_R   0.314628 0.344799 0.184556 -0.205728
C15   C     C_R   0.715243 0.879624 0.752677 0.055943
C16   C     C_R   0.284758 0.379632 0.247322 0.055943
C17   C     C_R   0.677712 0.883702 0.684586 0.075655
C18   C     C_R   0.322287 0.383691 0.315415 0.075655
C19   C     C_R   0.781135 0.910443 0.755284 0.083494
C20   C     C_R   0.218864 0.410438 0.244716 0.083495
C21   C     C_R   0.807247 0.946484 0.689671 0.138680
C22   C     C_R   0.192750 0.446443 0.310330 0.138679
C23   C     C_R   0.769513 0.949626 0.623946 -0.201627
C24   C     C_R   0.230484 0.449567 0.376057 -0.201626
C25   C     C_R   0.705943 0.918361 0.621304 -0.185080
C26   C     C_R   0.294055 0.418317 0.378698 -0.185077
C27   C     C_R   0.822345 0.907614 0.820341 -0.209568
C28   C     C_R   0.177656 0.407628 0.179658 -0.209568
C29   C     C_R   0.910236 0.979155 0.754416 -0.166971
C30   C     C_R   0.089761 0.479110 0.245585 -0.166973
C31   C     C_R   0.612623 0.851250 0.681188 -0.099044
C32   C     C_R   0.387377 0.351256 0.318811 -0.099042
H7    H     H_    0.806411 0.881226 0.872312 0.101628
H8    H     H_    0.193591 0.381267 0.127686 0.101625
H9    H     H_    0.535820 0.790114 0.741329 0.146839
H10   H     H_    0.464184 0.290170 0.258669 0.146838
H11   H     H_    0.711032 0.841285 0.868139 0.150440
H12   H     H_    0.288971 0.341338 0.131859 0.150440
H13   H     H_    0.678960 0.921981 0.568949 0.109677
H14   H     H_    0.321036 0.421923 0.431054 0.109672
C33   C     C_R   0.637667 0.019042 0.326426 -0.193950
C34   C     C_R   0.362333 0.519042 0.673573 -0.193948
C35   C     C_R   0.632817 0.857511 0.368361 -0.079277
C36   C     C_R   0.367183 0.357511 0.631639 -0.079277
C37   C     C_R   0.675099 0.711393 0.361868 -0.222388
C38   C     C_R   0.324901 0.211393 0.638132 -0.222390
C39   C     C_R   0.722021 0.726961 0.315176 0.095280
C40   C     C_R   0.277979 0.226961 0.684824 0.095279
C41   C     C_R   0.726282 0.889418 0.273502 0.056989
C42   C     C_R   0.273718 0.389418 0.726498 0.056990
C43   C     C_R   0.683746 0.035514 0.279000 0.082364
C44   C     C_R   0.316254 0.535514 0.720999 0.082365
C45   C     C_R   0.765029 0.583262 0.309591 -0.187984
C46   C     C_R   0.234971 0.083263 0.690409 -0.187985
C47   C     C_R   0.811361 0.599348 0.262739 -0.197931
C48   C     C_R   0.188640 0.099348 0.737262 -0.197932
C49   C     C_R   0.815703 0.759748 0.220736 0.092068
C50   C     C_R   0.184298 0.259748 0.779265 0.092068
C51   C     C_R   0.773200 0.905922 0.226282 0.059158
C52   C     C_R   0.226800 0.405921 0.773718 0.059158
C53   C     C_R   0.777512 0.068482 0.184678 0.089582
C54   C     C_R   0.222488 0.568482 0.815322 0.089583
C55   C     C_R   0.734438 0.212054 0.190175 -0.168034
C56   C     C_R   0.265561 0.712054 0.809825 -0.168034
C57   C     C_R   0.688038 0.195829 0.236933 -0.173446
C58   C     C_R   0.311961 0.695829 0.763066 -0.173445
C59   C     C_R   0.861814 0.776270 0.173347 -0.207194
C60   C     C_R   0.138187 0.276269 0.826653 -0.207196
C61   C     C_R   0.866806 0.938072 0.131631 -0.079625
C62   C     C_R   0.133194 0.438071 0.868369 -0.079625
C63   C     C_R   0.824558 0.084263 0.138151 -0.213929
C64   C     C_R   0.175442 0.584263 0.861849 -0.213929
H15   H     H_    0.605150 0.132237 0.330107 0.131766
H16   H     H_    0.394849 0.632237 0.669892 0.131766
H17   H     H_    0.672138 0.586697 0.393871 0.129901
H18   H     H_    0.327863 0.086697 0.606130 0.129902
H19   H     H_    0.762715 0.457877 0.341300 0.133388
H20   H     H_    0.237285 0.957879 0.658700 0.133389
H21   H     H_    0.843705 0.485738 0.259164 0.128903
H22   H     H_    0.156296 0.985739 0.740836 0.128904
H23   H     H_    0.894277 0.662988 0.169537 0.125371
H24   H     H_    0.105724 0.162987 0.830464 0.125371
H25   H     H_    0.827644 0.209130 0.106276 0.132303
H26   H     H_    0.172355 0.709130 0.893723 0.132302
H27   H     H_    0.736753 0.337444 0.158470 0.146111
H28   H     H_    0.263246 0.837443 0.841530 0.146110
H29   H     H_    0.655637 0.309330 0.240434 0.143123
H30   H     H_    0.344362 0.809329 0.759565 0.143121
O11   O     O_R   0.060820 0.290050 0.937800 -0.539061
O12   O     O_R   0.939180 0.790050 0.062200 -0.539061
O13   O     O_R   0.057690 0.616620 0.086540 -0.536014
O14   O     O_R   0.942310 0.116620 0.913460 -0.536014
C65   C     C_R   0.071605 0.448758 0.112459 0.685412
C66   C     C_R   0.928395 0.948759 0.887541 0.685412
O15   O     O_R   0.068010 0.619890 0.939770 -0.541233
O16   O     O_R   0.931990 0.119890 0.060230 -0.541233
O17   O     O_R   0.949640 0.787940 0.914460 -0.532551
O18   O     O_R   0.050360 0.287940 0.085540 -0.532550
C67   C     C_R   0.084100 0.450998 0.918699 0.698352
C68   C     C_R   0.915900 0.950998 0.081301 0.698353
O19   O     O_3   0.961210 0.453080 0.991940 -0.373272
O20   O     O_3   0.038790 0.953080 0.008060 -0.373272
V3    V     V_3+5 0.007200 0.728820 0.001500 1.417790
V4    V     V_3+5 0.992800 0.228820 0.998500 1.417791
C69   C     C_2   0.590616 0.776153 0.878372 0.775945
O21   O     O_2   0.621341 0.773217 0.937387 -0.555417
O22   O     O_R   0.526511 0.744444 0.873821 -0.664820
H31   H     H_    0.511315 0.720940 0.922733 0.311840
C70   C     C_2   0.409389 0.276244 0.121624 0.775946
O23   O     O_2   0.378664 0.273316 0.062609 -0.555417
O24   O     O_R   0.473495 0.244558 0.126175 -0.664820
H32   H     H_    0.488693 0.221077 0.077261 0.311839

loop_
_geom_bond_atom_site_label_1
_geom_bond_atom_site_label_2
_ccdc_geom_bond_type
C40   C42   A    
C37   C39   A    
O17   V3    S    
C50   C60   A    
C9    C11   A    
C23   C25   A    
O1    C3    A    
O12   V3    S    
O2    C4    A    
C2    O7    A    
C4    C31   S    
C18   C32   A    
C69   O21   D    
C48   H22   S    
C47   H21   S    
C5    H5    S    
O18   V4    S    
C43   C57   A    
C2    C35   S    
C50   C52   A    
O13   C65   A    
C46   H20   S    
C60   C62   A    
C69   O22   S    
C45   H19   S    
C27   H7    S    
C28   H8    S    
C34   C36   A    
C5    C21   A    
C35   C37   A    
C6    C22   A    
C64   H26   S    
C36   C38   A    
C7    C66   S    
C10   C32   A    
C49   C59   A    
C40   C46   A    
C26   H14   S    
C39   C41   A    
C41   C51   A    
C17   C31   A    
C58   H30   S    
C13   C15   A    
C65   O18   A    
C6    H6    S    
C12   C14   A    
C44   C58   A    
C7    C29   A    
C16   C18   A    
C8    C30   A    
O5    V1    S    
O6    V2    S    
C47   C49   A    
C24   C26   A    
C55   C57   A    
C51   C53   A    
C42   C52   A    
C33   C35   A    
C53   C63   A    
C59   C61   A    
O12   C68   A    
C61   C68   S    
C46   C48   A    
C53   C55   A    
C10   H10   S    
C39   C45   A    
C15   C19   A    
C57   H29   S    
C41   C43   A    
C38   C40   A    
O4    V2    S    
O5    C3    A    
C70   O24   S    
C59   H23   S    
C25   H13   S    
C34   C44   A    
O6    C4    A    
C52   C54   A    
O1    V2    S    
C33   H15   S    
O2    V1    S    
C49   C51   A    
O16   C68   A    
C48   C50   A    
C33   C43   A    
O15   C67   A    
C54   C56   A    
C62   C64   A    
C56   C58   A    
C61   C63   A    
O22   H31   S    
H3    C23   S    
C18   C26   A    
O4    C2    A    
C19   C27   A    
C70   O23   D    
C7    C27   A    
C17   C25   A    
O20   V3    S    
C45   C47   A    
O24   H32   S    
C55   H27   S    
O19   V4    S    
C12   C70   S    
H2    C30   S    
C63   H25   S    
C16   C20   A    
C5    C29   A    
O3    C1    A    
C6    C30   A    
C9    H9    S    
C37   H17   S    
C10   C12   A    
O7    V1    S    
C38   H18   S    
C1    O8    A    
C19   C21   A    
C3    C32   S    
O8    V2    S    
O14   V4    S    
C20   C22   A    
C60   H24   S    
O13   V3    S    
H4    C24   S    
C11   C69   S    
C22   C24   A    
C15   C17   A    
C14   H12   S    
C1    C36   S    
H1    C29   S    
C54   C64   A    
O14   C66   A    
C20   C28   A    
C8    C28   A    
O16   V4    S    
O15   V3    S    
C21   C23   A    
C11   C13   A    
O9    V2    S    
C42   C44   A    
C56   H28   S    
O10   V1    S    
O3    V1    S    
O11   V4    S    
C13   H11   S    
C62   C67   S    
C34   H16   S    
C8    C65   S    
O11   C67   A    
C66   O17   A    
C9    C31   A    
C14   C16   A    
