data_mof_unit_36117.cif
_audit_creation_date              2013-03-05T16:11:29-0500
_audit_creation_method            fapswitch 2.2
_symmetry_space_group_name_H-M    P1
_symmetry_Int_Tables_number       1
_space_group_crystal_system       triclinic
_cell_length_a                    9.568543
_cell_length_b                    10.819499
_cell_length_c                    17.28599
_cell_angle_alpha                 90.518548
_cell_angle_beta                  86.441029
_cell_angle_gamma                 89.57934
_cell_volume                      1785.98350242

loop_
_atom_site_label
_atom_site_type_symbol
_atom_site_description
_atom_site_fract_x
_atom_site_fract_y
_atom_site_fract_z
_atom_type_partial_charge
O1    O     O_R   0.379740 0.682430 0.499960 -0.561914
O2    O     O_R   0.620260 0.682190 0.500020 -0.622041
C1    C     C_R   0.499079 0.738975 0.503284 0.821236
O3    O     O_R   0.365800 0.500150 0.613560 -0.549307
O4    O     O_R   0.606310 0.499910 0.613620 -0.600394
C2    C     C_R   0.482434 0.502841 0.649313 0.853942
Cu1   Cu    Cu3+1 0.357600 0.500140 0.499960 1.073527
Cu2   Cu    Cu3+1 0.642400 0.499860 0.500040 0.989343
O5    O     O_R   0.379740 0.317810 0.499980 -0.569394
O6    O     O_R   0.620260 0.317570 0.500040 -0.573582
O7    O     O_R   0.393690 0.500090 0.386380 -0.509007
O8    O     O_R   0.634200 0.499850 0.386440 -0.552263
C3    C     C_R   0.500506 0.259684 0.501237 0.898921
C4    C     C_R   0.518217 0.500855 0.350513 0.867380
C5    C     C_R   0.477899 0.502922 0.733365 -0.006560
C6    C     C_R   0.576455 0.572774 0.771093 -0.179653
C7    C     C_R   0.586025 0.562487 0.850534 -0.109163
C8    C     C_R   0.498361 0.480693 0.892544 0.140645
C9    C     C_R   0.399440 0.411168 0.854956 -0.096948
C10   C     C_R   0.387825 0.423455 0.775551 -0.030333
C11   C     C_R   0.416255 0.468113 0.146404 -0.009237
C12   C     C_R   0.430896 0.444208 0.224358 -0.140199
C13   C     C_R   0.618382 0.592314 0.228467 -0.120199
C14   C     C_R   0.612809 0.610354 0.149022 -0.140918
C15   C     C_R   0.513258 0.548070 0.107295 0.135609
C16   C     C_2   0.508830 0.465884 0.975733 -0.138534
C17   C     C_2   0.518834 0.563671 0.022970 -0.138537
C18   C     C_R   0.526449 0.509488 0.266316 -0.006494
H1    H     H_    0.647576 0.633610 0.738753 0.159792
H2    H     H_    0.364291 0.376876 0.253040 0.227940
H3    H     H_    0.692096 0.644663 0.260499 0.181890
H4    H     H_    0.533870 0.655914 0.999690 0.157452
H5    H     H_    0.331382 0.347672 0.887142 0.168154
H6    H     H_    0.313227 0.367264 0.746644 0.202655
H7    H     H_    0.495674 0.373664 0.999366 0.158328
H8    H     H_    0.664309 0.615474 0.878681 0.155715
H9    H     H_    0.686408 0.672801 0.119950 0.165258
C19   C     C_3   0.346813 0.927600 0.517766 -0.422350
H10   H     H_    0.291931 0.882665 0.568524 0.248596
H11   H     H_    0.285417 0.903295 0.467270 0.190852
C20   C     C_3   0.348862 0.069609 0.527203 0.124647
H12   H     H_    0.275181 0.106967 0.485877 0.144592
H13   H     H_    0.539634 0.894933 0.626795 0.222386
C21   C     C_3   0.588252 0.924984 0.569969 -0.396917
C22   C     C_3   0.560360 0.920342 0.425805 -0.468312
C23   C     C_3   0.498150 0.875885 0.504664 -0.028295
H14   H     H_    0.671305 0.888049 0.418486 0.228157
H15   H     H_    0.507089 0.873948 0.377990 0.167475
C24   C     C_3   0.501763 0.120064 0.504715 -0.230603
C25   C     C_3   0.601693 0.068171 0.567106 0.209686
C26   C     C_3   0.551191 0.063463 0.420469 0.154716
H16   H     H_    0.695141 0.883239 0.564411 0.180034
H17   H     H_    0.711283 0.089198 0.550096 0.169411
C27   C     C_3   0.922079 0.393340 0.452139 0.237759
H18   H     H_    0.879668 0.307409 0.479149 0.125321
C28   C     C_3   0.086481 0.385413 0.458797 0.166264
H19   H     H_    0.103139 0.304229 0.496463 0.107528
H20   H     H_    0.870077 0.647695 0.416868 0.229065
C29   C     C_3   0.918518 0.617886 0.469978 -0.232007
C30   C     C_3   0.904957 0.485262 0.577987 -0.352385
N1    N     N_3   0.856560 0.499750 0.498270 -0.249690
H21   H     H_    0.854715 0.557290 0.616897 0.234167
H22   H     H_    0.867490 0.395798 0.602621 0.176852
N2    N     N_3   0.143860 0.496700 0.498910 -0.302654
C31   C     C_3   0.085055 0.613742 0.463302 0.269359
C32   C     C_3   0.070768 0.491642 0.580028 0.150219
H23   H     H_    0.104216 0.404985 0.607647 0.172794
H24   H     H_    0.885202 0.693716 0.511210 0.161048
H25   H     H_    0.118238 0.693601 0.497452 0.154019
N3    N     N_R   0.293350 0.107056 0.605489 0.187613
O9    O     O_R   0.314977 0.039594 0.665701 -0.289488
O10   O     O_R   0.197443 0.192623 0.612869 -0.384542
N4    N     N_R   0.581413 0.121778 0.645669 0.162406
O11   O     O_R   0.525611 0.230635 0.657408 -0.371312
O12   O     O_R   0.649000 0.073570 0.701253 -0.315374
C33   C     C_2   0.443164 0.096228 0.362612 0.422530
H26   H     H_    0.353672 0.037095 0.355241 0.105566
O13   O     O_2   0.454161 0.190624 0.324641 -0.505670
N5    N     N_R   0.689715 0.105723 0.388135 0.168809
O14   O     O_R   0.713693 0.103364 0.313024 -0.248332
O15   O     O_R   0.799122 0.096900 0.428705 -0.381368
N6    N     N_R   0.883390 0.387136 0.370802 0.197100
O16   O     O_R   0.893641 0.281183 0.335049 -0.209597
O17   O     O_R   0.880255 0.484466 0.327684 -0.295632
N7    N     N_R   0.160682 0.352031 0.384756 0.181781
O18   O     O_R   0.155930 0.423434 0.325159 -0.274560
O19   O     O_R   0.185846 0.235472 0.371279 -0.357695
N8    N     N_R   0.143424 0.643773 0.384180 0.176255
O20   O     O_R   0.258883 0.706087 0.376330 -0.372500
O21   O     O_R   0.061985 0.652702 0.326980 -0.280097
N9    N     N_R   0.107315 0.592977 0.633161 0.151025
O22   O     O_R   0.058821 0.704561 0.625276 -0.395322
O23   O     O_R   0.145194 0.563503 0.701664 -0.343150
C34   C     C_2   0.292746 0.414156 0.110980 0.415738
H27   H     H_    0.244839 0.331366 0.135356 0.115204
O24   O     O_2   0.238412 0.464717 0.057448 -0.504234

loop_
_geom_bond_atom_site_label_1
_geom_bond_atom_site_label_2
_geom_bond_distance
_ccdc_geom_bond_type
C20   H12   1.110989 S    
C9    C10   1.391431 A    
C8    C16   1.457861 S    
Cu1   Cu2   2.725188 S    
N7    O18   1.296102 A    
Cu1   O7    1.972250 S    
C16   C17   1.338219 D    
C30   H22   1.113731 S    
C33   O13   1.220710 D    
O4    C2    1.301903 A    
O7    C4    1.308725 A    
C11   C34   1.485232 S    
C22   C26   1.554231 S    
C5    C6    1.401332 A    
C28   H19   1.114478 S    
C30   H21   1.111622 S    
C8    C9    1.400672 A    
N4    O11   1.298619 A    
O5    C3    1.313006 A    
C2    C5    1.450860 S    
C6    C7    1.387355 A    
C24   C26   1.616652 S    
C13   C14   1.393068 A    
C28   N2    1.507936 S    
N3    O9    1.302754 A    
C7    H8    1.083050 S    
Cu2   N1    2.047519 S    
C10   H6    1.083502 S    
C21   H16   1.113336 S    
C22   H14   1.114498 S    
C32   H23   1.109994 S    
C30   C32   1.591136 S    
C12   C18   1.394055 A    
C11   C12   1.389786 A    
N4    O12   1.301818 A    
O3    Cu1   1.970117 S    
C20   C24   1.592028 S    
C21   C23   1.554524 S    
C14   H9    1.083601 S    
N7    O19   1.298420 A    
C5    C10   1.399295 A    
C27   C28   1.586145 S    
C29   N1    1.486880 S    
C25   H17   1.097382 S    
C14   C15   1.402747 A    
C19   C20   1.544027 S    
O3    C2    1.309235 A    
C9    H5    1.083549 S    
C25   N4    1.473001 S    
N9    O22   1.301543 A    
N5    O15   1.299128 A    
C6    H1    1.083914 S    
C22   C23   1.535969 S    
C30   N1    1.489942 S    
O1    C1    1.303570 A    
N2    C32   1.529222 S    
H13   C21   1.112784 S    
C29   H24   1.113597 S    
N9    O23   1.301418 A    
Cu2   O8    1.970114 S    
C7    C8    1.400369 A    
C13   C18   1.398440 A    
C33   H26   1.085780 S    
C34   O24   1.220874 D    
C3    C24   1.512352 S    
N8    O21   1.300204 A    
C24   C25   1.588633 S    
N6    O17   1.296874 A    
C27   N6    1.477039 S    
C31   N8    1.484571 S    
C22   H15   1.115119 S    
C21   C25   1.556465 S    
Cu1   O5    1.982520 S    
C11   C15   1.418247 A    
C27   H18   1.112182 S    
C12   H2    1.075558 S    
C17   H4    1.086677 S    
O1    Cu1   1.985177 S    
O2    Cu2   1.982521 S    
O8    C4    1.304975 A    
O6    C3    1.309009 A    
O4    Cu2   1.972252 S    
C32   N9    1.481623 S    
C27   N1    1.505031 S    
C15   C17   1.466623 S    
C1    C23   1.481222 S    
N2    C31   1.531573 S    
O2    C1    1.306120 A    
H20   C29   1.103487 S    
C29   C31   1.590805 S    
C19   H11   1.112636 S    
C28   N7    1.465494 S    
C19   H10   1.111869 S    
C31   H25   1.101783 S    
C34   H27   1.085791 S    
C26   N5    1.483200 S    
Cu1   N2    2.046996 S    
C19   C23   1.551253 S    
N5    O14   1.304380 A    
C16   H7    1.086799 S    
N8    O20   1.299024 A    
Cu2   O6    1.985177 S    
N6    O16   1.297578 A    
C26   C33   1.524375 S    
N3    O10   1.298601 A    
C4    C18   1.456539 S    
C13   H3    1.083315 S    
C20   N3    1.474878 S    
