data_mof_unit_45930.cif
_audit_creation_date              2012-10-26T21:05:37-0400
_audit_creation_method            fapswitch 2.2
_symmetry_space_group_name_H-M    P1
_symmetry_Int_Tables_number       1
_space_group_crystal_system       triclinic
_cell_length_a                    13.014012
_cell_length_b                    9.09601
_cell_length_c                    7.791603
_cell_angle_alpha                 90.023966
_cell_angle_beta                  96.427996
_cell_angle_gamma                 89.986736
_cell_volume                      916.537038648

loop_
_atom_site_label
_atom_site_type_symbol
_atom_type_description
_atom_site_fract_x
_atom_site_fract_y
_atom_site_fract_z
_atom_type_partial_charge
C1    C     C_R   0.499991 0.220051 0.499980 0.546668
C2    C     C_R   0.863204 0.397771 0.674651 0.188061
C3    C     C_R   0.131621 0.423915 0.560159 0.195120
C4    C     C_R   0.868376 0.576142 0.439840 0.195125
C5    C     C_R   0.025572 0.450129 0.559982 0.003494
C6    C     C_R   0.974430 0.549946 0.440035 0.003495
C7    C     C_1   0.499995 0.065374 0.499974 -0.022838
C8    C     C_1   0.500004 0.934625 0.500026 -0.022834
C9    C     C_R   0.500009 0.779949 0.500020 0.546662
C10   C     C_R   0.300235 0.499767 0.467553 0.565988
C11   C     C_R   0.699764 0.500255 0.532446 0.565968
C12   C     C_R   0.812319 0.494863 0.552772 0.045153
C13   C     C_R   0.187680 0.505184 0.447227 0.045166
C14   C     C_R   0.030198 0.623038 0.322067 -0.095784
C15   C     C_R   0.969809 0.377055 0.677968 -0.095775
C16   C     C_R   0.136803 0.602311 0.325382 0.188052
Cu1   Cu    Cu3+1 0.500010 0.500000 0.669080 1.099091
Cu2   Cu    Cu3+1 0.499990 0.500000 0.330920 1.099075
H1    H     H_    0.991589 0.698842 0.228888 0.178702
H2    H     H_    0.008422 0.301267 0.771158 0.178706
H3    H     H_    0.761083 0.722258 0.377773 0.331737
H4    H     H_    0.238886 0.277755 0.622183 0.331724
H5    H     H_    0.853970 0.256673 0.860833 0.327912
H6    H     H_    0.146066 0.743570 0.139379 0.327907
N1    N     N_1   0.499980 0.500000 0.076820 -0.057106
N2    N     N_1   0.500020 0.500000 0.923180 -0.057104
O1    O     O_R   0.500000 0.288400 0.642760 -0.493794
O2    O     O_3   0.178176 0.318894 0.671643 -0.689500
O3    O     O_3   0.806698 0.319961 0.784289 -0.664181
O4    O     O_3   0.193320 0.680148 0.215784 -0.664199
O5    O     O_R   0.500000 0.711600 0.357240 -0.493800
O6    O     O_R   0.500000 0.288400 0.357240 -0.503820
O7    O     O_R   0.500000 0.711600 0.642760 -0.503825
O8    O     O_R   0.349000 0.500000 0.619590 -0.501278
O9    O     O_R   0.651000 0.500000 0.380410 -0.501305
O10   O     O_R   0.348990 0.500000 0.334020 -0.453591
O11   O     O_R   0.651010 0.500000 0.665980 -0.453566
O12   O     O_3   0.821818 0.681161 0.328350 -0.689505

loop_
_geom_bond_atom_site_label_1
_geom_bond_atom_site_label_2
_ccdc_geom_bond_type
C10   O10   A    
C11   C12   S    
C11   O11   A    
C6    C14   A    
Cu2   O9    S    
C3    C13   A    
C2    C12   A    
C11   O9    A    
Cu1   Cu2   S    
C7    C8    T    
C10   O8    A    
H4    O2    S    
C9    O7    A    
C2    C15   A    
C5    C6    A    
Cu2   N1    S    
Cu1   O7    S    
C2    O3    S    
Cu1   N2    S    
H5    O3    S    
C3    O2    S    
C4    O12   S    
H6    O4    S    
C15   H2    S    
C14   C16   A    
C5    C15   A    
C4    C12   A    
Cu1   O8    S    
C9    O5    A    
C16   O4    S    
Cu1   O1    S    
Cu2   O6    S    
C4    C6    A    
C13   C16   A    
C1    O1    A    
Cu1   O11   S    
Cu2   O5    S    
N1    N2    T    
C1    C7    S    
Cu2   O10   S    
C14   H1    S    
C1    O6    A    
H3    O12   S    
C8    C9    S    
C3    C5    A    
C10   C13   S    
