data_mof_unit_45843.cif
_audit_creation_date              2012-12-10T18:21:16-0500
_audit_creation_method            fapswitch 2.2
_symmetry_space_group_name_H-M    P1
_symmetry_Int_Tables_number       1
_space_group_crystal_system       triclinic
_cell_length_a                    15.089111
_cell_length_b                    14.223115
_cell_length_c                    10.858244
_cell_angle_alpha                 91.216029
_cell_angle_beta                  83.274005
_cell_angle_gamma                 87.712895
_cell_volume                      2311.66356826

loop_
_atom_site_label
_atom_site_type_symbol
_atom_type_description
_atom_site_fract_x
_atom_site_fract_y
_atom_site_fract_z
_atom_type_partial_charge
C1    C     C_R   0.326869 0.501164 0.501157 0.940417
C2    C     C_3   0.587820 0.478203 0.904710 -0.514539
C3    C     C_R   0.827213 0.453138 0.399143 0.366179
C4    C     C_R   0.770313 0.496312 0.497869 -0.208770
C5    C     C_R   0.806384 0.539645 0.596748 0.176891
C6    C     C_R   0.896999 0.525322 0.607781 0.001908
C7    C     C_R   0.954557 0.483513 0.508493 -0.005538
C8    C     C_R   0.919708 0.447461 0.403209 -0.019231
C9    C     C_R   0.930779 0.550434 0.717444 -0.161344
C10   C     C_R   0.021486 0.543017 0.726352 0.438689
C11   C     C_R   0.081904 0.518582 0.618706 -0.069995
C12   C     C_R   0.503509 0.499208 0.257079 0.944199
C13   C     C_R   0.047332 0.482876 0.511738 -0.029721
C14   C     C_R   0.105256 0.448673 0.406701 0.072026
C15   C     C_R   0.070030 0.408126 0.304743 0.272236
C16   C     C_R   0.978193 0.407376 0.303956 -0.112315
C17   C     C_R   0.174430 0.530224 0.611364 0.421573
C18   C     C_R   0.230653 0.500757 0.504474 -0.151631
C19   C     C_R   0.196813 0.456956 0.405594 -0.226972
C20   C     C_R   0.561507 0.795610 0.422030 0.298199
C21   C     C_R   0.564144 0.195380 0.428364 0.295223
C22   C     C_R   0.439841 0.802426 0.580749 0.509135
C23   C     C_R   0.437164 0.205401 0.578707 0.507613
C24   C     C_R   0.444153 0.902380 0.594234 -0.217828
C25   C     C_R   0.441446 0.104844 0.592980 -0.217353
C26   C     C_R   0.673657 0.498658 0.497141 0.998361
C27   C     C_R   0.501816 0.949382 0.507428 -0.006768
C28   C     C_R   0.501041 0.050086 0.507553 -0.012638
C29   C     C_R   0.561273 0.895573 0.420682 -0.002184
C30   C     C_R   0.561517 0.095910 0.422981 -0.004559
C31   C     C_R   0.394775 0.956859 0.692208 0.381862
C32   C     C_R   0.391463 0.056495 0.690358 0.384653
C33   C     C_R   0.620073 0.041004 0.336987 -0.094256
C34   C     C_R   0.619774 0.943175 0.335617 -0.100755
C35   C     C_R   0.491974 0.501379 0.743147 0.949796
C36   C     C_3   0.471342 0.599598 0.083941 -0.464916
C37   C     C_3   0.429022 0.432408 0.085841 -0.478767
C38   C     C_3   0.464452 0.604279 0.944284 0.486927
C39   C     C_3   0.430602 0.423575 0.943708 0.504677
C40   C     C_3   0.594783 0.472372 0.044923 0.530240
C41   C     C_3   0.501332 0.499515 0.120465 -0.166576
C42   C     C_3   0.490865 0.502874 0.880534 -0.229429
H1    H     H_    0.518268 0.652046 0.112042 0.261680
H2    H     H_    0.438394 0.362011 0.126047 0.252489
H3    H     H_    0.243002 0.431436 0.327031 0.184359
H4    H     H_    0.953727 0.376050 0.223578 0.239271
H5    H     H_    0.666181 0.072661 0.267814 0.205979
H6    H     H_    0.666113 0.905944 0.266244 0.204589
H7    H     H_    0.406364 0.620160 0.139443 0.215441
H8    H     H_    0.362356 0.460024 0.129457 0.199496
H9    H     H_    0.631855 0.531642 0.862846 0.249008
H10   H     H_    0.614215 0.412251 0.854372 0.238088
H11   H     H_    0.886359 0.572143 0.799596 0.234932
N1    N     N_R   0.500070 0.750030 0.500050 -0.174031
N2    N     N_R   0.500070 0.249970 0.500050 -0.178982
O1    O     O_R   0.367860 0.580280 0.500020 -0.567926
O2    O     O_R   0.367860 0.419720 0.500020 -0.579563
O3    O     O_R   0.500000 0.580270 0.314790 -0.611715
O4    O     O_R   0.500000 0.419730 0.314790 -0.593702
O5    O     O_R   0.632160 0.580270 0.499960 -0.552777
O6    O     O_R   0.632160 0.419730 0.499960 -0.580789
O7    O     O_R   0.500030 0.580270 0.685200 -0.555268
O8    O     O_R   0.500030 0.419730 0.685200 -0.580617
Zn1   Zn    Zn3+2 0.500020 0.607200 0.499990 1.111636
Zn2   Zn    Zn3+2 0.500020 0.392800 0.499990 1.095509
Cl1   Cl    Cl    0.049818 0.555581 0.879135 -0.379117
Cl2   Cl    Cl    0.221144 0.588860 0.728251 -0.369362
Br1   Br    Br    0.143203 0.352946 0.162580 -0.311136
Br2   Br    Br    0.648445 0.723533 0.312649 -0.359117
Br3   Br    Br    0.665793 0.251308 0.347792 -0.329804
Cl3   Cl    Cl    0.346310 0.746722 0.645820 -0.387076
Cl4   Cl    Cl    0.345029 0.273084 0.650561 -0.417191
Cl5   Cl    Cl    0.349818 0.903787 0.831190 -0.333825
Cl6   Cl    Cl    0.333505 0.115680 0.823276 -0.328807
Br4   Br    Br    0.344873 0.653217 0.928451 -0.200377
Br5   Br    Br    0.308476 0.426922 0.902590 -0.211440
Br6   Br    Br    0.539704 0.706438 0.880640 -0.307676
Br7   Br    Br    0.474040 0.294297 0.894035 -0.314095
Br8   Br    Br    0.687299 0.557179 0.081530 -0.300988
Br9   Br    Br    0.637579 0.345414 0.076637 -0.295872
Cl7   Cl    Cl    0.784906 0.421629 0.261529 -0.462180
Br10  Br    Br    0.737621 0.632999 0.702886 -0.393761

loop_
_geom_bond_atom_site_label_1
_geom_bond_atom_site_label_2
_ccdc_geom_bond_type
O8    Zn2   S    
C5    Br10  S    
C27   C29   A    
C24   C27   A    
C6    C9    A    
C7    C8    A    
C22   N1    A    
C25   C28   A    
C1    C18   S    
C26   O6    A    
C38   C42   S    
C32   Cl6   S    
C5    C6    A    
C31   Cl5   S    
C15   C16   A    
C18   C19   A    
C35   C42   S    
O7    Zn1   S    
C12   O4    A    
C3    Cl7   S    
C40   Br9   S    
C2    C40   S    
C9    C10   A    
C38   Br4   S    
C12   O3    A    
C25   C32   A    
C8    C16   A    
C13   C14   A    
C36   C41   S    
C14   C19   A    
N2    Zn2   S    
C33   C34   A    
C39   C42   S    
C20   C29   A    
C10   Cl1   S    
O3    Zn1   S    
C17   Cl2   S    
C39   Br7   S    
C20   N1    A    
C3    C8    A    
C2    H9    S    
C16   H4    S    
C21   N2    A    
C29   C34   A    
C12   C41   S    
C1    O2    A    
C31   C32   A    
O1    Zn1   S    
C17   C18   A    
C40   Br8   S    
C39   Br5   S    
C2    H10   S    
C40   C41   S    
C33   H5    S    
C22   C24   A    
C20   Br2   S    
C34   H6    S    
C3    C4    A    
C22   Cl3   S    
C11   C17   A    
C30   C33   A    
C23   Cl4   S    
C1    O1    A    
O2    Zn2   S    
C4    C5    A    
C4    C26   S    
C19   H3    S    
C23   N2    A    
C6    C7    A    
C38   Br6   S    
C21   C30   A    
C21   Br3   S    
O5    Zn1   S    
C37   H2    S    
C28   C30   A    
C24   C31   A    
C37   C39   S    
O4    Zn2   S    
C37   H8    S    
C11   C13   A    
N1    Zn1   S    
C2    C42   S    
C15   Br1   S    
C36   C38   S    
C35   O7    A    
C23   C25   A    
C37   C41   S    
C10   C11   A    
O6    Zn2   S    
C7    C13   A    
C9    H11   S    
C27   C28   A    
C14   C15   A    
C36   H1    S    
C35   O8    A    
C26   O5    A    
C36   H7    S    
