data_mof_unit_47504.cif
_audit_creation_date              2012-12-10T20:37:25-0500
_audit_creation_method            fapswitch 2.2
_symmetry_space_group_name_H-M    P1
_symmetry_Int_Tables_number       1
_space_group_crystal_system       triclinic
_cell_length_a                    15.705973
_cell_length_b                    10.650954
_cell_length_c                    9.909465
_cell_angle_alpha                 90.579261
_cell_angle_beta                  89.304484
_cell_angle_gamma                 90.103741
_cell_volume                      1657.48173199

loop_
_atom_site_label
_atom_site_type_symbol
_atom_type_description
_atom_site_fract_x
_atom_site_fract_y
_atom_site_fract_z
_atom_type_partial_charge
C1    C     C_R   0.499132 0.260094 0.499921 0.885494
C2    C     C_3   0.083045 0.500307 0.501885 0.105650
C3    C     C_3   0.971353 0.542454 0.621102 -0.084445
C4    C     C_3   0.917076 0.499307 0.501452 0.059107
C5    C     C_3   0.028292 0.618260 0.523423 -0.273299
C6    C     C_3   0.972751 0.575012 0.402913 -0.126702
C7    C     C_1   0.173876 0.499860 0.502373 0.028608
C8    C     C_1   0.826203 0.499191 0.498709 0.024516
C9    C     C_R   0.514829 0.063928 0.616281 0.047629
C10   C     C_R   0.488973 0.128249 0.502995 -0.085699
C11   C     C_R   0.442840 0.066193 0.402842 -0.250479
C12   C     C_R   0.338049 0.499557 0.500683 0.941029
C13   C     C_R   0.436847 0.935695 0.403099 -0.030769
C14   C     C_R   0.479897 0.870855 0.505992 -0.201031
C15   C     C_R   0.509849 0.936276 0.618170 -0.005779
C16   C     C_3   0.593398 0.926176 0.691067 0.398481
C17   C     C_3   0.597785 0.068835 0.688774 -0.535702
C18   C     C_R   0.430307 0.460890 0.070955 0.139921
C19   C     C_R   0.566035 0.551101 0.069481 -0.051155
C20   C     C_R   0.566433 0.547917 0.926093 -0.131939
C21   C     C_R   0.428848 0.465641 0.929366 0.045166
C22   C     C_3   0.379075 0.346670 0.915336 -0.444415
C23   C     C_R   0.494651 0.739438 0.500872 0.925703
C24   C     C_3   0.384805 0.336075 0.070673 0.857105
C25   C     C_R   0.661968 0.499962 0.499304 0.896537
C26   C     C_3   0.972107 0.380927 0.479265 -0.293372
C27   C     C_3   0.029439 0.457288 0.381294 -0.174056
C28   C     C_1   0.249172 0.499630 0.502080 -0.085265
C29   C     C_1   0.750886 0.499488 0.497986 -0.130775
C30   C     C_3   0.026770 0.425840 0.598677 0.533346
H1    H     H_    0.055731 0.423422 0.283011 0.170232
H2    H     H_    0.643796 0.881434 0.627165 0.103026
H3    H     H_    0.591696 0.114541 0.789664 0.214510
H4    H     H_    0.650640 0.105421 0.624557 0.166444
H5    H     H_    0.620099 0.585593 0.870032 0.203506
H6    H     H_    0.413240 0.271944 0.857494 0.161425
H7    H     H_    0.947109 0.284805 0.460859 0.152225
H8    H     H_    0.948246 0.636121 0.322062 0.161832
H9    H     H_    0.053229 0.714581 0.540980 0.176339
H10   H     H_    0.411991 0.119006 0.325495 0.231864
N1    N     N_R   0.499430 0.499140 0.142800 -0.171767
N2    N     N_R   0.499430 0.499180 0.857150 -0.121807
O1    O     O_R   0.500010 0.316790 0.614690 -0.622394
O2    O     O_R   0.500000 0.316760 0.385350 -0.609954
O3    O     O_R   0.376780 0.500010 0.614650 -0.616244
O4    O     O_R   0.376770 0.499970 0.385310 -0.569090
O5    O     O_R   0.500000 0.683240 0.614650 -0.618999
O6    O     O_R   0.499990 0.683210 0.385310 -0.559942
O7    O     O_R   0.623230 0.500030 0.614690 -0.608767
O8    O     O_R   0.623220 0.499990 0.385350 -0.615741
Zn1   Zn    Zn3+2 0.500010 0.500020 0.653130 0.977083
Zn2   Zn    Zn3+2 0.499990 0.499980 0.346870 1.020820
C31   C     C_2   0.639237 0.611126 0.134883 0.975473
O9    O     O_2   0.628581 0.701397 0.210065 -0.613676
O10   O     O_R   0.721496 0.568954 0.104150 -0.823533
H11   H     H_    0.766860 0.618310 0.153822 0.336059
C32   C     C_2   0.291454 0.371103 0.860364 1.008910
O11   O     O_2   0.262081 0.299482 0.775673 -0.609950
O12   O     O_R   0.244328 0.475233 0.904969 -0.758711
H12   H     H_    0.187013 0.481196 0.859529 0.375543
O13   O     O_3   0.305487 0.349308 0.139519 -0.611464
C33   C     C_3   0.260569 0.234289 0.143063 -0.164448
H13   H     H_    0.282605 0.176807 0.228488 0.182877
H14   H     H_    0.266166 0.179440 0.047145 0.166489
H15   H     H_    0.192067 0.254696 0.160611 0.162654
O14   O     O_3   0.432117 0.230362 0.117263 -0.627533
C34   C     C_3   0.518663 0.224041 0.075298 -0.327884
H16   H     H_    0.559558 0.276025 0.147022 0.207945
H17   H     H_    0.531236 0.257612 0.971630 0.135985
H18   H     H_    0.538965 0.124463 0.078051 0.209121
C35   C     C_2   0.940249 0.590384 0.755637 0.906214
O15   O     O_2   0.991765 0.621000 0.841388 -0.606359
O16   O     O_R   0.852958 0.599572 0.782606 -0.799227
H19   H     H_    0.840171 0.633020 0.876810 0.363463
O17   O     O_3   0.062429 0.352117 0.701086 -0.587898
C36   C     C_3   0.999165 0.273800 0.756932 -0.246083
H20   H     H_    0.980335 0.199501 0.683566 0.155554
H21   H     H_    0.942380 0.327857 0.791974 0.155330
H22   H     H_    0.025887 0.226470 0.846132 0.201816
C37   C     C_2   0.385973 0.872238 0.296911 0.932676
O18   O     O_2   0.381695 0.917783 0.184359 -0.646182
O19   O     O_R   0.340048 0.763314 0.326840 -0.804250
H23   H     H_    0.307655 0.729383 0.246406 0.356125
O20   O     O_3   0.592715 0.876096 0.824279 -0.599848
C38   C     C_3   0.512693 0.882183 0.891033 -0.172698
H24   H     H_    0.467152 0.814719 0.845192 0.186089
H25   H     H_    0.486027 0.978749 0.891772 0.166978
H26   H     H_    0.521243 0.854424 0.997599 0.206431

loop_
_geom_bond_atom_site_label_1
_geom_bond_atom_site_label_2
_ccdc_geom_bond_type
O10   H11   S    
C24   O13   S    
C18   C21   A    
O16   H19   S    
C2    C7    S    
C36   H22   S    
C4    C8    S    
O1    Zn1   S    
C22   C32   S    
C31   O9    D    
C26   C27   S    
C12   C28   S    
C18   C24   S    
C8    C29   T    
C36   H21   S    
C5    C6    S    
C32   O12   S    
O3    Zn1   S    
C15   C16   S    
O4    Zn2   S    
C16   O20   S    
C25   O8    A    
C33   H14   S    
C20   H5    S    
C1    O1    A    
C19   C20   A    
C16   C17   S    
O7    Zn1   S    
O8    Zn2   S    
C6    H8    S    
C2    C27   S    
C9    C10   A    
N1    Zn2   S    
C24   O14   S    
N2    Zn1   S    
C19   C31   S    
C31   O10   S    
O14   C34   S    
C13   C37   S    
O12   H12   S    
C21   C22   S    
O13   C33   S    
C17   H3    S    
C38   H25   S    
C25   C29   S    
C23   O5    A    
C27   H1    S    
C34   H16   S    
O20   C38   S    
C4    C6    S    
C18   N1    A    
C35   O16   S    
C12   O3    A    
O5    Zn1   S    
C38   H24   S    
C7    C28   T    
C34   H17   S    
C14   C23   S    
C3    C30   S    
C3    C35   S    
O17   C36   S    
C33   H13   S    
C1    O2    A    
C4    C26   S    
C6    C27   S    
C36   H20   S    
C12   O4    A    
C26   C30   S    
C5    H9    S    
C22   C24   S    
C2    C5    S    
C17   H4    S    
C3    C4    S    
C38   H26   S    
C9    C17   S    
C23   O6    A    
C33   H15   S    
C1    C10   S    
C37   O18   D    
C3    C5    S    
C20   N2    A    
C26   H7    S    
C16   H2    S    
C22   H6    S    
C2    C30   S    
C34   H18   S    
C9    C15   A    
C35   O15   D    
C30   O17   S    
C11   C13   A    
O2    Zn2   S    
C32   O11   D    
C37   O19   S    
C11   H10   S    
C25   O7    A    
C10   C11   A    
C21   N2    A    
O6    Zn2   S    
O19   H23   S    
C14   C15   A    
C13   C14   A    
C19   N1    A    
