data_mof_unit_45998.cif
_audit_creation_date              2012-12-10T18:22:22-0500
_audit_creation_method            fapswitch 2.2
_symmetry_space_group_name_H-M    P1
_symmetry_Int_Tables_number       1
_space_group_crystal_system       triclinic
_cell_length_a                    15.015928
_cell_length_b                    14.067068
_cell_length_c                    15.72377
_cell_angle_alpha                 89.946108
_cell_angle_beta                  89.69418
_cell_angle_gamma                 89.848564
_cell_volume                      3321.27286112

loop_
_atom_site_label
_atom_site_type_symbol
_atom_type_description
_atom_site_fract_x
_atom_site_fract_y
_atom_site_fract_z
_atom_type_partial_charge
C1    C     C_R   0.326603 0.500119 0.500687 0.871058
C2    C     C_R   0.907860 0.413120 0.501590 0.048054
C3    C     C_R   0.953808 0.499983 0.511905 -0.071615
C4    C     C_R   0.500444 0.500041 0.338282 0.899587
C5    C     C_R   0.906913 0.586549 0.521603 -0.047014
C6    C     C_R   0.954737 0.326919 0.492290 0.514989
C7    C     C_R   0.047404 0.328297 0.489550 -0.309897
C8    C     C_R   0.093073 0.414002 0.498955 0.087285
C9    C     C_R   0.046505 0.500275 0.511141 -0.007833
C10   C     C_R   0.092838 0.586734 0.521390 -0.061822
C11   C     C_R   0.046197 0.672412 0.534818 0.396701
C12   C     C_3   0.593770 0.487760 0.950151 -0.502591
C13   C     C_R   0.952980 0.672912 0.531402 0.408631
C14   C     C_R   0.185022 0.414708 0.495447 -0.209683
C15   C     C_R   0.230791 0.500300 0.504109 -0.089236
C16   C     C_R   0.673483 0.499940 0.501719 0.874954
C17   C     C_R   0.185235 0.585748 0.517508 -0.185011
C18   C     C_R   0.532744 0.798199 0.430780 0.655875
C19   C     C_R   0.531487 0.201719 0.430245 0.644178
C20   C     C_R   0.466978 0.798385 0.568674 -0.073095
C21   C     C_R   0.467508 0.201604 0.568879 -0.073542
C22   C     C_R   0.466068 0.898906 0.570334 -0.142213
C23   C     C_3   0.594753 0.490389 0.047969 -0.349039
C24   C     C_R   0.466274 0.101063 0.570402 -0.152919
C25   C     C_R   0.496215 0.949411 0.498346 -0.108871
C26   C     C_R   0.496106 0.050529 0.498301 -0.109566
C27   C     C_R   0.526625 0.898889 0.426416 -0.262589
C28   C     C_R   0.525910 0.101009 0.426142 -0.258812
C29   C     C_R   0.435188 0.949972 0.641688 0.548541
C30   C     C_R   0.435397 0.049999 0.641761 0.562406
C31   C     C_R   0.548368 0.049629 0.352001 0.534751
C32   C     C_R   0.548951 0.950167 0.352204 0.539375
C33   C     C_R   0.500119 0.499969 0.661752 0.895293
C34   C     C_1   0.498707 0.500382 0.825941 0.134359
C35   C     C_3   0.456307 0.594292 0.050487 0.225116
C36   C     C_3   0.441509 0.414237 0.050167 0.188932
C37   C     C_3   0.439497 0.415488 0.950644 0.924470
C38   C     C_3   0.460070 0.597996 0.951283 0.885625
C39   C     C_1   0.499638 0.499988 0.750613 -0.161332
C40   C     C_3   0.498306 0.499526 0.082580 -0.057003
C41   C     C_3   0.497024 0.500641 0.917580 -0.079128
C42   C     C_3   0.366534 0.688525 0.860876 -0.098987
C43   C     C_3   0.305364 0.339720 0.914533 -0.155473
C44   C     C_3   0.101311 0.773643 0.633226 -0.244745
C45   C     C_1   0.499768 0.499740 0.174164 0.074207
C46   C     C_3   0.900015 0.802388 0.461940 -0.279011
C47   C     C_3   0.665523 0.750071 0.375849 -0.187176
C48   C     C_3   0.663705 0.249031 0.372999 -0.142765
C49   C     C_3   0.424681 0.281498 0.139176 -0.133105
C50   C     C_3   0.444543 0.747578 0.105949 -0.076961
C51   C     C_3   0.907769 0.191036 0.555581 -0.323267
C52   C     C_1   0.500407 0.500081 0.249466 -0.156941
C53   C     C_R   0.814520 0.585207 0.519895 -0.184705
C54   C     C_R   0.769391 0.499871 0.506948 -0.109915
C55   C     C_R   0.815700 0.414254 0.499906 -0.222935
F1    F     F_    0.405177 0.903139 0.711719 -0.651249
F2    F     F_    0.405628 0.096832 0.711887 -0.626593
F3    F     F_    0.566618 0.094894 0.277657 -0.617909
F4    F     F_    0.568240 0.904709 0.278191 -0.613246
F5    F     F_    0.477208 0.331786 0.918588 -0.626964
F6    F     F_    0.519159 0.669850 0.926597 -0.650518
H1    H     H_    0.083444 0.262337 0.479433 0.168346
H2    H     H_    0.637843 0.544669 0.924641 0.243964
H3    H     H_    0.622149 0.418998 0.927678 0.249006
H4    H     H_    0.777547 0.650566 0.528673 0.193246
H5    H     H_    0.779923 0.348438 0.492731 0.186392
H6    H     H_    0.297497 0.691932 0.836306 0.158961
H7    H     H_    0.411567 0.676214 0.805632 0.183998
H8    H     H_    0.381183 0.757953 0.891362 0.206596
H9    H     H_    0.312395 0.295466 0.972598 0.156427
H10   H     H_    0.329148 0.300035 0.857660 0.229710
H11   H     H_    0.233379 0.354373 0.905808 0.161819
H12   H     H_    0.220818 0.348538 0.485402 0.163636
H13   H     H_    0.139132 0.840543 0.641879 0.202464
H14   H     H_    0.139831 0.715562 0.664277 0.143151
H15   H     H_    0.035542 0.782735 0.665208 0.193345
H16   H     H_    0.858749 0.867418 0.469337 0.185515
H17   H     H_    0.866476 0.755937 0.414639 0.130078
H18   H     H_    0.966481 0.824576 0.437582 0.207321
H19   H     H_    0.695401 0.689601 0.340461 0.178216
H20   H     H_    0.686406 0.743546 0.443392 0.118102
H21   H     H_    0.693462 0.816654 0.348952 0.180696
H22   H     H_    0.686706 0.239318 0.439730 0.108493
H23   H     H_    0.221947 0.651427 0.524834 0.204647
H24   H     H_    0.691841 0.190863 0.333534 0.204437
H25   H     H_    0.691787 0.316873 0.349010 0.171451
H26   H     H_    0.360950 0.258766 0.110176 0.123629
H27   H     H_    0.411437 0.327719 0.195119 0.136416
H28   H     H_    0.459413 0.216855 0.162315 0.244619
H29   H     H_    0.400004 0.727331 0.159688 0.128950
H30   H     H_    0.404685 0.769482 0.049799 0.146188
H31   H     H_    0.484245 0.809784 0.126436 0.235768
H32   H     H_    0.868858 0.125097 0.545540 0.201516
H33   H     H_    0.873935 0.232334 0.606876 0.166122
H34   H     H_    0.442005 0.758422 0.622532 0.195249
H35   H     H_    0.975847 0.169646 0.575826 0.177603
H36   H     H_    0.443066 0.241565 0.622962 0.210332
H37   H     H_    0.384943 0.593355 0.071655 0.055785
H38   H     H_    0.371672 0.424727 0.073788 0.045116
H39   H     H_    0.635754 0.551443 0.069696 0.235457
H40   H     H_    0.626959 0.424655 0.072687 0.233329
N1    N     N_R   0.500070 0.750030 0.500040 -0.166139
N2    N     N_R   0.500070 0.249970 0.500040 -0.167079
O1    O     O_R   0.367860 0.580280 0.500020 -0.629961
O2    O     O_3   0.350443 0.427262 0.921512 -0.655009
O3    O     O_3   0.091446 0.757108 0.545353 -0.602991
O4    O     O_3   0.907016 0.757536 0.541900 -0.597977
O5    O     O_3   0.572143 0.747404 0.365572 -0.538795
O6    O     O_3   0.570046 0.252378 0.364558 -0.559722
O7    O     O_3   0.479737 0.327104 0.078676 -0.535215
O8    O     O_3   0.503351 0.672462 0.085802 -0.546346
O9    O     O_3   0.910130 0.242435 0.478600 -0.621765
O10   O     O_R   0.367860 0.419720 0.500020 -0.627420
O11   O     O_R   0.500020 0.580310 0.377140 -0.556871
O12   O     O_R   0.500020 0.419690 0.377140 -0.569800
O13   O     O_R   0.632160 0.580270 0.499980 -0.624804
O14   O     O_R   0.632160 0.419730 0.499980 -0.623180
O15   O     O_R   0.500010 0.580240 0.622850 -0.628429
O16   O     O_R   0.500010 0.419760 0.622850 -0.612333
O17   O     O_3   0.371841 0.613808 0.920673 -0.670050
Zn1   Zn    Zn3+2 0.500020 0.607200 0.499990 0.985062
Zn2   Zn    Zn3+2 0.500020 0.392800 0.499990 0.983620

loop_
_geom_bond_atom_site_label_1
_geom_bond_atom_site_label_2
_ccdc_geom_bond_type
C43   H11   S    
C22   C29   A    
C49   H26   S    
C4    O12   A    
C13   O4    S    
C7    C8    A    
C53   C54   A    
C12   C23   S    
C51   O9    S    
C4    C52   S    
C31   F3    S    
C4    O11   A    
C36   C37   S    
C24   C26   A    
C2    C3    A    
C2    C55   A    
C18   N1    A    
C46   H18   S    
C12   H3    S    
C20   N1    A    
C10   C17   A    
C23   C40   S    
C30   F2    S    
C43   O2    S    
C47   H21   S    
C44   H15   S    
O11   Zn1   S    
C19   N2    A    
C50   H29   S    
O10   Zn2   S    
C8    C9    A    
C22   C25   A    
C43   H10   S    
C1    C15   S    
N1    Zn1   S    
C53   H4    S    
C9    C10   A    
C5    C13   A    
C51   H35   S    
C38   F6    S    
C38   O17   S    
C48   O6    S    
C33   O15   A    
O12   Zn2   S    
C42   H7    S    
C49   H27   S    
C2    C6    A    
C34   C41   S    
C1    O10   A    
C47   H19   S    
C16   O13   A    
C18   O5    S    
C19   O6    S    
C40   C45   S    
O13   Zn1   S    
C34   C39   T    
C14   H12   S    
C36   C40   S    
C35   C38   S    
C38   C41   S    
C46   H17   S    
C12   H2    S    
O1    Zn1   S    
C45   C52   T    
C25   C26   A    
C42   H8    S    
O15   Zn1   S    
C44   H14   S    
O14   Zn2   S    
C7    H1    S    
C37   O2    S    
C12   C41   S    
C3    C9    A    
C21   H36   S    
C31   C32   A    
C46   O4    S    
C11   O3    S    
C33   C39   S    
C44   H13   S    
C19   C28   A    
C1    O1    A    
C51   H32   S    
C50   H31   S    
C20   H34   S    
C20   C22   A    
C33   O16   A    
C43   H9    S    
C36   O7    S    
C42   H6    S    
C48   H25   S    
C35   H37   S    
C55   H5    S    
C35   O8    S    
O16   Zn2   S    
C5    C53   A    
C15   C17   A    
C54   C55   A    
C8    C14   A    
C27   C32   A    
C14   C15   A    
C6    O9    S    
C28   C31   A    
C18   C27   A    
C49   H28   S    
C3    C5    A    
C46   H16   S    
C6    C7    A    
C29   F1    S    
C44   O3    S    
C25   C27   A    
C26   C28   A    
C48   H22   S    
C17   H23   S    
C16   C54   S    
C35   C40   S    
C16   O14   A    
C11   C13   A    
C42   O17   S    
C23   H40   S    
C50   O8    S    
C23   H39   S    
C36   H38   S    
C47   H20   S    
C37   C41   S    
C24   C30   A    
C37   F5    S    
C10   C11   A    
C51   H33   S    
C29   C30   A    
C21   N2    A    
C50   H30   S    
C47   O5    S    
C21   C24   A    
C48   H24   S    
C32   F4    S    
N2    Zn2   S    
C49   O7    S    
