data_mof_unit_16756.cif
_audit_creation_date              2012-12-10T18:13:48-0500
_audit_creation_method            fapswitch 2.2
_symmetry_space_group_name_H-M    P1
_symmetry_Int_Tables_number       1
_space_group_crystal_system       triclinic
_cell_length_a                    10.89587
_cell_length_b                    9.645573
_cell_length_c                    23.319682
_cell_angle_alpha                 90.219058
_cell_angle_beta                  90.791706
_cell_angle_gamma                 91.47316
_cell_volume                      2449.76115932

loop_
_atom_site_label
_atom_site_type_symbol
_atom_type_description
_atom_site_fract_x
_atom_site_fract_y
_atom_site_fract_z
_atom_type_partial_charge
C1    C     C_R   0.258339 0.497955 0.499352 0.845700
C2    C     C_R   0.465232 0.731659 0.972299 -0.134289
C3    C     C_R   0.475876 0.736858 0.031770 -0.132902
C4    C     C_R   0.537207 0.632672 0.061785 -0.024377
C5    C     C_R   0.592387 0.524267 0.031495 -0.035513
C6    C     C_R   0.652399 0.417157 0.061546 -0.032097
C7    C     C_R   0.711920 0.312537 0.029441 0.121936
C8    C     C_R   0.706488 0.315439 0.969253 -0.119088
C9    C     C_R   0.541203 0.632439 0.121666 0.592518
C10   C     C_R   0.646929 0.418411 0.122339 0.621290
C11   C     C_R   0.672969 0.537247 0.251163 0.399605
C12   C     C_R   0.506566 0.500078 0.391426 0.947455
C13   C     C_R   0.649401 0.525698 0.309993 -0.259128
C14   C     C_R   0.529570 0.501448 0.329464 -0.028406
C15   C     C_R   0.433677 0.483300 0.289461 -0.087909
C16   C     C_R   0.456658 0.488426 0.231146 -0.134257
C17   C     C_R   0.575319 0.516283 0.211384 0.237386
C18   C     C_R   0.469547 0.406477 0.764629 0.439519
C19   C     C_R   0.456551 0.403224 0.704858 -0.277575
C20   C     C_R   0.516555 0.502688 0.671190 -0.159867
C21   C     C_R   0.593733 0.603425 0.697095 -0.275676
C22   C     C_R   0.613380 0.604619 0.756379 0.436139
C23   C     C_R   0.737859 0.502169 0.504289 0.762943
C24   C     C_R   0.549411 0.507095 0.790749 0.092909
C25   C     C_3   0.070955 0.644101 0.513791 -0.407529
C26   C     C_3   0.066783 0.402740 0.548544 -0.419600
C27   C     C_3   0.930372 0.649652 0.519801 -0.377991
C28   C     C_3   0.924747 0.401010 0.548486 -0.332411
C29   C     C_3   0.050227 0.443950 0.439574 0.669881
C30   C     C_3   0.116028 0.494752 0.498881 -0.037430
C31   C     C_3   0.873560 0.506224 0.504188 0.051584
C32   C     C_3   0.911629 0.476116 0.442236 -0.414099
C33   C     C_3   0.626813 0.087136 0.504261 -0.278909
C34   C     C_3   0.625732 0.922331 0.513054 -0.255474
C35   C     C_3   0.442372 0.083862 0.555121 0.066044
C36   C     C_3   0.429090 0.917066 0.551053 0.021319
C37   C     C_3   0.429414 0.067954 0.451143 0.312187
C38   C     C_3   0.465283 0.912253 0.444203 0.284955
C39   C     C_R   0.502589 0.500442 0.608692 0.799434
C40   C     C_R   0.632543 0.417004 0.879719 0.683273
C41   C     C_R   0.505449 0.614846 0.881713 0.670072
C42   C     C_R   0.518378 0.624105 0.941483 -0.021121
C43   C     C_R   0.584854 0.522206 0.970949 -0.006510
C44   C     C_R   0.641971 0.417491 0.939878 -0.067341
Cu1   Cu    Cu3+1 0.499860 0.642410 0.500030 0.984437
Cu2   Cu    Cu3+1 0.499860 0.357590 0.500030 1.008521
H1    H     H_    0.415059 0.812060 0.950600 0.194934
H2    H     H_    0.397325 0.325178 0.684522 0.187318
H3    H     H_    0.641311 0.679184 0.670702 0.189850
H4    H     H_    0.100660 0.719157 0.480668 0.246979
H5    H     H_    0.098603 0.295297 0.545774 0.224695
H6    H     H_    0.111153 0.677996 0.555549 0.183095
H7    H     H_    0.102551 0.443660 0.590419 0.173544
H8    H     H_    0.906209 0.678255 0.564483 0.183694
H9    H     H_    0.893210 0.428725 0.592165 0.165298
H10   H     H_    0.894658 0.731963 0.491194 0.218842
H11   H     H_    0.887931 0.294634 0.540084 0.223531
H12   H     H_    0.887833 0.567342 0.415826 0.205663
H13   H     H_    0.851906 0.393956 0.421968 0.180119
H14   H     H_    0.679277 0.136011 0.540627 0.163130
H15   H     H_    0.657756 0.899161 0.557515 0.129570
H16   H     H_    0.433163 0.821059 0.054226 0.199100
H17   H     H_    0.678904 0.118951 0.466126 0.253199
H18   H     H_    0.699267 0.877428 0.487805 0.243038
H19   H     H_    0.505652 0.107474 0.592197 0.160086
H20   H     H_    0.471532 0.880108 0.591872 0.177101
H21   H     H_    0.333202 0.058002 0.464605 0.116216
H22   H     H_    0.382240 0.852429 0.429185 0.132366
H23   H     H_    0.751283 0.235408 0.945114 0.193379
H24   H     H_    0.724229 0.537478 0.340728 0.157143
H25   H     H_    0.340488 0.466390 0.302271 0.215998
H26   H     H_    0.381184 0.473087 0.200872 0.179915
N1    N     N_R   0.562858 0.512936 0.852097 -0.435973
N2    N     N_R   0.592665 0.525032 0.150535 -0.452040
N3    N     N_3   0.500250 0.143650 0.501250 -0.206350
N4    N     N_3   0.500250 0.856350 0.501250 -0.217496
O1    O     O_R   0.317570 0.620260 0.500030 -0.589927
O2    O     O_R   0.317570 0.379740 0.500030 -0.532114
O3    O     O_R   0.499840 0.620290 0.417900 -0.495575
O4    O     O_R   0.499840 0.379710 0.417900 -0.499907
O5    O     O_R   0.682190 0.620260 0.500010 -0.568069
O6    O     O_R   0.682190 0.379740 0.500010 -0.601452
O7    O     O_R   0.499920 0.620230 0.582140 -0.599285
O8    O     O_R   0.499920 0.379770 0.582140 -0.602162
O9    O     O_2   0.692286 0.321659 0.849019 -0.479845
O10   O     O_2   0.435182 0.706006 0.853362 -0.479361
O11   O     O_2   0.491459 0.737348 0.151138 -0.474836
O12   O     O_2   0.691537 0.313006 0.153353 -0.498232
S1    S     S_3+6 0.718604 0.729344 0.786038 0.043039
O13   O     O_2   0.787647 0.669028 0.835887 -0.272847
O14   O     O_2   0.808552 0.776045 0.741309 -0.277570
O15   O     O_3   0.640660 0.867055 0.808559 -0.471621
H27   H     H_    0.703251 0.929390 0.827043 0.394225
S2    S     S_3+6 0.112253 0.541229 0.378890 -0.006941
O16   O     O_2   0.248559 0.558151 0.384550 -0.358055
O17   O     O_2   0.080933 0.470720 0.322901 -0.239904
O18   O     O_3   0.054645 0.701517 0.376724 -0.538456
H28   H     H_    0.104273 0.752299 0.347956 0.423874
S3    S     S_3+6 0.050911 0.254637 0.427138 0.030203
O19   O     O_2   0.159013 0.191096 0.455283 -0.280295
O20   O     O_2   0.939783 0.183099 0.452154 -0.347201
O21   O     O_3   0.049749 0.214093 0.356936 -0.435378
H29   H     H_    0.963250 0.223082 0.344120 0.370186
S4    S     S_3+6 0.397493 0.139120 0.379433 0.113328
O22   O     O_2   0.509403 0.181352 0.346321 -0.218680
O23   O     O_2   0.329512 0.027416 0.345720 -0.239537
O24   O     O_3   0.305179 0.274576 0.380274 -0.445686
H30   H     H_    0.267427 0.274701 0.341478 0.403719
S5    S     S_3+6 0.583941 0.886632 0.387155 0.081963
O25   O     O_2   0.518855 0.848176 0.331892 -0.182713
O26   O     O_2   0.661956 0.014349 0.377195 -0.258421
O27   O     O_3   0.685793 0.762527 0.401160 -0.560771
H31   H     H_    0.754527 0.780050 0.374556 0.389460
C45   C     C_3   0.321769 0.150002 0.575290 -0.735552
H32   H     H_    0.323972 0.260920 0.583939 0.249752
H33   H     H_    0.243984 0.125536 0.546066 0.254595
H34   H     H_    0.299472 0.109262 0.618490 0.204660
C46   C     C_3   0.297365 0.858867 0.555854 -0.777438
H35   H     H_    0.300365 0.756185 0.576519 0.252806
H36   H     H_    0.239142 0.911446 0.586978 0.215835
H37   H     H_    0.250241 0.860675 0.513614 0.236766
C47   C     C_3   0.782911 0.197282 0.056979 -0.648205
H38   H     H_    0.719952 0.128211 0.081516 0.264619
H39   H     H_    0.828121 0.131482 0.024716 0.209203
H40   H     H_    0.856556 0.241593 0.085451 0.275530
S6    S     S_3+6 0.823624 0.581489 0.229206 0.093882
O28   O     O_2   0.820356 0.664362 0.174797 -0.227240
O29   O     O_2   0.888864 0.666084 0.275054 -0.222135
O30   O     O_3   0.901400 0.435963 0.217641 -0.435936
H41   H     H_    0.885246 0.377306 0.251623 0.359125
S7    S     S_3+6 0.383979 0.284206 0.805374 0.045976
O31   O     O_2   0.338175 0.350719 0.859124 -0.279858
O32   O     O_2   0.276206 0.228434 0.770688 -0.264113
O33   O     O_3   0.474800 0.152268 0.823062 -0.474086
H42   H     H_    0.423780 0.091205 0.847723 0.391103

loop_
_geom_bond_atom_site_label_1
_geom_bond_atom_site_label_2
_ccdc_geom_bond_type
C4    C9    A    
S6    O28   D    
C23   O6    A    
C1    O1    A    
C41   C42   A    
C19   C20   A    
C16   H26   S    
C32   H12   S    
S7    O33   S    
C21   H3    S    
O18   H28   S    
C27   H8    S    
C7    C8    A    
C38   N4    S    
C28   H11   S    
C41   O10   S    
C10   O12   S    
C8    H23   S    
C37   C38   S    
Cu1   N4    S    
C18   C24   A    
O15   H27   S    
C39   O8    A    
C29   C32   S    
S5    O26   D    
C5    C6    A    
C36   H20   S    
C24   N1    S    
C13   H24   S    
C35   H19   S    
C15   C16   A    
C12   O3    A    
C12   O4    A    
C11   C13   A    
C40   N1    A    
C35   C45   S    
C18   C19   A    
C25   H4    S    
Cu2   N3    S    
C36   N4    S    
Cu2   O6    S    
C33   N3    S    
C35   C36   S    
C16   C17   A    
O24   H30   S    
S1    O14   D    
C36   C46   S    
C37   N3    S    
C13   C14   A    
C46   H35   S    
C1    O2    A    
C18   S7    S    
Cu1   O7    S    
S4    O23   D    
S4    O22   D    
C28   H9    S    
C45   H32   S    
C29   S3    S    
C27   C31   S    
C11   S6    S    
S5    O27   S    
Cu2   O2    S    
C20   C39   S    
C27   H10   S    
S2    O18   S    
Cu1   Cu2   S    
C34   H15   S    
S1    O15   S    
C46   H37   S    
C23   C31   S    
C40   O9    S    
C43   C44   A    
C29   C30   S    
C31   C32   S    
C33   H17   S    
C35   N3    S    
C34   H18   S    
C33   C34   S    
S2    O16   D    
Cu1   O3    S    
C38   S5    S    
S2    O17   D    
O33   H42   S    
Cu2   O8    S    
S3    O20   D    
C12   C14   S    
C26   C30   S    
C33   H14   S    
C17   N2    S    
C22   C24   A    
C9    N2    A    
C7    C47   S    
C47   H39   S    
S7    O31   D    
C26   H7    S    
O30   H41   S    
C3    H16   S    
C25   C30   S    
C11   C17   A    
S6    O29   D    
C23   O5    A    
C19   H2    S    
C28   C31   S    
Cu1   O5    S    
C8    C44   A    
C38   H22   S    
C4    C5    A    
S7    O32   D    
C6    C10   A    
C37   S4    S    
C45   H33   S    
C6    C7    A    
C2    H1    S    
C25   C27   S    
C15   H25   S    
C26   C28   S    
S6    O30   S    
S3    O19   D    
C21   C22   A    
C47   H40   S    
C2    C3    A    
C47   H38   S    
C25   H6    S    
C39   O7    A    
C26   H5    S    
C9    O11   S    
Cu2   O4    S    
C10   N2    A    
C29   S2    S    
C2    C42   A    
C37   H21   S    
C1    C30   S    
C22   S1    S    
O27   H31   S    
C5    C43   A    
O21   H29   S    
C46   H36   S    
C45   H34   S    
C41   N1    A    
C40   C44   A    
S3    O21   S    
C20   C21   A    
C42   C43   A    
C14   C15   A    
Cu1   O1    S    
C32   H13   S    
S1    O13   D    
S5    O25   D    
S4    O24   S    
C3    C4    A    
C34   N4    S    
