data_mof_unit_68226.cif
_audit_creation_date              2013-03-05T16:09:59-0500
_audit_creation_method            fapswitch 2.2
_symmetry_space_group_name_H-M    P1
_symmetry_Int_Tables_number       1
_space_group_crystal_system       triclinic
_cell_length_a                    7.402607
_cell_length_b                    12.556722
_cell_length_c                    27.10276
_cell_angle_alpha                 90.248014
_cell_angle_beta                  91.993344
_cell_angle_gamma                 89.954936
_cell_volume                      2517.72013609

loop_
_atom_site_label
_atom_site_type_symbol
_atom_site_description
_atom_site_fract_x
_atom_site_fract_y
_atom_site_fract_z
_atom_type_partial_charge
O1    O     O_R   0.366550 0.651960 0.572490 -0.574303
O2    O     O_R   0.633450 0.348040 0.427510 -0.593064
O3    O     O_R   0.133450 0.151960 0.427510 -0.592785
O4    O     O_R   0.866550 0.848040 0.572490 -0.573343
O5    O     O_R   0.712370 0.639230 0.672140 -0.614038
O6    O     O_R   0.287630 0.360770 0.327860 -0.592344
O7    O     O_R   0.787630 0.139230 0.327860 -0.591655
O8    O     O_R   0.212370 0.860770 0.672140 -0.564652
O9    O     O_R   0.882770 0.848480 0.672480 -0.598585
O10   O     O_R   0.117230 0.151520 0.327520 -0.574693
O11   O     O_R   0.617230 0.348480 0.327520 -0.570330
O12   O     O_R   0.382770 0.651520 0.672480 -0.576615
C1    C     C_R   0.545148 0.612413 0.686889 1.050216
C2    C     C_R   0.453630 0.386828 0.312718 1.001561
C3    C     C_R   0.953324 0.111824 0.313210 1.009061
C4    C     C_R   0.045913 0.888355 0.686863 1.010453
O13   O     O_R   0.696320 0.639050 0.572850 -0.598131
O14   O     O_R   0.303680 0.360950 0.427150 -0.573264
O15   O     O_R   0.803680 0.139050 0.427150 -0.575670
O16   O     O_R   0.196320 0.860950 0.572850 -0.602829
C5    C     C_R   0.525579 0.613234 0.556682 0.926097
C6    C     C_R   0.474783 0.386429 0.443451 0.929081
C7    C     C_R   0.974881 0.113352 0.443402 0.926049
C8    C     C_R   0.025508 0.886496 0.556522 0.929417
O17   O     O_3   0.541150 0.818870 0.622480 -0.305235
O18   O     O_3   0.458850 0.181130 0.377520 -0.306550
O19   O     O_3   0.958850 0.318870 0.377520 -0.301990
O20   O     O_3   0.041150 0.681130 0.622480 -0.307152
V1    V     V_3+5 0.815990 0.737490 0.622490 1.131676
V2    V     V_3+5 0.184010 0.262510 0.377510 1.149500
V3    V     V_3+5 0.684010 0.237490 0.377510 1.151440
V4    V     V_3+5 0.315990 0.762510 0.622490 1.159380
C9    C     C_R   0.958567 0.169771 0.886892 0.516089
C10   C     C_R   0.891211 0.812585 0.118157 0.503138
C11   C     C_R   0.400446 0.685149 0.118330 0.456727
C12   C     C_R   0.454682 0.310099 0.877406 0.493792
O21   O     O_2   0.929653 0.065433 0.892969 -0.618141
O22   O     O_2   0.846079 0.915114 0.110601 -0.617146
O23   O     O_2   0.354411 0.582329 0.111246 -0.615275
O24   O     O_2   0.404081 0.412463 0.882574 -0.601689
N1    N     N_R   0.006462 0.206651 0.841572 -0.156703
N2    N     N_R   0.925179 0.776886 0.165299 -0.153250
N3    N     N_R   0.429297 0.724793 0.165701 -0.165596
N4    N     N_R   0.511996 0.273009 0.832332 -0.163538
C13   C     C_R   0.038522 0.313561 0.835980 0.523374
C14   C     C_R   0.955262 0.669500 0.172649 0.506649
C15   C     C_R   0.448278 0.834423 0.170552 0.530408
C16   C     C_R   0.544721 0.164628 0.828447 0.513616
C17   C     C_R   0.935346 0.148892 0.753938 0.706027
C18   C     C_R   0.842191 0.845907 0.249357 0.688097
C19   C     C_R   0.381905 0.661449 0.255655 0.697958
C20   C     C_R   0.483603 0.335701 0.740971 0.702073
C21   C     C_R   0.936905 0.067843 0.716687 -0.266076
C22   C     C_R   0.845346 0.930763 0.284938 -0.257688
C23   C     C_R   0.371294 0.572989 0.288514 -0.248186
C24   C     C_R   0.470061 0.423404 0.708039 -0.267232
C25   C     C_R   0.144625 0.963277 0.768807 0.608099
C26   C     C_R   0.048645 0.031194 0.233427 0.604838
C27   C     C_R   0.545497 0.466000 0.232374 0.583836
C28   C     C_R   0.604114 0.538589 0.771036 0.571539
C29   C     C_R   0.130826 0.039848 0.806568 -0.348200
C30   C     C_R   0.042671 0.948237 0.198953 -0.285774
C31   C     C_R   0.540919 0.549918 0.198528 -0.259138
C32   C     C_R   0.607317 0.453771 0.804419 -0.302562
C33   C     C_R   0.023568 0.131430 0.800488 -0.013081
C34   C     C_R   0.937762 0.856184 0.205233 -0.029739
C35   C     C_R   0.449018 0.646801 0.206975 0.073892
C36   C     C_R   0.538443 0.351512 0.791989 0.091988
C37   C     C_R   0.960495 0.349047 0.921166 -0.075087
C38   C     C_R   0.925698 0.634786 0.084116 -0.030890
C39   C     C_R   0.431381 0.860234 0.081348 -0.023629
C40   C     C_R   0.482039 0.134363 0.915099 -0.051908
C41   C     C_R   0.938108 0.239494 0.927394 -0.116536
C42   C     C_R   0.902492 0.744016 0.077249 -0.127369
C43   C     C_R   0.417555 0.750023 0.076214 -0.097908
C44   C     C_R   0.443215 0.242834 0.918989 -0.117621
C45   C     C_R   0.890579 0.201499 0.973442 -0.265760
C46   C     C_R   0.890183 0.783981 0.029708 -0.282888
C47   C     C_R   0.433509 0.705086 0.029518 -0.272688
C48   C     C_R   0.388752 0.282996 0.964105 -0.269554
C49   C     C_R   0.007188 0.386119 0.874580 0.007229
C50   C     C_R   0.948018 0.596706 0.132557 -0.020416
C51   C     C_R   0.440697 0.902792 0.129143 -0.048034
C52   C     C_R   0.531674 0.095391 0.869192 -0.060743
C53   C     C_R   0.042102 0.974738 0.724533 -0.421348
C54   C     C_R   0.950690 0.023244 0.276855 -0.427552
C55   C     C_R   0.454332 0.475435 0.276809 -0.406091
C56   C     C_R   0.537465 0.523843 0.722655 -0.387628
H1    H     H_    0.204945 0.028330 0.841049 0.181710
H2    H     H_    0.117656 0.957266 0.165842 0.183123
H3    H     H_    0.611230 0.538441 0.164677 0.184425
H4    H     H_    0.660718 0.469896 0.841293 0.198286
H5    H     H_    0.857551 0.118204 0.976906 0.165474
H6    H     H_    0.861741 0.867681 0.024748 0.172563
H7    H     H_    0.437844 0.619211 0.025768 0.176954
H8    H     H_    0.345871 0.365097 0.966249 0.178957
C57   C     C_R   0.930423 0.452366 0.050833 0.094559
C58   C     C_R   0.954257 0.532891 0.953612 0.132392
C59   C     C_R   0.500470 0.953068 0.950955 0.084385
C60   C     C_R   0.437736 0.039993 0.045541 0.100627
C61   C     C_R   0.930159 0.605772 0.993917 -0.130579
C62   C     C_R   0.916502 0.380588 0.009717 -0.110379
C63   C     C_R   0.429504 0.108434 0.003532 -0.115136
C64   C     C_R   0.471837 0.881960 0.991723 -0.153471
C65   C     C_R   0.927521 0.564057 0.042719 0.016054
C66   C     C_R   0.942239 0.421140 0.961633 0.010974
C67   C     C_R   0.469940 0.064927 0.956694 0.021342
C68   C     C_R   0.443466 0.927525 0.039104 0.027963
C69   C     C_R   0.959683 0.416662 0.099942 -0.127270
C70   C     C_R   0.998114 0.566367 0.905683 -0.187907
C71   C     C_R   0.556599 0.918234 0.904129 -0.170352
C72   C     C_R   0.452584 0.080178 0.094289 -0.132071
C73   C     C_R   0.969590 0.487151 0.139811 -0.096558
C74   C     C_R   0.029075 0.494865 0.867766 -0.097787
C75   C     C_R   0.570799 0.987077 0.864525 -0.045567
C76   C     C_R   0.455576 0.013325 0.134987 -0.109563
O25   O     O_2   0.994876 0.631775 0.217999 -0.618883
O26   O     O_2   0.107009 0.350372 0.794046 -0.621999
O27   O     O_2   0.591268 0.120148 0.785964 -0.532901
O28   O     O_2   0.479602 0.880883 0.214415 -0.529377
C77   C     C_R   0.879987 0.269626 0.014784 0.619236
C78   C     C_R   0.912368 0.718683 0.988123 0.656801
C79   C     C_R   0.470227 0.767472 0.988185 0.577979
C80   C     C_R   0.382677 0.218894 0.006454 0.605495
H9    H     H_    0.994153 0.455075 0.176481 0.167248
H10   H     H_    0.072442 0.525479 0.832834 0.152008
H11   H     H_    0.614115 0.954055 0.829855 0.185709
H12   H     H_    0.470785 0.049268 0.171291 0.174464
H13   H     H_    0.988490 0.334749 0.108374 0.177087
H14   H     H_    0.023878 0.646966 0.896209 0.167235
H15   H     H_    0.595436 0.838720 0.895565 0.238395
H16   H     H_    0.477168 0.162942 0.102220 0.188568
C81   C     C_1   0.992822 0.032988 0.483228 -0.242333
C82   C     C_1   0.009456 0.966545 0.516524 -0.240060
C83   C     C_1   0.509577 0.532816 0.516839 -0.232340
C84   C     C_1   0.492715 0.466382 0.483462 -0.228457
O29   O     O_3   0.265525 0.879151 0.773315 -0.595011
C85   C     C_3   0.222390 0.814864 0.813638 -0.259104
H17   H     H_    0.074857 0.808271 0.818163 0.099555
H18   H     H_    0.285104 0.847105 0.848024 0.147027
H19   H     H_    0.276814 0.733644 0.807696 0.196203
O30   O     O_3   0.157277 0.118118 0.224486 -0.633538
C86   C     C_3   0.049368 0.205779 0.209349 -0.238628
H20   H     H_    0.038623 0.263140 0.240388 0.178839
H21   H     H_    0.910998 0.184305 0.195216 0.128608
H22   H     H_    0.117297 0.246909 0.179072 0.145965
O31   O     O_3   0.646023 0.376371 0.221694 -0.629491
C87   C     C_3   0.529226 0.294227 0.204764 -0.221272
H23   H     H_    0.410531 0.323717 0.182547 0.118952
H24   H     H_    0.482732 0.246639 0.236311 0.174066
H25   H     H_    0.605502 0.240246 0.180647 0.154401
O32   O     O_3   0.637769 0.640370 0.788281 -0.624447
C88   C     C_3   0.820277 0.666577 0.782080 -0.199789
H26   H     H_    0.899524 0.608259 0.760280 0.113573
H27   H     H_    0.884726 0.675030 0.819104 0.146986
H28   H     H_    0.826446 0.744888 0.763440 0.175238
C89   C     C_R   0.742946 0.922663 0.331082 0.196736
C90   C     C_R   0.560088 0.951986 0.331451 0.096822
C91   C     C_R   0.462899 0.941293 0.374536 -0.118506
C92   C     C_R   0.546733 0.899959 0.417236 -0.096089
C93   C     C_R   0.729520 0.872450 0.417418 -0.105221
C94   C     C_R   0.829183 0.887384 0.375109 -0.278798
H29   H     H_    0.493768 0.984385 0.298625 0.146993
H30   H     H_    0.321960 0.964331 0.374692 0.108289
H31   H     H_    0.470402 0.889899 0.450242 0.110512
H32   H     H_    0.794168 0.839882 0.450423 0.121868
H33   H     H_    0.971523 0.867559 0.376118 0.110723
C95   C     C_R   0.827780 0.079066 0.670041 0.203945
C96   C     C_R   0.648699 0.043025 0.667440 0.094407
C97   C     C_R   0.542843 0.055965 0.624089 -0.104106
C98   C     C_R   0.616571 0.102902 0.582770 -0.105006
C99   C     C_R   0.796080 0.137109 0.584763 -0.110464
C100  C     C_R   0.903100 0.122420 0.627691 -0.283623
H34   H     H_    0.592153 0.004080 0.698923 0.138700
H35   H     H_    0.403778 0.029284 0.622495 0.120079
H36   H     H_    0.534898 0.112400 0.549188 0.111751
H37   H     H_    0.852661 0.174664 0.552962 0.117776
H38   H     H_    0.042625 0.147137 0.628062 0.118285
C101  C     C_R   0.370740 0.410921 0.659637 0.146206
C102  C     C_R   0.444574 0.355378 0.619984 -0.150057
C103  C     C_R   0.339057 0.334453 0.577227 -0.134467
C104  C     C_R   0.161500 0.371716 0.572910 -0.104157
C105  C     C_R   0.088825 0.429947 0.611440 -0.119742
C106  C     C_R   0.192884 0.449549 0.654573 -0.085532
H39   H     H_    0.581382 0.326473 0.622067 0.124898
H40   H     H_    0.395393 0.289944 0.547175 0.109789
H41   H     H_    0.080565 0.355683 0.539677 0.116268
H42   H     H_    0.950903 0.458498 0.608248 0.127342
H43   H     H_    0.133141 0.492497 0.684688 0.127999
C107  C     C_R   0.281252 0.584097 0.336732 0.175470
C108  C     C_R   0.372710 0.624895 0.379072 -0.181719
C109  C     C_R   0.278455 0.645476 0.421929 -0.130759
C110  C     C_R   0.096871 0.616883 0.424496 -0.094497
C111  C     C_R   0.008749 0.568518 0.383960 -0.122448
C112  C     C_R   0.099865 0.553310 0.340081 -0.063713
H44   H     H_    0.514852 0.642536 0.379221 0.101697
H45   H     H_    0.347044 0.682512 0.453428 0.117175
H46   H     H_    0.025111 0.631270 0.458009 0.113590
H47   H     H_    0.868515 0.545090 0.386079 0.114624
H48   H     H_    0.029375 0.517447 0.308537 0.147354
O33   O     O_3   0.739341 0.754856 0.254240 -0.578662
C113  C     C_3   0.769741 0.702083 0.299645 -0.113497
H49   H     H_    0.661991 0.722253 0.324741 0.167085
H50   H     H_    0.897798 0.721192 0.319227 0.078647
H51   H     H_    0.763888 0.615172 0.293055 0.155715
O34   O     O_3   0.834925 0.241385 0.748585 -0.580932
C114  C     C_3   0.885655 0.304162 0.708339 -0.115082
H52   H     H_    0.790289 0.292136 0.676925 0.152232
H53   H     H_    0.022764 0.289435 0.696111 0.092096
H54   H     H_    0.877079 0.389240 0.719077 0.150210
O35   O     O_3   0.497155 0.236521 0.719386 -0.572958
C115  C     C_3   0.327500 0.190536 0.712312 -0.223151
H55   H     H_    0.341114 0.103262 0.714367 0.178425
H56   H     H_    0.272459 0.209149 0.675057 0.127976
H57   H     H_    0.239075 0.214612 0.741678 0.147935
O36   O     O_3   0.392157 0.761747 0.276591 -0.571929
C116  C     C_3   0.228510 0.796539 0.294506 -0.279999
H58   H     H_    0.226125 0.789005 0.335022 0.147377
H59   H     H_    0.116664 0.753832 0.276832 0.167955
H60   H     H_    0.216399 0.882016 0.286658 0.177496
O37   O     O_3   0.805337 0.232588 0.057759 -0.677425
C117  C     C_3   0.888373 0.137045 0.073776 -0.243627
H61   H     H_    0.037778 0.138372 0.070760 0.183257
H62   H     H_    0.829210 0.068199 0.053310 0.189279
H63   H     H_    0.859559 0.125818 0.113211 0.199592
O38   O     O_3   0.885874 0.763359 0.941839 -0.616493
C118  C     C_3   0.995426 0.854103 0.936524 -0.281498
H64   H     H_    0.009505 0.868919 0.896722 0.207158
H65   H     H_    0.132853 0.843935 0.953385 0.108618
H66   H     H_    0.930161 0.924830 0.952624 0.207777
O39   O     O_3   0.537234 0.713947 0.948223 -0.608581
C119  C     C_3   0.397993 0.659695 0.922393 -0.218389
H67   H     H_    0.291650 0.716232 0.909987 0.094352
H68   H     H_    0.342797 0.594089 0.944686 0.160956
H69   H     H_    0.454286 0.623894 0.888764 0.235117
O40   O     O_3   0.303519 0.259328 0.048314 -0.679213
C120  C     C_3   0.380792 0.358083 0.062773 -0.237589
H70   H     H_    0.314122 0.424610 0.042425 0.172279
H71   H     H_    0.529572 0.360726 0.058432 0.180376
H72   H     H_    0.355866 0.370938 0.102315 0.198150

loop_
_geom_bond_atom_site_label_1
_geom_bond_atom_site_label_2
_geom_bond_distance
_ccdc_geom_bond_type
C99   H37   1.081492 S    
C19   O36   1.380151 S    
C86   H22   1.107139 S    
N4    C16   1.386306 A    
C98   C99   1.396041 A    
O1    C5    1.355833 A    
C107  C108  1.406793 A    
C58   C70   1.415571 A    
O13   V1    2.006774 S    
C96   C97   1.399395 A    
O3    C7    1.355089 A    
O31   C87   1.411273 S    
C10   N2    1.370787 A    
C87   H25   1.107587 S    
C72   C76   1.388556 A    
C40   C44   1.396118 A    
O15   V3    2.013075 S    
C93   C94   1.398318 A    
C28   C56   1.396480 A    
C83   C84   1.231091 T    
C64   C79   1.440407 A    
C103  C104  1.396083 A    
C102  C103  1.398832 A    
C116  H60   1.098081 S    
O12   C1    1.344086 A    
C115  H55   1.101888 S    
C11   C43   1.414508 A    
C89   C90   1.402887 A    
C17   C33   1.418132 A    
C107  C112  1.403648 A    
C32   C36   1.416877 A    
O20   V1    1.810285 S    
O9    C4    1.351911 A    
C87   H24   1.109862 S    
C2    C55   1.481511 S    
C112  H48   1.082570 S    
O10   C3    1.355575 A    
N4    C36   1.493337 S    
N2    C14   1.380677 A    
C11   O23   1.346802 S    
O4    C8    1.357661 A    
O11   C2    1.351457 A    
C24   C56   1.406915 A    
C73   H9    1.083411 S    
C97   C98   1.395738 A    
C8    C82   1.483206 S    
C110  H46   1.082516 S    
C78   O38   1.384043 S    
C75   H11   1.084002 S    
O40   C120  1.414138 S    
C28   O32   1.378811 S    
C26   O30   1.383458 S    
C108  H44   1.075325 S    
C12   C44   1.416257 A    
C14   C50   1.416495 A    
C39   C51   1.398644 A    
C118  H64   1.103971 S    
C113  H51   1.105715 S    
C49   C74   1.389078 A    
C38   C42   1.394618 A    
C114  H54   1.108365 S    
C96   H34   1.082233 S    
C115  H57   1.089566 S    
C37   C41   1.397365 A    
O14   V2    2.006769 S    
C15   C51   1.415471 A    
C88   H27   1.100765 S    
C62   C77   1.427621 A    
C11   N3    1.384683 A    
C70   C74   1.386646 A    
O5    C1    1.357117 A    
C57   C62   1.431180 A    
C20   C36   1.440457 A    
O9    V1    1.990102 S    
C57   C65   1.420572 A    
O17   V4    1.811311 S    
O7    C3    1.346320 A    
C59   C64   1.445051 A    
O29   C85   1.407212 S    
O11   V3    1.997757 S    
O18   V3    1.811311 S    
O8    C4    1.352733 A    
O14   C6    1.364675 A    
C120  H70   1.109023 S    
O12   V4    1.997757 S    
O19   V2    1.810285 S    
O16   V4    2.013080 S    
C38   C50   1.403515 A    
C63   C80   1.431932 A    
C26   C54   1.407698 A    
C29   H1    1.077356 S    
C16   O27   1.333475 S    
O5    V1    2.002286 S    
C97   H35   1.082212 S    
C13   O26   1.344381 S    
C61   C65   1.425484 A    
C95   C100  1.405380 A    
C31   C35   1.415030 A    
C60   C68   1.422998 A    
C5    C83   1.477020 S    
O7    V3    1.994347 S    
C113  H49   1.094955 S    
C30   C34   1.407285 A    
C108  C109  1.398679 A    
O8    V4    1.994348 S    
C23   C107  1.493465 S    
O16   C8    1.363540 A    
C12   O24   1.346621 S    
C37   C49   1.402148 A    
C87   H23   1.111906 S    
C102  H39   1.075260 S    
C22   C54   1.421322 A    
C7    C81   1.483331 S    
O34   C114  1.410169 S    
N1    C33   1.465792 S    
C117  H63   1.106737 S    
C116  H58   1.103321 S    
C92   H31   1.082469 S    
C47   C79   1.404134 A    
C85   H19   1.109415 S    
C60   C63   1.429047 A    
O13   C5    1.362170 A    
C16   C52   1.414398 A    
C14   O25   1.341975 S    
C6    C84   1.477230 S    
O2    V3    1.980305 S    
C90   C91   1.399685 A    
O3    V2    1.988922 S    
O15   C7    1.366028 A    
C105  C106  1.398484 A    
O35   C115  1.389558 S    
C47   H7    1.083197 S    
O37   C117  1.410808 S    
C29   C33   1.403963 A    
C20   O35   1.378703 S    
C57   C69   1.415753 A    
O10   V2    1.990102 S    
C21   C95   1.483582 S    
C91   C92   1.395918 A    
C91   H30   1.082603 S    
C40   C67   1.433454 A    
C103  H40   1.081205 S    
O36   C116  1.390098 S    
C59   C71   1.416414 A    
C119  H68   1.110250 S    
C25   O29   1.387005 S    
O38   C118  1.409880 S    
C19   C35   1.436907 A    
C109  H45   1.081494 S    
C72   H16   1.074704 S    
C88   H28   1.109151 S    
C117  H62   1.107403 S    
C18   C34   1.416902 A    
C40   C52   1.395973 A    
C113  H50   1.096406 S    
C26   C30   1.395997 A    
C10   C42   1.405568 A    
C3    C54   1.482433 S    
C90   H29   1.081890 S    
C111  C112  1.399765 A    
C9    C41   1.413304 A    
C95   C96   1.400477 A    
C118  H65   1.108166 S    
C115  H56   1.101560 S    
C60   C72   1.412964 A    
C52   C75   1.396456 A    
C120  H71   1.112226 S    
C76   H12   1.083073 S    
C81   C82   1.234591 T    
C12   N4    1.385671 A    
C48   H8    1.080360 S    
C32   H4    1.080231 S    
C64   C68   1.425734 A    
C99   C100  1.397425 A    
C9    O21   1.339465 S    
C101  C106  1.405178 A    
C48   C80   1.406766 A    
C18   O33   1.383480 S    
C71   H15   1.065640 S    
C86   H21   1.113940 S    
C15   O28   1.335070 S    
C77   O37   1.388577 S    
O6    V2    2.002285 S    
C10   O22   1.344576 S    
C51   C76   1.400256 A    
C13   C49   1.409482 A    
C44   C48   1.393073 A    
C50   C73   1.398713 A    
C114  H53   1.093975 S    
C38   C65   1.428353 A    
O4    V1    1.988926 S    
C63   C67   1.421163 A    
C37   C66   1.429039 A    
C25   C29   1.407431 A    
C85   H18   1.102215 S    
C69   C73   1.393823 A    
C101  C102  1.404971 A    
C116  H59   1.083243 S    
C58   C61   1.437793 A    
C59   C67   1.431140 A    
C98   H36   1.081989 S    
C70   H14   1.064198 S    
C27   C31   1.399688 A    
C61   C78   1.432600 A    
C58   C66   1.424213 A    
O33   C113  1.411263 S    
C28   C32   1.400094 A    
C9    N1    1.372725 A    
C92   C93   1.396082 A    
C21   C53   1.416904 A    
C86   H20   1.109997 S    
O6    C2    1.349955 A    
C18   C22   1.433686 A    
N1    C13   1.373398 A    
O2    C6    1.353222 A    
C109  C110  1.395737 A    
C22   C89   1.488679 S    
C39   C43   1.393743 A    
C4    C53   1.487307 S    
C43   C47   1.392194 A    
C100  H38   1.078406 S    
C46   H6    1.079767 S    
C17   C21   1.430770 A    
C30   H2    1.077945 S    
C1    C56   1.480889 S    
C45   H5    1.079526 S    
C119  H67   1.104325 S    
C25   C53   1.405189 A    
C62   C66   1.420254 A    
C19   C23   1.430614 A    
C104  H41   1.082497 S    
O1    V4    1.980308 S    
C23   C55   1.409978 A    
C117  H61   1.111984 S    
C46   C78   1.405066 A    
C27   C55   1.405355 A    
C45   C77   1.411079 A    
C85   H17   1.106430 S    
C93   H32   1.081433 S    
C94   H33   1.081953 S    
C80   O40   1.388896 S    
C111  H47   1.082713 S    
C20   C24   1.421813 A    
C118  H66   1.105973 S    
C79   O39   1.378904 S    
C17   O34   1.383884 S    
C41   C45   1.394601 A    
N3    C35   1.493205 S    
C110  C111  1.395115 A    
C42   C46   1.384802 A    
C120  H72   1.104932 S    
C31   H3    1.079511 S    
O39   C119  1.401195 S    
N2    C34   1.468108 S    
C74   H10   1.082422 S    
C114  H52   1.096964 S    
O30   C86   1.413412 S    
C71   C75   1.387975 A    
O32   C88   1.406707 S    
C88   H26   1.117649 S    
C105  H42   1.082572 S    
C69   H13   1.074211 S    
N3    C15   1.389055 A    
C89   C94   1.406690 A    
C106  H43   1.083303 S    
C104  C105  1.395144 A    
C119  H69   1.108638 S    
C39   C68   1.431240 A    
C24   C101  1.489071 S    
C27   O31   1.383846 S    
