data_mof_unit_64302.cif
_audit_creation_date              2012-12-11T16:00:37-0500
_audit_creation_method            fapswitch 2.2
_symmetry_space_group_name_H-M    P1
_symmetry_Int_Tables_number       1
_space_group_crystal_system       triclinic
_cell_length_a                    6.947351
_cell_length_b                    17.281242
_cell_length_c                    18.580036
_cell_angle_alpha                 107.237651
_cell_angle_beta                  90.303254
_cell_angle_gamma                 90.651785
_cell_volume                      2130.27792369

loop_
_atom_site_label
_atom_site_type_symbol
_atom_type_description
_atom_site_fract_x
_atom_site_fract_y
_atom_site_fract_z
_atom_type_partial_charge
O1    O     O_R   0.505810 0.442350 0.559500 -0.521529
O2    O     O_R   0.167990 0.405060 0.411070 -0.536288
O3    O     O_R   0.005550 0.557650 0.440500 -0.521320
C1    C     C_R   0.337650 0.381675 0.382790 0.713651
O4    O     O_R   0.175580 0.432840 0.557140 -0.525261
O5    O     O_R   0.013190 0.585620 0.587600 -0.536804
C2    C     C_R   0.344533 0.415889 0.580605 0.714610
O6    O     O_R   0.498170 0.414380 0.412400 -0.535614
O7    O     O_3   0.341790 0.550090 0.509830 -0.361185
V1    V     V_3+5 0.063870 0.490710 0.498180 1.409117
O8    O     O_R   0.683930 0.594940 0.588930 -0.539983
C3    C     C_R   0.854384 0.618183 0.617070 0.678270
O9    O     O_R   0.676340 0.567160 0.442860 -0.523817
C4    C     C_R   0.845270 0.584113 0.419399 0.723246
V2    V     V_3+5 0.564820 0.509290 0.501820 1.409420
O10   O     O_3   0.836770 0.449910 0.490170 -0.359889
C5    C     C_1   0.856451 0.636129 0.367376 -0.208670
C6    C     C_1   0.867679 0.678682 0.323812 0.007991
C7    C     C_1   0.882040 0.728846 0.271921 0.004673
C8    C     C_1   0.894375 0.771087 0.228112 0.002005
C9    C     C_1   0.908759 0.821252 0.176222 0.000584
C10   C     C_1   0.920037 0.863806 0.132660 -0.216820
C11   C     C_3   0.713032 0.777697 0.773246 -0.111711
C12   C     C_3   0.801494 0.774832 0.696165 -0.144679
H1    H     H_    0.729307 0.794854 0.651429 0.102250
H2    H     H_    0.567823 0.800701 0.792590 0.111009
C13   C     C_3   0.871207 0.688468 0.687699 -0.009311
C14   C     C_3   0.782882 0.690516 0.763979 -0.141777
C15   C     C_3   0.975430 0.725101 0.803872 -0.141308
C16   C     C_3   0.063893 0.722236 0.726792 -0.111186
C17   C     C_3   0.994043 0.809416 0.736058 -0.145188
C18   C     C_3   0.905718 0.811465 0.812338 -0.008758
H3    H     H_    0.695195 0.641197 0.774990 0.104731
H4    H     H_    0.047618 0.705079 0.848609 0.106794
H5    H     H_    0.209102 0.699232 0.707448 0.111952
H6    H     H_    0.081730 0.858736 0.725047 0.100350
C19   C     C_3   0.558488 0.283008 0.278364 -0.167891
C20   C     C_3   0.496679 0.193620 0.267191 -0.231484
H7    H     H_    0.586981 0.147418 0.281221 0.126132
H8    H     H_    0.700246 0.310219 0.300772 0.133317
C21   C     C_3   0.418976 0.188704 0.188116 -0.110450
C22   C     C_3   0.478197 0.277023 0.199459 0.672312
C23   C     C_3   0.279906 0.306596 0.232982 -0.198024
C24   C     C_3   0.218800 0.217143 0.221917 -0.172385
C25   C     C_3   0.297098 0.222597 0.301613 -0.120839
C26   C     C_3   0.357972 0.311215 0.311956 -0.094299
H9    H     H_    0.190550 0.352859 0.218604 0.141917
H10   H     H_    0.077315 0.190057 0.199008 0.147905
H11   H     H_    0.220214 0.200171 0.343869 0.114031
C27   C     C_1   0.354993 0.363837 0.632638 -0.216980
C28   C     C_1   0.366657 0.321293 0.676199 0.000132
C29   C     C_1   0.382080 0.271153 0.728091 0.001428
C30   C     C_1   0.395411 0.228941 0.771891 0.004456
C31   C     C_1   0.410809 0.178797 0.823781 0.010216
C32   C     C_1   0.422418 0.136246 0.867337 -0.195769
O11   O     O_R   0.278780 0.085730 0.087540 -0.539477
O12   O     O_R   0.601620 0.067180 0.942850 -0.520589
O13   O     O_R   0.763750 0.914350 0.912410 -0.539045
C33   C     C_R   0.432734 0.084180 0.919360 0.731365
O14   O     O_R   0.608970 0.094960 0.088920 -0.527289
O15   O     O_R   0.771150 0.942330 0.059520 -0.524656
C34   C     C_R   0.439308 0.118399 0.117161 0.734517
O16   O     O_R   0.271380 0.057750 0.940430 -0.522857
O17   O     O_3   0.435070 0.949970 0.990140 -0.366598
V3    V     V_3+5 0.713090 0.009280 0.001830 1.440744
O18   O     O_R   0.100340 0.932730 0.057200 -0.526270
C35   C     C_R   0.931352 0.915822 0.080640 0.711105
O19   O     O_R   0.092990 0.904950 0.911140 -0.541094
C36   C     C_R   0.922546 0.881751 0.882966 0.674537
V4    V     V_3+5 0.212100 0.990570 0.998260 1.413263
O20   O     O_3   0.940260 0.050030 0.009860 -0.353084
F1    F     F_    0.573647 0.305046 0.146830 -0.687853

loop_
_geom_bond_atom_site_label_1
_geom_bond_atom_site_label_2
_ccdc_geom_bond_type
C32   C33   S    
C21   C22   S    
C7    C8    T    
C12   C13   S    
C1    O6    A    
C1    C26   S    
C30   C31   S    
C24   C25   S    
C19   C20   S    
C16   H5    S    
C14   C15   S    
C15   C18   S    
O5    C3    A    
C16   C17   S    
O12   C33   A    
C14   H3    S    
V2    O10   S    
O14   C34   A    
C6    C7    S    
C11   H2    S    
C19   C22   S    
C20   C25   S    
O8    V2    S    
V3    O20   S    
O19   C36   A    
C11   C12   S    
V4    O20   S    
O1    V2    S    
O17   V4    S    
O7    V1    S    
O18   C35   A    
O9    C4    A    
C13   C16   S    
C4    C5    S    
C21   C34   S    
C27   C28   T    
C20   H7    S    
C3    C13   S    
C28   C29   S    
C12   H1    S    
C20   C21   S    
O4    C2    A    
C25   C26   S    
C15   H4    S    
O2    C1    A    
C23   C24   S    
C15   C16   S    
O15   C35   A    
O13   V3    S    
C17   C18   S    
O16   V4    S    
C25   H11   S    
C22   F1    S    
C5    C6    T    
C11   C14   S    
O3    C4    A    
O14   V3    S    
O6    V2    S    
O11   V4    S    
O9    V2    S    
C21   C24   S    
O11   C34   A    
C22   C23   S    
O2    V1    S    
C29   C30   T    
C31   C32   T    
O1    C2    A    
C2    C27   S    
O12   V3    S    
O5    V1    S    
O8    C3    A    
O13   C36   A    
C18   C36   S    
C19   H8    S    
C33   O16   A    
O17   V3    S    
O7    V2    S    
C12   C17   S    
O4    V1    S    
O3    V1    S    
V1    O10   S    
C11   C18   S    
O18   V4    S    
C23   C26   S    
C10   C35   S    
O15   V3    S    
C8    C9    S    
O19   V4    S    
C13   C14   S    
C17   H6    S    
C19   C26   S    
C9    C10   T    
C23   H9    S    
C24   H10   S    
