data_mof_unit_50646.cif
_audit_creation_date              2012-12-11T16:25:36-0500
_audit_creation_method            fapswitch 2.2
_symmetry_space_group_name_H-M    P1
_symmetry_Int_Tables_number       1
_space_group_crystal_system       triclinic
_cell_length_a                    20.291119
_cell_length_b                    7.271832
_cell_length_c                    13.387383
_cell_angle_alpha                 90.001241
_cell_angle_beta                  103.271091
_cell_angle_gamma                 89.999017
_cell_volume                      1922.60441772

loop_
_atom_site_label
_atom_site_type_symbol
_atom_type_description
_atom_site_fract_x
_atom_site_fract_y
_atom_site_fract_z
_atom_type_partial_charge
O1    O     O_R   0.449520 0.506760 0.599710 -0.535780
O2    O     O_R   0.550480 0.006760 0.400290 -0.535783
O3    O     O_R   0.587930 0.180200 0.595790 -0.539961
O4    O     O_R   0.412070 0.680200 0.404210 -0.539962
C1    C     C_R   0.614055 0.344100 0.618454 0.688639
C2    C     C_R   0.385945 0.844100 0.381546 0.688643
O5    O     O_R   0.452350 0.177380 0.611700 -0.535980
O6    O     O_R   0.547650 0.677380 0.388300 -0.535979
O7    O     O_R   0.413930 0.001760 0.416320 -0.534099
O8    O     O_R   0.586070 0.501760 0.583680 -0.534096
C3    C     C_R   0.436562 0.345530 0.638285 0.678639
C4    C     C_R   0.563437 0.845526 0.361714 0.678643
O9    O     O_3   0.487550 0.337460 0.435880 -0.377476
O10   O     O_3   0.512450 0.837460 0.564120 -0.377474
V1    V     V_3+5 0.502310 0.064670 0.511900 1.436970
V2    V     V_3+5 0.497690 0.564670 0.488100 1.436975
C5    C     C_R   0.608645 0.825203 0.104864 -0.157645
C6    C     C_R   0.391359 0.325407 0.895149 -0.157644
H1    H     H_    0.516411 0.809711 0.156139 0.097778
H2    H     H_    0.483600 0.309981 0.843889 0.097772
H3    H     H_    0.691155 0.813285 0.977517 0.137325
H4    H     H_    0.308850 0.313500 0.022496 0.137321
H5    H     H_    0.582807 0.805573 0.025225 0.115619
H6    H     H_    0.417203 0.305882 0.974800 0.115610
C7    C     C_R   0.602553 0.852571 0.282453 -0.024431
C8    C     C_R   0.397443 0.352593 0.717540 -0.024410
C9    C     C_R   0.927861 0.875593 0.315518 -0.116485
C10   C     C_R   0.072131 0.375552 0.684476 -0.116462
C11   C     C_R   0.892551 0.900916 0.391726 -0.053657
C12   C     C_R   0.107439 0.400869 0.608265 -0.053631
C13   C     C_R   0.822153 0.902647 0.367353 -0.142005
C14   C     C_R   0.177838 0.402606 0.632635 -0.142016
C15   C     C_R   0.785096 0.878437 0.264777 0.112715
C16   C     C_R   0.214897 0.378415 0.735212 0.112715
C17   C     C_R   0.821979 0.861683 0.186351 0.071840
C18   C     C_R   0.178016 0.361689 0.813643 0.071838
C19   C     C_R   0.712899 0.868034 0.237743 0.104690
C20   C     C_R   0.287095 0.368035 0.762245 0.104703
C21   C     C_R   0.679349 0.842855 0.133066 0.133023
C22   C     C_R   0.320650 0.342967 0.866934 0.133020
C23   C     C_R   0.716532 0.831763 0.057458 -0.182173
C24   C     C_R   0.283469 0.331902 0.942546 -0.182169
C25   C     C_R   0.786727 0.841376 0.083484 -0.185377
C26   C     C_R   0.213272 0.341450 0.916515 -0.185366
C27   C     C_R   0.672797 0.874702 0.311406 -0.160135
C28   C     C_R   0.327193 0.374628 0.688573 -0.160119
C29   C     C_R   0.570641 0.827946 0.179236 -0.171037
C30   C     C_R   0.429363 0.328121 0.820777 -0.171051
C31   C     C_R   0.893691 0.863651 0.213002 -0.092049
C32   C     C_R   0.106304 0.363636 0.786993 -0.092047
H7    H     H_    0.694469 0.890753 0.392285 0.104691
H8    H     H_    0.305514 0.390545 0.607679 0.104680
H9    H     H_    0.982325 0.867326 0.335662 0.144493
H10   H     H_    0.017667 0.367281 0.664332 0.144478
H11   H     H_    0.798550 0.922446 0.430804 0.126937
H12   H     H_    0.201439 0.422419 0.569184 0.126938
H13   H     H_    0.919944 0.918860 0.470579 0.176148
H14   H     H_    0.080045 0.418810 0.529413 0.176145
H15   H     H_    0.813256 0.829635 0.022226 0.126022
H16   H     H_    0.186745 0.329733 0.977777 0.126016
C33   C     C_R   0.231936 0.814810 0.034860 -0.142277
C34   C     C_R   0.768066 0.314759 0.965136 -0.142278
C35   C     C_R   0.287846 0.792567 0.991965 -0.085791
C36   C     C_R   0.712158 0.292481 0.008029 -0.085793
C37   C     C_R   0.352778 0.788537 0.054473 -0.135882
C38   C     C_R   0.647226 0.288437 0.945521 -0.135881
C39   C     C_R   0.362312 0.807287 0.160436 -0.150102
C40   C     C_R   0.637691 0.307212 0.839560 -0.150111
C41   C     C_R   0.306671 0.830376 0.206229 0.069681
C42   C     C_R   0.693331 0.330342 0.793768 0.069682
C43   C     C_R   0.240029 0.833980 0.142255 0.056898
C44   C     C_R   0.759973 0.333953 0.857743 0.056902
C45   C     C_R   0.316605 0.849475 0.313995 -0.158138
C46   C     C_R   0.683395 0.349471 0.686005 -0.158140
C47   C     C_R   0.259878 0.870491 0.357810 0.034555
C48   C     C_R   0.740121 0.370508 0.642191 0.034558
C49   C     C_R   0.193618 0.885049 0.293908 0.034858
C50   C     C_R   0.806381 0.385068 0.706094 0.034854
C51   C     C_R   0.183260 0.860306 0.185952 -0.155911
C52   C     C_R   0.816740 0.360306 0.814049 -0.155910
C53   C     C_R   0.268090 0.874262 0.465411 -0.167411
C54   C     C_R   0.731910 0.374293 0.534591 -0.167408
C55   C     C_R   0.213351 0.902173 0.509991 0.097756
C56   C     C_R   0.786649 0.402217 0.490014 0.097757
C57   C     C_R   0.148969 0.936813 0.447594 0.023049
C58   C     C_R   0.851030 0.436865 0.552413 0.023051
C59   C     C_R   0.139193 0.924426 0.340266 -0.168879
C60   C     C_R   0.860805 0.424464 0.659740 -0.168877
H17   H     H_    0.182506 0.817622 0.982829 0.122781
H18   H     H_    0.817497 0.317580 0.017168 0.122782
H19   H     H_    0.280731 0.777442 0.909798 0.164140
H20   H     H_    0.719274 0.277339 0.090195 0.164127
H21   H     H_    0.395976 0.770578 0.020682 0.121750
H22   H     H_    0.604029 0.270449 0.979310 0.121749
H23   H     H_    0.413602 0.803447 0.206237 0.087141
H24   H     H_    0.586402 0.303355 0.793757 0.087157
H25   H     H_    0.317246 0.854417 0.516545 0.143499
H26   H     H_    0.682755 0.354443 0.483456 0.143495
H27   H     H_    0.088733 0.945307 0.293389 0.127594
H28   H     H_    0.911264 0.445347 0.706619 0.127611
O11   O     O_R   0.913760 0.203480 0.916370 -0.534635
O12   O     O_R   0.086240 0.703480 0.083630 -0.534637
O13   O     O_R   0.047590 0.535230 0.888250 -0.534519
O14   O     O_R   0.952410 0.035230 0.111750 -0.534522
C61   C     C_R   0.065569 0.368745 0.864345 0.674671
C62   C     C_R   0.934428 0.868749 0.135652 0.674667
O15   O     O_R   0.912020 0.532880 0.904260 -0.538385
O16   O     O_R   0.087980 0.032880 0.095740 -0.538381
O17   O     O_R   0.949590 0.708460 0.099750 -0.536401
O18   O     O_R   0.050410 0.208460 0.900250 -0.536401
C63   C     C_R   0.886203 0.365223 0.881815 0.674010
C64   C     C_R   0.113797 0.865223 0.118186 0.674016
O19   O     O_3   0.012370 0.375360 0.064120 -0.375237
O20   O     O_3   0.987630 0.875360 0.935880 -0.375234
V3    V     V_3+5 0.997700 0.648160 0.988110 1.447898
V4    V     V_3+5 0.002300 0.148160 0.011890 1.447901
I1    I     I_    0.233226 0.895450 0.672781 -0.531798
I2    I     I_    0.766777 0.395491 0.327223 -0.531787
C65   C     C_2   0.092285 0.989781 0.493896 0.326505
H29   H     H_    0.090435 0.943178 0.570109 0.119307
O21   O     O_2   0.048007 0.093069 0.448644 -0.558000
C66   C     C_2   0.907713 0.489852 0.506116 0.326490
H30   H     H_    0.909560 0.443284 0.429894 0.119297
O22   O     O_2   0.951994 0.593115 0.551384 -0.557992

loop_
_geom_bond_atom_site_label_1
_geom_bond_atom_site_label_2
_ccdc_geom_bond_type
C38   C40   A    
C61   O18   A    
C35   C37   A    
C7    C27   A    
C9    C11   A    
C54   H26   S    
O12   C64   A    
O1    C3    A    
O2    C4    A    
C2    O7    A    
O14   C62   A    
O20   V3    S    
O3    V1    S    
C21   C23   A    
O5    C3    A    
C5    H5    S    
C46   C48   A    
C51   C64   S    
C6    H6    S    
C56   C58   A    
O17   V3    S    
C58   C60   A    
C27   H7    S    
C28   H8    S    
C44   C52   A    
C57   C65   S    
C5    C21   A    
C1    C46   S    
C41   C43   A    
C6    C22   A    
C34   C36   A    
O12   V3    S    
O14   V4    S    
C10   C32   A    
C37   C39   A    
C42   C46   A    
C32   C61   S    
C34   H18   S    
C13   C15   A    
C41   C45   A    
C12   C14   A    
C17   C25   A    
C7    C29   A    
C16   C18   A    
C8    C30   A    
C38   H22   S    
O19   V4    S    
C33   C43   A    
C22   C24   A    
O6    V2    S    
C39   H23   S    
C45   C47   A    
C24   C26   A    
C11   C13   A    
C43   C51   A    
C53   C55   A    
C33   H17   S    
C59   H27   S    
C65   O21   D    
C57   C59   A    
O4    C2    A    
C48   C54   A    
C10   H10   S    
C47   C53   A    
C3    C8    S    
C15   C19   A    
O16   C64   A    
C39   C41   A    
C36   C38   A    
O4    V2    S    
O13   V3    S    
C17   C31   A    
O6    C4    A    
C33   C35   A    
C49   C51   A    
C34   C44   A    
O13   C61   A    
O1    V2    S    
C40   H24   S    
O2    V1    S    
C47   C49   A    
O15   V3    S    
C60   H28   S    
H3    C23   S    
C56   I2    S    
C55   C57   A    
C11   H13   S    
C54   C56   A    
C18   C26   A    
C36   H20   S    
C19   C27   A    
O18   V4    S    
C18   C32   A    
C2    C45   S    
C50   C60   A    
H2    C30   S    
C16   C20   A    
O15   C63   A    
C23   C25   A    
C5    C29   A    
C48   C50   A    
O3    C1    A    
C6    C30   A    
C65   H29   S    
C9    H9    S    
C31   C62   S    
C25   H15   S    
O11   C63   A    
C4    C7    S    
C55   I1    S    
C10   C12   A    
O7    V1    S    
C1    O8    A    
C19   C21   A    
O8    V2    S    
C20   C22   A    
O16   V4    S    
H4    C24   S    
C53   H25   S    
C26   H16   S    
C12   H14   S    
C52   C63   S    
O5    V1    S    
C37   H21   S    
C15   C17   A    
H1    C29   S    
C50   C52   A    
C58   C66   S    
C20   C28   A    
C8    C28   A    
C49   C59   A    
C40   C42   A    
O9    V2    S    
C35   H19   S    
O11   V4    S    
O10   V1    S    
C42   C44   A    
C13   H11   S    
C66   H30   S    
C66   O22   D    
C14   H12   S    
C9    C31   A    
C14   C16   A    
C62   O17   A    
