data_mof_unit_21434.cif
_audit_creation_date              2012-12-10T17:57:54-0500
_audit_creation_method            fapswitch 2.2
_symmetry_space_group_name_H-M    P1
_symmetry_Int_Tables_number       1
_space_group_crystal_system       triclinic
_cell_length_a                    10.877346
_cell_length_b                    9.653797
_cell_length_c                    15.075252
_cell_angle_alpha                 90.255888
_cell_angle_beta                  93.646261
_cell_angle_gamma                 90.962013
_cell_volume                      1579.5659265

loop_
_atom_site_label
_atom_site_type_symbol
_atom_type_description
_atom_site_fract_x
_atom_site_fract_y
_atom_site_fract_z
_atom_type_partial_charge
C1    C     C_R   0.262517 0.499091 0.498556 0.882480
C2    C     C_R   0.128507 0.498252 0.499428 -0.335572
C3    C     C_R   0.440712 0.071360 0.432159 0.439144
C4    C     C_R   0.559288 0.928640 0.567841 0.439146
C5    C     C_R   0.559816 0.075127 0.567714 0.452074
C6    C     C_R   0.440184 0.924873 0.432286 0.452074
C7    C     C_R   0.500672 0.500151 0.329530 0.791857
C8    C     C_R   0.499327 0.499849 0.670470 0.791848
C9    C     C_R   0.612308 0.517116 0.817778 0.392757
C10   C     C_R   0.387690 0.482889 0.182223 0.392766
C11   C     C_R   0.499735 0.497418 0.766884 -0.262163
C12   C     C_R   0.737483 0.500909 0.501443 0.882481
C13   C     C_R   0.500264 0.502583 0.233114 -0.262171
C14   C     C_R   0.388647 0.472381 0.808190 0.398346
C15   C     C_R   0.611353 0.527615 0.191811 0.398351
C16   C     C_R   0.389606 0.474795 0.901188 0.052079
C17   C     C_R   0.610393 0.525199 0.098811 0.052079
C18   C     C_R   0.500647 0.499486 0.953089 -0.116237
C19   C     C_R   0.499353 0.500509 0.046912 -0.116233
C20   C     C_R   0.612843 0.521948 0.911407 0.041728
C21   C     C_R   0.387157 0.478050 0.088591 0.041724
C22   C     C_R   0.279666 0.452027 0.942893 -0.213780
C23   C     C_R   0.276690 0.453364 0.035488 0.455342
C24   C     C_R   0.720334 0.547965 0.057107 -0.213777
C25   C     C_R   0.723310 0.546630 0.964513 0.455336
C26   C     C_R   0.055771 0.413612 0.439623 0.305689
C27   C     C_R   0.944229 0.586390 0.560376 0.305689
C28   C     C_R   0.927645 0.414891 0.440378 0.330439
C29   C     C_R   0.072355 0.585110 0.559621 0.330437
C30   C     C_R   0.871493 0.501749 0.500572 -0.335573
Cl1   Cl    Cl    0.121907 0.310653 0.359128 -0.444310
Cl2   Cl    Cl    0.878093 0.689353 0.640869 -0.444313
Cl3   Cl    Cl    0.838451 0.309896 0.362694 -0.440216
Cl4   Cl    Cl    0.161549 0.690105 0.637305 -0.440222
Cu1   Cu    Cu3+1 0.500000 0.640660 0.500000 1.019207
Cu2   Cu    Cu3+1 0.500000 0.359340 0.500000 1.019210
H1    H     H_    0.194308 0.432945 0.903410 0.216719
H2    H     H_    0.653036 0.778969 0.615240 0.395228
H3    H     H_    0.661894 0.225768 0.614630 0.361597
H4    H     H_    0.338106 0.774232 0.385370 0.361596
H5    H     H_    0.805692 0.567047 0.096590 0.216719
H6    H     H_    0.716313 0.485702 0.718366 0.323229
H7    H     H_    0.283686 0.514321 0.281633 0.323225
H8    H     H_    0.289662 0.431054 0.696732 0.344572
H9    H     H_    0.710335 0.568956 0.303266 0.344569
H10   H     H_    0.098991 0.414987 0.027910 0.330099
H11   H     H_    0.901011 0.585000 0.972091 0.330098
H12   H     H_    0.346963 0.221031 0.384760 0.395227
N1    N     N_R   0.500000 0.852070 0.500000 -0.347485
N2    N     N_R   0.500000 0.147930 0.500000 -0.347485
O1    O     O_R   0.319640 0.618740 0.499990 -0.572013
O2    O     O_3   0.277209 0.469483 0.222359 -0.583963
O3    O     O_3   0.277493 0.445235 0.760441 -0.673255
O4    O     O_3   0.722506 0.554758 0.239559 -0.673254
O5    O     O_3   0.166532 0.429810 0.074504 -0.607505
O6    O     O_3   0.833468 0.570180 0.925497 -0.607505
O7    O     O_3   0.376289 0.133047 0.362393 -0.595970
O8    O     O_3   0.623710 0.866953 0.637607 -0.595967
O9    O     O_3   0.625014 0.140533 0.637426 -0.631373
O10   O     O_3   0.374986 0.859467 0.362574 -0.631374
O11   O     O_R   0.680360 0.381260 0.500010 -0.572013
O12   O     O_R   0.680360 0.618740 0.500010 -0.583733
O13   O     O_R   0.319640 0.381260 0.499990 -0.583733
O14   O     O_R   0.499970 0.618800 0.370260 -0.588526
O15   O     O_R   0.500030 0.381200 0.629740 -0.588518
O16   O     O_R   0.500030 0.618800 0.629740 -0.536481
O17   O     O_R   0.499970 0.381200 0.370260 -0.536480
O18   O     O_3   0.722787 0.530536 0.777640 -0.583961

loop_
_geom_bond_atom_site_label_1
_geom_bond_atom_site_label_2
_ccdc_geom_bond_type
H10   O5    S    
Cu1   N1    S    
C29   Cl4   S    
C23   O5    S    
Cu1   O14   S    
H4    O10   S    
C27   C29   A    
Cu2   O13   S    
C12   O12   A    
H9    O4    S    
C9    C20   A    
C26   C28   A    
Cu1   Cu2   S    
C25   O6    S    
C7    C13   S    
C4    N1    A    
C3    C6    A    
C10   O2    S    
C28   C30   A    
C9    O18   S    
H3    O9    S    
H12   O7    S    
C2    C26   A    
H2    O8    S    
C27   C30   A    
H6    O18   S    
C24   H5    S    
C1    O1    A    
C13   C15   A    
C8    C11   S    
C1    O13   A    
C17   C19   A    
C3    N2    A    
C28   Cl3   S    
C1    C2    S    
Cu1   O12   S    
C18   C20   A    
C9    C11   A    
C21   C23   A    
Cu1   O1    S    
C7    O14   A    
C11   C14   A    
C14   C16   A    
C5    N2    A    
Cu2   O17   S    
C17   C24   A    
C19   C21   A    
C20   C25   A    
C5    O9    S    
C7    O17   A    
Cu2   O11   S    
C15   O4    S    
C6    O10   S    
C8    O15   A    
C14   O3    S    
C2    C29   A    
C24   C25   A    
C16   C18   A    
C18   C19   A    
C26   Cl1   S    
C4    O8    S    
C15   C17   A    
C22   C23   A    
C4    C5    A    
C16   C22   A    
C12   O11   A    
Cu1   O16   S    
C12   C30   S    
C27   Cl2   S    
Cu2   O15   S    
C22   H1    S    
C10   C21   A    
H8    O3    S    
C8    O16   A    
C6    N1    A    
Cu2   N2    S    
H7    O2    S    
H11   O6    S    
C3    O7    S    
C10   C13   A    
