data_mof_unit_40006.cif
_audit_creation_date              2012-12-10T21:29:38-0500
_audit_creation_method            fapswitch 2.2
_symmetry_space_group_name_H-M    P1
_symmetry_Int_Tables_number       1
_space_group_crystal_system       triclinic
_cell_length_a                    10.645733
_cell_length_b                    16.115031
_cell_length_c                    16.902628
_cell_angle_alpha                 86.167545
_cell_angle_beta                  90.119302
_cell_angle_gamma                 91.995431
_cell_volume                      2891.51354656

loop_
_atom_site_label
_atom_site_type_symbol
_atom_type_description
_atom_site_fract_x
_atom_site_fract_y
_atom_site_fract_z
_atom_type_partial_charge
C1    C     C_R   0.499344 0.487611 0.652724 0.857323
C2    C     C_R   0.500182 0.530995 0.096938 0.297307
C3    C     C_R   0.438928 0.406576 0.863087 -0.266164
C4    C     C_R   0.562167 0.593181 0.136953 -0.266466
C5    C     C_R   0.439629 0.409815 0.780519 0.176328
C6    C     C_R   0.560838 0.590132 0.219515 0.176293
C7    C     C_R   0.435047 0.764500 0.465148 -0.033446
C8    C     C_R   0.564909 0.235499 0.534883 -0.033507
C9    C     C_R   0.440022 0.851416 0.467118 -0.306723
C10   C     C_R   0.559935 0.148582 0.532919 -0.306657
C11   C     C_R   0.528523 0.890695 0.516072 0.247469
C12   C     C_R   0.500671 0.512388 0.347273 0.857190
C13   C     C_R   0.471482 0.109304 0.483937 0.247487
C14   C     C_R   0.610037 0.839619 0.562411 0.118077
C15   C     C_R   0.390016 0.160380 0.437567 0.118070
C16   C     C_R   0.739236 0.499591 0.499917 0.877990
C17   C     C_R   0.260764 0.500410 0.500076 0.878005
C18   C     C_R   0.601675 0.752587 0.557469 -0.012446
C19   C     C_R   0.398375 0.247412 0.442501 -0.012480
C20   C     C_R   0.868685 0.479732 0.646484 -0.160722
C21   C     C_R   0.131318 0.520314 0.353516 -0.160727
C22   C     C_R   0.933714 0.471248 0.718052 -0.140157
C23   C     C_R   0.503244 0.477217 0.738392 -0.068439
C24   C     C_R   0.066288 0.528830 0.281952 -0.140212
C25   C     C_R   0.064348 0.472609 0.718165 -0.149477
C26   C     C_R   0.935655 0.527460 0.281838 -0.149427
C27   C     C_R   0.129999 0.482481 0.646710 -0.137787
C28   C     C_R   0.870004 0.517551 0.353289 -0.137815
C29   C     C_R   0.065266 0.491190 0.573369 0.072587
C30   C     C_R   0.934737 0.508826 0.426627 0.072575
C31   C     C_R   0.934080 0.489852 0.573258 0.068453
C32   C     C_R   0.065923 0.510168 0.426738 0.068477
C33   C     C_R   0.128560 0.501224 0.500099 -0.186948
C34   C     C_R   0.497116 0.522738 0.261591 -0.068504
C35   C     C_R   0.871442 0.498782 0.499894 -0.186941
C36   C     C_3   0.683473 0.855384 0.696449 -0.793401
C37   C     C_3   0.316825 0.144528 0.303502 -0.793485
C38   C     C_3   0.436410 0.272007 0.733952 -0.727731
C39   C     C_3   0.562855 0.727962 0.266006 -0.727739
C40   C     C_R   0.570531 0.537227 0.778807 -0.292548
C41   C     C_R   0.430312 0.462562 0.221105 -0.292362
C42   C     C_R   0.570831 0.532739 0.860573 -0.164975
C43   C     C_R   0.430621 0.466867 0.139346 -0.164878
C44   C     C_R   0.501395 0.468599 0.903053 0.297194
H1    H     H_    0.884965 0.534048 0.226303 0.134125
H2    H     H_    0.117464 0.536499 0.226513 0.141516
H3    H     H_    0.231444 0.483370 0.649570 0.132032
H4    H     H_    0.768560 0.516657 0.350428 0.132027
H5    H     H_    0.378325 0.411749 0.252830 0.166520
H6    H     H_    0.622447 0.588037 0.747024 0.166500
H7    H     H_    0.378460 0.419259 0.109475 0.153896
H8    H     H_    0.623314 0.580228 0.890406 0.153904
H9    H     H_    0.386859 0.356828 0.896265 0.141830
H10   H     H_    0.614269 0.642949 0.103827 0.141835
H11   H     H_    0.633014 0.265145 0.572385 0.140161
H12   H     H_    0.115039 0.466046 0.773702 0.134024
H13   H     H_    0.366908 0.734854 0.427667 0.140181
H14   H     H_    0.726383 0.936728 0.599063 0.240350
H15   H     H_    0.761973 0.883447 0.730136 0.240588
H16   H     H_    0.681514 0.787052 0.710596 0.239293
H17   H     H_    0.593800 0.881179 0.715575 0.244676
H18   H     H_    0.273654 0.063292 0.400917 0.240350
H19   H     H_    0.238347 0.116499 0.269779 0.240607
H20   H     H_    0.406481 0.118638 0.284477 0.244697
H21   H     H_    0.318932 0.212849 0.289294 0.239298
H22   H     H_    0.280919 0.336871 0.762710 0.216618
H23   H     H_    0.625099 0.112831 0.569376 0.166658
H24   H     H_    0.447333 0.239246 0.793422 0.218526
H25   H     H_    0.530740 0.285322 0.707127 0.246239
H26   H     H_    0.382055 0.230667 0.695408 0.237863
H27   H     H_    0.718987 0.663575 0.237514 0.216650
H28   H     H_    0.551913 0.760642 0.206503 0.218567
H29   H     H_    0.616760 0.769500 0.304596 0.237828
H30   H     H_    0.468497 0.714371 0.292710 0.246139
H31   H     H_    0.374820 0.887167 0.430687 0.166668
H32   H     H_    0.665134 0.713126 0.591491 0.144092
H33   H     H_    0.334955 0.286871 0.408448 0.144107
H34   H     H_    0.767203 0.478179 0.649163 0.121067
H35   H     H_    0.232802 0.521870 0.350838 0.120991
H36   H     H_    0.882536 0.463616 0.773496 0.141584
N1    N     N_2   0.489772 0.465562 0.985996 -0.198952
N2    N     N_2   0.629393 0.651945 0.259636 -0.295748
N3    N     N_2   0.512073 0.533996 0.014009 -0.198852
N4    N     N_R   0.515300 0.716920 0.509720 -0.104779
N5    N     N_R   0.484700 0.283080 0.490280 -0.104795
N6    N     N_2   0.537365 0.979452 0.521462 -0.187248
N7    N     N_2   0.462641 0.020547 0.478549 -0.187241
N8    N     N_2   0.702753 0.874802 0.612443 -0.308602
N9    N     N_2   0.297358 0.125199 0.387501 -0.308610
N10   N     N_2   0.370486 0.348233 0.740461 -0.295966
O1    O     O_R   0.494530 0.422540 0.612660 -0.594766
O2    O     O_R   0.505470 0.577460 0.387340 -0.594717
O3    O     O_R   0.504350 0.561840 0.618900 -0.625865
O4    O     O_R   0.495650 0.438160 0.381100 -0.625860
O5    O     O_R   0.678310 0.430340 0.496890 -0.618624
O6    O     O_R   0.321690 0.569660 0.503110 -0.618663
O7    O     O_R   0.688140 0.569650 0.503130 -0.615842
O8    O     O_R   0.311860 0.430350 0.496870 -0.615803
Zn1   Zn    Zn3+2 0.493440 0.406980 0.495830 0.950135
Zn2   Zn    Zn3+2 0.506560 0.593020 0.504170 0.950132

loop_
_geom_bond_atom_site_label_1
_geom_bond_atom_site_label_2
_ccdc_geom_bond_type
C38   H26   S    
C6    N2    S    
C27   C29   A    
C14   C18   A    
C25   H12   S    
C36   H15   S    
O7    Zn2   S    
H22   N10   S    
C10   H23   S    
C36   N8    S    
C15   C19   A    
C17   C33   S    
C30   C35   A    
O4    Zn1   S    
C24   C26   A    
C16   C35   S    
C11   C14   A    
O5    Zn1   S    
C16   O7    A    
C11   N6    S    
C23   C40   A    
H18   N9    S    
C29   C33   A    
C8    N5    A    
C39   H30   S    
C19   H33   S    
C26   H1    S    
C37   H19   S    
C22   C25   A    
C37   H21   S    
C18   N4    A    
C39   H28   S    
C17   O8    A    
C5    N10   S    
H27   N2    S    
C40   C42   A    
C7    N4    A    
C38   H25   S    
C1    O1    A    
C41   C43   A    
C12   O4    A    
C2    N3    S    
C34   C41   A    
C42   C44   A    
C19   N5    A    
C8    H11   S    
C41   H5    S    
N1    N3    D    
C21   C32   A    
C3    C44   A    
N4    Zn2   S    
C4    C6    A    
C44   N1    S    
N6    N7    D    
C3    C5    A    
C6    C34   A    
C2    C4    A    
N5    Zn1   S    
C15   N9    S    
C5    C23   A    
C2    C43   A    
C13   N7    S    
C17   O6    A    
C9    C11   A    
O3    Zn2   S    
C1    O3    A    
C38   H24   S    
C1    C23   S    
C13   C15   A    
C31   C35   A    
C12   C34   S    
C36   H17   S    
C37   H20   S    
O2    Zn2   S    
C27   H3    S    
C7    C9    A    
C28   H4    S    
C16   O5    A    
C18   H32   S    
C4    H10   S    
C12   O2    A    
C39   N2    S    
C20   C22   A    
C36   H16   S    
C10   C13   A    
H14   N8    S    
C37   N9    S    
C25   C27   A    
C38   N10   S    
C26   C28   A    
C20   H34   S    
C24   H2    S    
C32   C33   A    
C28   C30   A    
C22   H36   S    
C29   C31   A    
C30   C32   A    
C3    H9    S    
C43   H7    S    
C21   H35   S    
C40   H6    S    
O6    Zn2   S    
C39   H29   S    
C14   N8    S    
C8    C10   A    
O8    Zn1   S    
C21   C24   A    
C9    H31   S    
O1    Zn1   S    
C7    H13   S    
C42   H8    S    
C20   C31   A    
