data_mof_unit_18628.cif
_audit_creation_date              2013-03-05T15:52:27-0500
_audit_creation_method            fapswitch 2.2
_symmetry_space_group_name_H-M    P1
_symmetry_Int_Tables_number       1
_space_group_crystal_system       triclinic
_cell_length_a                    27.74883
_cell_length_b                    10.812226
_cell_length_c                    9.547575
_cell_angle_alpha                 91.038211
_cell_angle_beta                  90.332394
_cell_angle_gamma                 92.88441
_cell_volume                      2860.36325745

loop_
_atom_site_label
_atom_site_type_symbol
_atom_site_description
_atom_site_fract_x
_atom_site_fract_y
_atom_site_fract_z
_atom_type_partial_charge
O1    O     O_R   0.500000 0.319640 0.618810 -0.547258
O2    O     O_R   0.500000 0.319660 0.381240 -0.525480
C1    C     C_R   0.502717 0.262156 0.498721 0.877798
O3    O     O_R   0.430260 0.500010 0.618770 -0.582203
O4    O     O_R   0.430270 0.500030 0.381200 -0.588812
C2    C     C_R   0.407465 0.501069 0.499637 0.844887
Cu1   Cu    Cu3+1 0.500000 0.499990 0.640660 0.983796
Cu2   Cu    Cu3+1 0.500000 0.500010 0.359340 0.952016
O5    O     O_R   0.500000 0.680340 0.618760 -0.554640
O6    O     O_R   0.500000 0.680360 0.381190 -0.620092
O7    O     O_R   0.569730 0.499970 0.618800 -0.583080
O8    O     O_R   0.569740 0.499990 0.381230 -0.597624
C3    C     C_R   0.495467 0.736685 0.502220 0.811649
C4    C     C_R   0.592597 0.501444 0.500705 0.800951
C5    C     C_R   0.175299 0.416502 0.533391 0.600108
O9    O     O_2   0.197453 0.311961 0.564176 -0.547253
N1    N     N_R   0.202146 0.520958 0.498843 -0.437603
C6    C     C_R   0.180834 0.627770 0.464300 0.557329
C7    C     C_R   0.279455 0.521779 0.626342 0.439532
C8    C     C_R   0.329457 0.512606 0.625854 -0.321468
C9    C     C_R   0.328915 0.506949 0.371927 -0.302961
C10   C     C_R   0.278608 0.509309 0.371156 0.451766
C11   C     C_R   0.253756 0.517908 0.498728 0.171768
C12   C     C_R   0.102215 0.527823 0.506840 -0.055455
C13   C     C_R   0.124814 0.417563 0.536614 -0.102841
C14   C     C_R   0.096514 0.309948 0.563284 -0.248026
C15   C     C_R   0.130419 0.633329 0.467877 -0.010090
C16   C     C_R   0.354579 0.506099 0.499034 -0.161515
H1    H     H_    0.347735 0.505037 0.272908 0.174233
H2    H     H_    0.112980 0.222053 0.576078 0.196973
C17   C     C_R   0.645713 0.507985 0.504517 -0.104237
C18   C     C_R   0.974212 0.439494 0.591949 -0.118794
C19   C     C_R   0.977209 0.638472 0.470868 0.090822
C20   C     C_R   0.950308 0.538161 0.531925 0.013794
C21   C     C_R   0.947968 0.360035 0.683573 0.382599
C22   C     C_R   0.897293 0.355348 0.682188 0.343371
C23   C     C_R   0.872430 0.439816 0.599754 -0.200056
C24   C     C_R   0.899240 0.536515 0.533374 -0.107366
C25   C     C_R   0.875029 0.631279 0.467245 0.026852
C26   C     C_R   0.824474 0.626380 0.464375 0.517164
N2    N     N_R   0.798917 0.528619 0.521444 -0.458715
C27   C     C_R   0.821644 0.435095 0.585405 0.682793
C28   C     C_R   0.722917 0.513918 0.386603 -0.172557
C29   C     C_R   0.672605 0.507043 0.380588 -0.223886
C30   C     C_R   0.669923 0.517168 0.634222 -0.333780
C31   C     C_R   0.720377 0.530126 0.640918 0.500043
C32   C     C_R   0.747021 0.524479 0.516218 0.249305
O10   O     O_2   0.794915 0.336903 0.631489 -0.483470
C33   C     C_R   0.023846 0.427740 0.563047 -0.020175
C34   C     C_R   0.051403 0.532298 0.515566 0.011203
C35   C     C_R   0.028447 0.640316 0.474687 0.075373
C36   C     C_R   0.046240 0.312726 0.568274 0.510573
H3    H     H_    0.654830 0.499746 0.279263 0.180045
H4    H     H_    0.743292 0.510369 0.290348 0.173527
O11   O     O_2   0.208389 0.728417 0.428104 -0.553999
C37   C     C_R   0.107754 0.741735 0.434319 -0.149111
H5    H     H_    0.348514 0.512658 0.725186 0.178181
H6    H     H_    0.128653 0.824576 0.405324 0.180702
C38   C     C_R   0.951822 0.732807 0.407411 -0.198383
C39   C     C_R   0.901682 0.728847 0.405330 -0.125939
O12   O     O_2   0.800974 0.718620 0.405083 -0.551271
C40   C     C_R   0.057670 0.745135 0.436641 -0.194412
H7    H     H_    0.969767 0.808926 0.354071 0.129072
H8    H     H_    0.649750 0.514078 0.730936 0.177399
H9    H     H_    0.883856 0.802575 0.353725 0.186056
H10   H     H_    0.042864 0.832314 0.411418 0.126302
C41   C     C_R   0.539572 0.119057 0.740482 0.500160
C42   C     C_R   0.534948 0.065941 0.872073 -0.251702
H11   H     H_    0.553005 0.110098 0.961839 0.194378
C43   C     C_R   0.506567 0.957723 0.888417 -0.267429
H12   H     H_    0.500949 0.920544 0.991899 0.194735
C44   C     C_R   0.486180 0.895262 0.771486 0.485880
C45   C     C_R   0.495926 0.940880 0.634649 -0.083612
C46   C     C_R   0.513805 0.064291 0.623585 -0.142178
C47   C     C_R   0.505073 0.126955 0.496816 -0.186308
C48   C     C_R   0.491288 0.057178 0.374741 0.363101
H13   H     H_    0.479905 0.877494 0.284064 0.189889
C49   C     C_R   0.486518 0.929972 0.380743 -0.268763
C50   C     C_R   0.489873 0.870166 0.508279 -0.138388
H14   H     H_    0.443990 0.362831 0.125876 0.175917
C51   C     C_R   0.564878 0.665055 0.148355 -0.251802
H15   H     H_    0.568135 0.672580 0.258888 0.210522
C52   C     C_R   0.596454 0.746084 0.077223 0.435138
C53   C     C_R   0.596495 0.743963 0.932673 -0.313949
H16   H     H_    0.621140 0.806002 0.876696 0.162296
C54   C     C_R   0.564527 0.664182 0.858954 -0.210013
H17   H     H_    0.567029 0.672656 0.748781 0.209156
C55   C     C_R   0.531797 0.580907 0.926985 0.248391
C56   C     C_R   0.531882 0.581004 0.076895 0.135311
N3    N     N_R   0.500460 0.501210 0.147910 -0.189489
C57   C     C_R   0.469302 0.424237 0.071945 -0.019346
H18   H     H_    0.444467 0.361554 0.866356 0.137449
C58   C     C_R   0.469447 0.423891 0.923735 -0.031466
N4    N     N_R   0.500480 0.501290 0.852040 -0.174875
O13   O     O_3   0.255691 0.528919 0.752727 -0.596463
C59   C     C_3   0.252370 0.655053 0.791093 0.010709
H19   H     H_    0.224192 0.696660 0.726246 0.180700
H20   H     H_    0.287385 0.709001 0.777776 0.130188
C60   C     C_3   0.238325 0.664297 0.945230 -0.291351
H21   H     H_    0.205812 0.602752 0.964403 0.244789
H22   H     H_    0.268523 0.633359 0.010568 0.248004
C61   C     C_3   0.227705 0.796679 0.988522 -0.863585
H23   H     H_    0.259756 0.860062 0.971195 0.244635
H24   H     H_    0.218470 0.799944 0.101512 0.288746
H25   H     H_    0.196700 0.828717 0.927254 0.255612
O14   O     O_3   0.744454 0.536723 0.768765 -0.586124
C62   C     C_3   0.734791 0.647429 0.842671 0.041787
H26   H     H_    0.744776 0.634448 0.954114 0.195667
H27   H     H_    0.695903 0.667922 0.842360 0.130837
C63   C     C_3   0.765323 0.757792 0.786804 -0.364245
H28   H     H_    0.804033 0.735832 0.787544 0.245156
H29   H     H_    0.754431 0.775910 0.677188 0.232347
C64   C     C_3   0.758821 0.874389 0.875783 -0.834491
H30   H     H_    0.720325 0.898158 0.875990 0.247658
H31   H     H_    0.780798 0.952951 0.831873 0.284807
H32   H     H_    0.770870 0.860212 0.985220 0.273006
Cl1   Cl    Cl    0.480500 0.119794 0.208690 -0.719167
O15   O     O_3   0.571490 0.220495 0.726965 -0.583613
C65   C     C_3   0.614872 0.183005 0.665707 0.023824
H33   H     H_    0.625588 0.251412 0.584949 0.168465
H34   H     H_    0.611886 0.090487 0.611198 0.121272
C66   C     C_3   0.654613 0.183208 0.777222 -0.378854
H35   H     H_    0.659406 0.277209 0.825980 0.246660
H36   H     H_    0.644130 0.116438 0.860198 0.208360
C67   C     C_3   0.702259 0.147208 0.713278 -0.777880
H37   H     H_    0.699069 0.050317 0.672249 0.235230
H38   H     H_    0.731137 0.154643 0.794404 0.290350
H39   H     H_    0.712320 0.209862 0.626182 0.287834
O16   O     O_3   0.254001 0.512241 0.245099 -0.611411
C68   C     C_3   0.238984 0.390488 0.201282 0.036281
H40   H     H_    0.203480 0.395836 0.147924 0.177633
H41   H     H_    0.233160 0.324977 0.289406 0.160430
C69   C     C_3   0.274975 0.339150 0.096674 -0.372878
H42   H     H_    0.281746 0.406458 0.011589 0.251988
H43   H     H_    0.309740 0.324879 0.150735 0.210754
C70   C     C_3   0.256029 0.215838 0.032183 -0.831288
H44   H     H_    0.249429 0.146409 0.115170 0.252924
H45   H     H_    0.283105 0.180599 0.958240 0.254804
H46   H     H_    0.221930 0.228018 0.973635 0.272824
O17   O     O_3   0.455177 0.793555 0.794389 -0.566100
C71   C     C_3   0.406629 0.827535 0.787759 0.081836
H47   H     H_    0.385544 0.754301 0.727423 0.154258
H48   H     H_    0.401359 0.915841 0.731945 0.093100
C72   C     C_3   0.385680 0.837107 0.935451 -0.373856
H49   H     H_    0.406375 0.910310 0.996962 0.239097
H50   H     H_    0.347744 0.864507 0.927492 0.174171
C73   C     C_3   0.386694 0.714547 0.012476 -0.743060
H51   H     H_    0.366257 0.640009 0.952411 0.225530
H52   H     H_    0.369764 0.724666 0.116887 0.235389
H53   H     H_    0.424462 0.687840 0.027930 0.270137
O18   O     O_3   0.629576 0.823723 0.148771 -0.603919
C74   C     C_3   0.606067 0.927402 0.202018 0.046670
H54   H     H_    0.587946 0.903066 0.302200 0.145903
H55   H     H_    0.578681 0.960124 0.127191 0.156675
C75   C     C_3   0.643641 0.033538 0.229460 -0.323868
H56   H     H_    0.668465 0.007644 0.314709 0.230337
H57   H     H_    0.665197 0.049966 0.133104 0.228595
C76   C     C_3   0.620018 0.153147 0.271076 -0.889771
H58   H     H_    0.597633 0.185325 0.183429 0.279921
H59   H     H_    0.648302 0.226381 0.297129 0.252420
H60   H     H_    0.596862 0.138124 0.363961 0.247082
Cl2   Cl    Cl    0.866837 0.249059 0.794721 -0.492336
Cl3   Cl    Cl    0.977690 0.288150 0.823386 -0.516926
O19   O     O_3   0.019101 0.201874 0.574508 -0.559773
C77   C     C_3   0.015607 0.144635 0.439972 0.043657
H61   H     H_    0.009342 0.043555 0.455427 0.174853
H62   H     H_    0.049458 0.156214 0.377990 0.121051
C78   C     C_3   0.972717 0.191263 0.357584 -0.391118
H63   H     H_    0.939475 0.180847 0.421613 0.244287
H64   H     H_    0.979379 0.290888 0.334177 0.221361
C79   C     C_3   0.964888 0.119422 0.219620 -0.775846
H65   H     H_    0.997605 0.129279 0.153445 0.273191
H66   H     H_    0.934056 0.156433 0.161856 0.292607
H67   H     H_    0.956597 0.019772 0.239660 0.233082

loop_
_geom_bond_atom_site_label_1
_geom_bond_atom_site_label_2
_geom_bond_distance
_ccdc_geom_bond_type
C76   H59   1.110358 S    
C79   H65   1.110915 S    
C3    C50   1.459438 S    
C77   H61   1.110606 S    
C69   H42   1.110978 S    
C75   H57   1.112340 S    
N2    C27   1.369405 A    
C68   H41   1.116858 S    
O13   C59   1.413339 S    
C12   C15   1.407529 A    
C4    C17   1.472264 S    
C47   C48   1.416986 A    
C51   H15   1.059966 S    
Cu1   Cu2   2.685928 S    
H13   C49   1.084539 S    
Cu1   O7    1.947363 S    
C79   H66   1.110515 S    
C58   N4    1.365835 A    
O19   C77   1.416347 S    
C73   H52   1.110444 S    
C48   C49   1.377349 A    
O16   C68   1.415787 S    
C72   C73   1.528538 S    
O4    C2    1.299156 A    
O7    C4    1.296964 A    
C54   C55   1.415337 A    
C5    C13   1.402049 A    
O14   C62   1.416491 S    
C5    O9    1.349738 S    
C59   C60   1.527361 S    
C61   H25   1.110808 S    
C5    N1    1.367852 A    
C45   C46   1.406007 A    
C23   C27   1.413377 A    
O5    C3    1.286726 A    
C63   H28   1.111720 S    
C76   H60   1.107726 S    
O15   C65   1.415691 S    
C29   H3    1.083127 S    
C78   C79   1.525862 S    
C2    C16   1.471257 S    
C73   H51   1.110606 S    
C37   H6    1.083416 S    
C42   H11   1.081499 S    
C59   H20   1.116946 S    
C69   C70   1.526137 S    
O18   C74   1.413306 S    
C43   H12   1.082541 S    
C1    C47   1.466356 S    
C64   H32   1.110824 S    
C51   C56   1.419950 A    
C78   H64   1.110656 S    
C38   C39   1.389831 A    
C19   C38   1.411893 A    
C20   C24   1.416439 A    
C9    C10   1.397457 A    
C75   C76   1.526349 S    
C22   Cl2   1.773928 S    
C62   H27   1.112486 S    
C35   C40   1.414133 A    
C70   H46   1.110945 S    
C51   C52   1.395600 A    
C34   C35   1.417972 A    
C52   O18   1.382152 S    
C65   H34   1.118323 S    
C12   C34   1.416118 A    
C79   H67   1.110602 S    
C55   N4    1.379646 A    
C17   C29   1.402676 A    
C40   H10   1.077668 S    
C41   C42   1.394755 A    
C18   C21   1.416099 A    
C73   H53   1.110740 S    
C12   C13   1.407377 A    
O3    C2    1.298784 A    
C46   C47   1.423210 A    
C71   C72   1.532098 S    
C25   C26   1.401255 A    
C15   C37   1.399108 A    
C70   H44   1.110969 S    
C27   O10   1.346235 S    
C8    C16   1.403080 A    
O3    Cu1   1.945264 S    
C13   C14   1.398737 A    
C30   C31   1.400961 A    
C9    H1    1.083058 S    
C21   Cl3   1.776388 S    
C26   O12   1.349811 S    
O1    C1    1.298646 A    
C21   C22   1.404502 A    
C18   C20   1.412609 A    
C76   H58   1.110600 S    
C7    C11   1.407081 A    
C28   C29   1.395144 A    
C23   C24   1.414020 A    
C14   C36   1.397951 A    
C57   C58   1.415014 A    
C72   H50   1.110387 S    
C28   H4    1.082880 S    
C52   C53   1.379892 A    
C74   C75   1.529098 S    
Cu2   O8    1.945259 S    
C33   C36   1.419409 A    
C59   H19   1.112174 S    
N1    C6    1.368394 A    
N2    C32   1.439035 S    
C41   C46   1.425382 A    
N1    C11   1.434148 S    
C53   H16   1.083653 S    
C61   H24   1.110595 S    
C63   C64   1.526246 S    
C6    O11   1.349536 S    
C36   O19   1.385450 S    
C70   H45   1.110516 S    
C26   N2    1.366388 A    
C60   H22   1.110373 S    
C9    C16   1.403926 A    
O8    C4    1.301409 A    
C39   H9    1.083511 S    
C14   H2    1.083554 S    
C77   C78   1.534040 S    
C10   O16   1.381934 S    
C67   H37   1.110925 S    
C62   C63   1.533853 S    
C37   C40   1.392398 A    
C68   C69   1.533081 S    
Cu2   N3    2.019031 S    
C62   H26   1.111076 S    
C66   H36   1.111606 S    
C7    O13   1.381254 S    
C54   H17   1.059894 S    
C69   H43   1.110355 S    
C64   H30   1.111191 S    
C65   C66   1.528307 S    
Cu1   O5    1.964926 S    
Cu1   N4    2.017924 S    
C31   C32   1.407121 A    
C78   H63   1.111686 S    
O1    Cu1   1.957350 S    
Cu2   O6    1.957350 S    
O2    Cu2   1.964927 S    
C6    C15   1.403842 A    
C74   H55   1.114906 S    
C44   C45   1.427337 A    
C45   C50   1.421196 A    
O6    C3    1.306090 A    
O4    Cu2   1.947366 S    
C65   H33   1.109585 S    
C66   H35   1.111724 S    
C19   C35   1.421180 A    
C30   H8    1.082745 S    
C38   H7    1.077756 S    
C48   Cl1   1.765002 S    
C60   H21   1.111841 S    
C72   H49   1.111142 S    
C7    C8    1.396022 A    
C71   H48   1.117393 S    
C68   H40   1.111080 S    
C8    H5    1.083139 S    
C71   H47   1.110897 S    
C49   C50   1.393837 A    
N3    C57   1.365519 A    
C24   C25   1.409824 A    
C22   C23   1.418690 A    
C66   C67   1.524712 S    
H14   C57   1.081170 S    
O17   C71   1.415433 S    
C25   C39   1.399455 A    
C31   O14   1.387085 S    
H18   C58   1.081693 S    
C19   C20   1.421212 A    
O2    C1    1.295906 A    
C61   H23   1.110171 S    
C41   O15   1.383003 S    
C63   H29   1.111184 S    
C18   C33   1.417742 A    
C44   O17   1.383076 S    
C60   C61   1.526058 S    
C55   C56   1.431253 A    
C77   H62   1.116022 S    
C33   C34   1.415578 A    
C17   C30   1.404959 A    
C67   H39   1.110144 S    
C75   H56   1.111983 S    
C67   H38   1.110239 S    
C42   C43   1.388874 A    
C10   C11   1.407069 A    
C53   C54   1.385684 A    
C43   C44   1.396207 A    
C74   H54   1.112815 S    
C56   N3    1.384426 A    
C28   C32   1.403362 A    
C64   H31   1.110371 S    
