data_mof_unit_34969.cif
_audit_creation_date              2012-10-26T20:13:53-0400
_audit_creation_method            fapswitch 2.2
_symmetry_space_group_name_H-M    P1
_symmetry_Int_Tables_number       1
_space_group_crystal_system       triclinic
_cell_length_a                    8.740884
_cell_length_b                    10.860887
_cell_length_c                    9.557334
_cell_angle_alpha                 90.123923
_cell_angle_beta                  97.701695
_cell_angle_gamma                 90.642792
_cell_volume                      899.06619038

loop_
_atom_site_label
_atom_site_type_symbol
_atom_type_description
_atom_site_fract_x
_atom_site_fract_y
_atom_site_fract_z
_atom_type_partial_charge
C1    C     C_R   0.497726 0.262770 0.499446 0.550234
C2    C     C_R   0.572908 0.592578 0.935354 0.098380
C3    C     C_3   0.741168 0.623522 0.948715 -0.246224
C4    C     C_R   0.203976 0.499864 0.464408 0.572948
C5    C     C_3   0.742126 0.620788 0.108156 0.148547
C6    C     C_R   0.496440 0.737228 0.499545 0.556963
C7    C     C_R   0.795806 0.491412 0.535859 0.551360
C8    C     C_2   0.038786 0.510087 0.449251 -0.105272
C9    C     C_2   0.961047 0.468818 0.551919 0.226141
C10   C     C_R   0.503376 0.062547 0.620749 0.014853
C11   C     C_R   0.491683 0.130193 0.497067 -0.004501
C12   C     C_R   0.470711 0.934906 0.368629 -0.154935
C13   C     C_R   0.473080 0.064176 0.368372 -0.165163
C14   C     C_3   0.725021 0.840153 0.124029 -0.098708
C15   C     C_3   0.009254 0.408704 0.785993 -0.110746
C16   C     C_3   0.792875 0.111430 0.772600 -0.096217
C17   C     C_R   0.488458 0.869797 0.497372 0.012718
C18   C     C_R   0.499446 0.938295 0.620894 -0.033507
C19   C     C_3   0.520595 0.928085 0.777808 -0.233911
C20   C     C_3   0.524730 0.070159 0.779157 0.163672
C21   C     C_R   0.572708 0.592618 0.083413 0.174781
C22   C     C_R   0.419248 0.413923 0.064122 -0.021290
C23   C     C_R   0.420216 0.413465 0.915593 0.005634
Cu1   Cu    Cu3+1 0.499990 0.499980 0.640670 0.966981
Cu2   Cu    Cu3+1 0.500010 0.500020 0.359330 0.965658
H1    H     H_    0.983747 0.563088 0.360823 0.098633
H2    H     H_    0.422677 0.110497 0.819376 0.116903
H3    H     H_    0.355857 0.342815 0.111707 0.112668
H4    H     H_    0.603324 0.830926 0.073722 0.098140
H5    H     H_    0.800614 0.874240 0.047676 0.126833
H6    H     H_    0.728310 0.911768 0.207229 0.152414
H7    H     H_    0.894482 0.376175 0.808537 0.151544
H8    H     H_    0.030189 0.508159 0.811122 0.119392
H9    H     H_    0.094313 0.356048 0.857716 0.105695
H10   H     H_    0.781586 0.175898 0.681886 0.157323
H11   H     H_    0.808734 0.015799 0.736287 0.108508
H12   H     H_    0.359377 0.341325 0.852126 0.129320
H13   H     H_    0.899245 0.137848 0.843456 0.127538
H14   H     H_    0.808156 0.547272 0.912392 0.104980
H15   H     H_    0.764895 0.712935 0.900596 0.111880
H16   H     H_    0.807794 0.540852 0.155850 0.133650
H17   H     H_    0.460966 0.111593 0.267979 0.135595
H18   H     H_    0.455728 0.886619 0.268527 0.134494
H19   H     H_    0.417284 0.887862 0.817636 0.101874
H20   H     H_    0.631433 0.884640 0.818610 0.130366
N1    N     N_R   0.500980 0.500930 0.148050 -0.251884
N2    N     N_R   0.500990 0.500890 0.852140 -0.235098
O1    O     O_R   0.500000 0.319640 0.618810 -0.488957
O2    O     O_3   0.029210 0.380792 0.645869 -0.578959
O3    O     O_3   0.665610 0.121940 0.848933 -0.570038
O4    O     O_R   0.500020 0.319680 0.381230 -0.517069
O5    O     O_R   0.274830 0.499980 0.591380 -0.458779
O6    O     O_R   0.274850 0.500020 0.353800 -0.515863
O7    O     O_R   0.499980 0.680320 0.618770 -0.509161
O8    O     O_R   0.500000 0.680360 0.381190 -0.483423
O9    O     O_R   0.725150 0.499980 0.646200 -0.516607
O10   O     O_R   0.725170 0.500020 0.408620 -0.509658
O11   O     O_3   0.784186 0.730179 0.187752 -0.560645

loop_
_geom_bond_atom_site_label_1
_geom_bond_atom_site_label_2
_ccdc_geom_bond_type
C12   C17   A    
Cu1   O5    S    
C19   H20   S    
C1    O1    A    
C20   H2    S    
C2    N2    A    
Cu1   O9    S    
C8    H1    S    
C14   H6    S    
C15   H9    S    
C19   C20   S    
C1    C11   S    
C6    O8    A    
C4    C8    S    
C2    C21   A    
Cu2   O4    S    
C2    C3    S    
C3    H14   S    
C15   H7    S    
C22   H3    S    
C16   H11   S    
C12   C13   A    
C1    O4    A    
Cu2   O10   S    
C5    O11   S    
C14   H5    S    
C14   O11   S    
C7    O9    A    
C13   H17   S    
C22   N1    A    
C16   O3    S    
C3    H15   S    
C17   C18   A    
C12   H18   S    
C4    O5    A    
C15   O2    S    
C16   H10   S    
C10   C18   A    
C4    O6    A    
C23   N2    A    
C10   C11   A    
C14   H4    S    
Cu1   O7    S    
Cu1   O1    S    
C19   H19   S    
C11   C13   A    
C9    O2    S    
Cu1   Cu2   S    
C21   N1    A    
C10   C20   S    
C7    C9    S    
C6    C17   S    
C5    H16   S    
C22   C23   A    
C18   C19   S    
C20   O3    S    
C3    C5    S    
C23   H12   S    
Cu1   N2    S    
Cu2   N1    S    
C7    O10   A    
C6    O7    A    
Cu2   O6    S    
Cu2   O8    S    
C16   H13   S    
C8    C9    D    
C15   H8    S    
C5    C21   S    
