data_mof_unit_55372.cif
_audit_creation_date              2013-03-05T16:45:10-0500
_audit_creation_method            fapswitch 2.2
_symmetry_space_group_name_H-M    P1
_symmetry_Int_Tables_number       1
_space_group_crystal_system       triclinic
_cell_length_a                    15.111221
_cell_length_b                    15.088531
_cell_length_c                    9.881145
_cell_angle_alpha                 89.625315
_cell_angle_beta                  89.673415
_cell_angle_gamma                 90.335296
_cell_volume                      2252.837753

loop_
_atom_site_label
_atom_site_type_symbol
_atom_site_description
_atom_site_fract_x
_atom_site_fract_y
_atom_site_fract_z
_atom_type_partial_charge
O1    O     O_R   0.408400 0.908380 0.614690 -0.616458
O2    O     O_R   0.408400 0.091620 0.614690 -0.625096
O3    O     O_R   0.908400 0.408380 0.614690 -0.621768
O4    O     O_R   0.908400 0.591620 0.614690 -0.621400
O5    O     O_R   0.408370 0.908370 0.385350 -0.567607
O6    O     O_R   0.408370 0.091630 0.385350 -0.574101
O7    O     O_R   0.908370 0.408370 0.385350 -0.563768
O8    O     O_R   0.908370 0.591630 0.385350 -0.568680
C1    C     C_R   0.381374 0.878973 0.500017 0.984060
C2    C     C_R   0.382312 0.121982 0.499313 0.945941
C3    C     C_R   0.882615 0.377774 0.500933 0.964059
C4    C     C_R   0.884138 0.623817 0.499755 0.926806
Zn1   Zn    Zn3+2 0.500010 1.000000 0.653130 1.039390
Zn2   Zn    Zn3+2 0.000010 0.500000 0.653130 1.048794
Zn3   Zn    Zn3+2 0.499980 1.000000 0.346870 1.093633
Zn4   Zn    Zn3+2 0.999980 0.500000 0.346870 1.092485
O9    O     O_R   0.591610 0.091610 0.614650 -0.603945
O10   O     O_R   0.591610 0.908390 0.614650 -0.612903
O11   O     O_R   0.091610 0.591610 0.614650 -0.587090
O12   O     O_R   0.091610 0.408390 0.614650 -0.603427
O13   O     O_R   0.591590 0.091600 0.385310 -0.607460
O14   O     O_R   0.591590 0.908400 0.385310 -0.603144
O15   O     O_R   0.091590 0.591600 0.385310 -0.606898
O16   O     O_R   0.091590 0.408400 0.385310 -0.619422
C5    C     C_R   0.618988 0.120593 0.499602 0.898416
C6    C     C_R   0.621551 0.881567 0.500215 0.969933
C7    C     C_R   0.119372 0.619844 0.499373 0.907661
C8    C     C_R   0.120703 0.381198 0.499871 0.971495
C9    C     C_R   0.262736 0.198101 0.610100 -0.057352
C10   C     C_R   0.231021 0.833470 0.531831 0.040066
C11   C     C_R   0.788150 0.723651 0.621002 0.099896
C12   C     C_R   0.752423 0.311841 0.597079 -0.022121
C13   C     C_R   0.315776 0.187556 0.495687 -0.138527
C14   C     C_R   0.317217 0.810983 0.496823 -0.156055
C15   C     C_R   0.830253 0.701161 0.500627 -0.161891
C16   C     C_R   0.822740 0.305663 0.506372 -0.137927
C17   C     C_R   0.296887 0.234853 0.374638 0.345190
C18   C     C_R   0.334577 0.728099 0.434648 0.334952
C19   C     C_R   0.817614 0.754588 0.383934 0.331683
C20   C     C_R   0.834154 0.228642 0.427460 0.330935
C21   C     C_R   0.748130 0.814928 0.384727 -0.177390
C22   C     C_R   0.764246 0.168064 0.423029 -0.194537
C23   C     C_R   0.229123 0.295769 0.376250 -0.150775
C24   C     C_R   0.266624 0.665133 0.434093 -0.161558
H1    H     H_    0.734330 0.853121 0.294078 0.207550
H2    H     H_    0.768867 0.109524 0.360406 0.185797
H3    H     H_    0.216213 0.333751 0.285009 0.209444
H4    H     H_    0.277954 0.599708 0.392896 0.189357
C25   C     C_R   0.695816 0.824236 0.501476 -0.159658
C26   C     C_R   0.688305 0.182927 0.500765 -0.116403
C27   C     C_R   0.185015 0.313914 0.497642 -0.103556
C28   C     C_R   0.185876 0.684506 0.495833 -0.099813
C29   C     C_R   0.722507 0.785005 0.622239 0.025554
C30   C     C_R   0.685832 0.250430 0.595256 0.030375
C31   C     C_R   0.200758 0.263079 0.612384 0.051504
C32   C     C_R   0.166950 0.769860 0.535657 0.029449
C33   C     C_3   0.673411 0.736544 0.733838 0.477691
C34   C     C_3   0.616753 0.319874 0.621653 0.466460
C35   C     C_3   0.218992 0.284781 0.758459 0.453998
C36   C     C_3   0.121912 0.809772 0.656332 0.469622
C37   C     C_3   0.286306 0.209940 0.756103 -0.414730
C38   C     C_3   0.192577 0.882488 0.649151 -0.516566
C39   C     C_3   0.747473 0.668128 0.730945 -0.501174
C40   C     C_3   0.691758 0.387767 0.624640 -0.507245
H5    H     H_    0.356079 0.232024 0.769669 0.259473
H6    H     H_    0.237111 0.881943 0.736890 0.211411
H7    H     H_    0.789199 0.667896 0.823306 0.246429
H8    H     H_    0.703021 0.416483 0.726122 0.215334
H9    H     H_    0.266724 0.151418 0.818431 0.216171
H10   H     H_    0.167690 0.948978 0.619430 0.241871
H11   H     H_    0.727872 0.601210 0.695144 0.203190
H12   H     H_    0.691054 0.437254 0.540719 0.246658
C41   C     C_R   0.422619 0.010740 0.071431 0.129455
C42   C     C_R   0.923106 0.514153 0.071169 0.120543
N1    N     N_R   0.499140 1.000000 0.142800 -0.120361
N2    N     N_R   0.999140 0.500000 0.142800 -0.120350
C43   C     C_R   0.576972 0.998936 0.071281 0.013987
C44   C     C_R   0.076743 0.494611 0.071339 0.017737
H13   H     H_    0.639104 0.996141 0.124941 0.152851
H14   H     H_    0.138623 0.488448 0.125005 0.161605
C45   C     C_R   0.576929 0.999365 0.927350 0.041968
C46   C     C_R   0.076702 0.494788 0.927485 0.041953
H15   H     H_    0.638944 0.997945 0.872449 0.180919
H16   H     H_    0.138460 0.489432 0.872790 0.193673
N3    N     N_R   0.499160 1.000000 0.857150 -0.102318
N4    N     N_R   0.999160 0.500000 0.857150 -0.106334
C47   C     C_R   0.423204 0.011946 0.928961 0.129265
C48   C     C_R   0.923738 0.515407 0.928640 0.133861
C49   C     C_3   0.342488 0.956605 0.917953 -0.566021
C50   C     C_3   0.840074 0.464343 0.916523 -0.566601
C51   C     C_3   0.341142 0.952268 0.072160 0.428885
C52   C     C_3   0.839156 0.459087 0.070868 0.425172
H17   H     H_    0.288268 0.995017 0.870865 0.212163
H18   H     H_    0.357028 0.891925 0.869706 0.251487
H19   H     H_    0.787748 0.505719 0.870987 0.208036
H20   H     H_    0.849682 0.399451 0.866032 0.249625
N5    N     N_R   0.349778 0.228230 0.253840 0.230864
O17   O     O_R   0.434035 0.246200 0.257665 -0.267982
O18   O     O_R   0.311637 0.219979 0.136895 -0.305310
N6    N     N_R   0.419038 0.705562 0.375804 0.263849
O19   O     O_R   0.491522 0.744466 0.413813 -0.331964
O20   O     O_R   0.424645 0.641297 0.288973 -0.234590
N7    N     N_R   0.872550 0.747738 0.265304 0.232822
O21   O     O_R   0.958298 0.747903 0.276985 -0.306017
O22   O     O_R   0.838092 0.756027 0.145510 -0.295812
N8    N     N_R   0.914410 0.211045 0.353351 0.252504
O23   O     O_R   0.990382 0.237514 0.399686 -0.368866
O24   O     O_R   0.913562 0.156534 0.251797 -0.252098
N9    N     N_R   0.264220 0.994806 0.135311 0.240609
O25   O     O_R   0.263630 0.008728 0.264992 -0.355320
O26   O     O_R   0.191499 0.006925 0.067850 -0.272243
N10   N     N_R   0.354833 0.861702 0.122551 0.215784
O27   O     O_R   0.430804 0.822908 0.105552 -0.296343
O28   O     O_R   0.286369 0.813403 0.155696 -0.299933
N11   N     N_R   0.764190 0.504104 0.135642 0.241250
O29   O     O_R   0.693389 0.523739 0.067544 -0.265613
O30   O     O_R   0.762991 0.513694 0.266280 -0.344735
N12   N     N_R   0.849770 0.367779 0.119627 0.214168
O31   O     O_R   0.780455 0.323325 0.160431 -0.301064
O32   O     O_R   0.922488 0.324935 0.094242 -0.303088
N13   N     N_R   0.670592 0.784867 0.862268 0.212401
O33   O     O_R   0.627554 0.750914 0.964777 -0.243510
O34   O     O_R   0.725330 0.850167 0.883613 -0.368229
N14   N     N_R   0.571813 0.309598 0.752964 0.219785
O35   O     O_R   0.529287 0.376136 0.804754 -0.227894
O36   O     O_R   0.570989 0.233726 0.816462 -0.357417
N15   N     N_R   0.261117 0.371163 0.783623 0.195930
O37   O     O_R   0.290269 0.388902 0.904161 -0.276273
O38   O     O_R   0.279055 0.426308 0.685277 -0.356439
N16   N     N_R   0.127697 0.757576 0.782526 0.208968
O39   O     O_R   0.088803 0.786710 0.891211 -0.242279
O40   O     O_R   0.188526 0.697463 0.796382 -0.349514
N17   N     N_R   0.586427 0.702329 0.692486 0.222095
O41   O     O_R   0.580250 0.638169 0.605507 -0.308703
O42   O     O_R   0.514368 0.740144 0.735120 -0.293733
N18   N     N_R   0.554990 0.333189 0.509119 0.206329
O43   O     O_R   0.584506 0.345085 0.386220 -0.268622
O44   O     O_R   0.470075 0.335316 0.531371 -0.323367
N19   N     N_R   0.143384 0.267346 0.848823 0.205674
O45   O     O_R   0.063698 0.259042 0.800963 -0.329284
O46   O     O_R   0.155077 0.262510 0.978963 -0.271959
N20   N     N_R   0.032010 0.840296 0.625517 0.203075
O47   O     O_R   0.017570 0.889224 0.518923 -0.321270
O48   O     O_R   0.964868 0.814059 0.698770 -0.320124

loop_
_geom_bond_atom_site_label_1
_geom_bond_atom_site_label_2
_geom_bond_distance
_ccdc_geom_bond_type
Zn2   N4    2.015920 S    
Zn3   N1    2.016559 S    
C31   C35   1.508696 S    
C15   C19   1.417050 A    
O10   C6    1.284289 A    
C17   N5    1.437058 S    
N5    O17   1.301038 A    
C50   H19   1.106164 S    
C19   C21   1.393781 A    
O7    C3    1.286427 A    
C26   C30   1.386742 A    
C42   N2    1.369983 A    
Zn1   O10   1.998615 S    
C12   C16   1.390135 A    
C20   N8    1.440035 S    
C3    C16   1.411563 S    
N2    C44   1.368509 A    
N9    O26   1.301716 A    
C8    C27   1.409688 S    
C44   H14   1.081771 S    
N8    O23   1.300048 A    
C35   N15   1.470429 S    
N11   O29   1.301736 A    
C9    C13   1.392602 A    
C38   H10   1.111746 S    
C36   C38   1.527584 S    
C22   H2    1.084133 S    
C42   C52   1.512413 S    
C49   H18   1.111468 S    
O2    Zn1   1.998312 S    
C52   N12   1.466527 S    
N12   O31   1.301166 A    
C41   C47   1.407735 A    
N5    O18   1.300624 A    
O6    Zn3   1.998930 S    
C5    C26   1.403795 S    
C21   C25   1.403032 A    
Zn3   O14   1.998103 S    
N11   O30   1.299908 A    
O15   C7    1.279739 A    
C49   C51   1.524729 S    
O11   C7    1.281047 A    
C27   C31   1.387168 A    
C36   N20   1.469913 S    
C24   C28   1.394472 A    
N3    C47   1.359488 A    
O8    Zn4   1.998930 S    
C14   C18   1.422076 A    
O4    Zn2   1.998312 S    
C41   N1    1.367715 A    
C33   N17   1.470431 S    
N10   O28   1.301112 A    
N10   O27   1.302211 A    
C45   H15   1.080531 S    
C18   C24   1.394910 A    
C33   C39   1.527260 S    
C9    C37   1.499530 S    
C43   H13   1.081790 S    
C34   C40   1.523843 S    
C39   H7    1.112222 S    
C35   C37   1.524456 S    
O5    Zn3   1.984231 S    
C10   C14   1.390300 A    
C28   C32   1.380183 A    
C11   C39   1.494765 S    
C16   C20   1.414565 A    
O1    C1    1.287364 A    
C12   C40   1.496842 S    
C18   N6    1.442883 S    
C6    C25   1.420993 S    
C36   N16   1.473753 S    
C38   H6    1.100540 S    
C9    C31   1.360021 A    
C34   N18   1.469353 S    
C46   N4    1.368156 A    
C10   C32   1.359489 A    
C13   C17   1.420051 A    
C32   C36   1.500866 S    
C51   N10   1.467541 S    
C17   C23   1.380091 A    
N16   O40   1.302287 A    
N15   O38   1.301504 A    
O5    C1    1.277879 A    
Zn2   O12   1.998615 S    
C44   C46   1.421432 A    
C50   C52   1.526626 S    
C35   N19   1.467520 S    
O8    C4    1.285462 A    
N6    O20   1.301755 A    
N7    O22   1.301447 A    
C11   C29   1.360829 A    
C4    C15   1.426945 S    
C19   N7    1.437147 S    
N1    C43   1.368886 A    
C41   C51   1.510443 S    
N13   O33   1.301225 A    
O3    Zn2   1.990525 S    
C22   C26   1.397281 A    
N18   O44   1.301246 A    
O7    Zn4   1.984231 S    
C48   C50   1.482520 S    
Zn4   O15   1.990316 S    
C46   H16   1.079474 S    
C47   C49   1.479053 S    
N17   O41   1.302035 A    
N20   O48   1.301239 A    
O4    C4    1.288347 A    
N15   O37   1.301183 A    
O2    C2    1.290506 A    
C40   H8    1.108603 S    
C7    C28   1.396685 S    
N14   O36   1.301816 A    
C30   C34   1.506270 S    
C37   H9    1.110999 S    
O13   C5    1.283692 A    
C29   C33   1.508268 S    
Zn4   N2    2.016559 S    
Zn2   O11   1.983917 S    
O16   C8    1.282621 A    
C39   H11   1.111171 S    
N18   O43   1.302277 A    
O6    C2    1.279318 A    
N19   O45   1.301855 A    
C50   H20   1.111718 S    
O12   C8    1.284684 A    
C34   N14   1.467939 S    
C12   C30   1.364195 A    
Zn1   O9    1.983917 S    
O9    C5    1.280918 A    
C51   N9    1.469070 S    
C10   C38   1.495648 S    
N16   O39   1.301533 A    
N9    O25   1.299846 A    
N19   O46   1.300651 A    
C23   C27   1.398324 A    
C1    C14   1.407995 S    
N8    O24   1.301704 A    
C25   C29   1.391411 A    
C11   C15   1.390647 A    
C20   C22   1.393953 A    
N6    O19   1.298228 A    
C2    C13   1.415182 S    
N4    C48   1.359435 A    
C40   H12   1.112376 S    
C49   H17   1.109093 S    
C52   N11   1.469946 S    
N12   O32   1.302164 A    
N13   O34   1.301785 A    
O3    C3    1.279938 A    
C33   N13   1.468244 S    
C37   H5    1.112984 S    
Zn3   O13   1.990316 S    
O1    Zn1   1.990526 S    
Zn4   O16   1.998103 S    
C43   C45   1.422183 A    
O14   C6    1.288415 A    
Zn1   N3    2.015920 S    
N7    O21   1.301528 A    
N17   O42   1.301501 A    
C21   H1    1.083827 S    
N20   O47   1.302437 A    
C42   C48   1.408336 A    
C23   H3    1.084371 S    
C45   N3    1.368078 A    
C24   H4    1.084413 S    
N14   O35   1.301264 A    
