data_mof_unit_54465.cif
_audit_creation_date              2012-12-11T14:13:23-0500
_audit_creation_method            fapswitch 2.2
_symmetry_space_group_name_H-M    P1
_symmetry_Int_Tables_number       1
_space_group_crystal_system       triclinic
_cell_length_a                    11.698624
_cell_length_b                    18.421016
_cell_length_c                    10.11842
_cell_angle_alpha                 90.000444
_cell_angle_beta                  110.32153
_cell_angle_gamma                 90.00052
_cell_volume                      2044.80582875

loop_
_atom_site_label
_atom_site_type_symbol
_atom_type_description
_atom_site_fract_x
_atom_site_fract_y
_atom_site_fract_z
_atom_type_partial_charge
C1    C     C_R   0.074271 0.645589 0.141095 0.601812
C2    C     C_2   0.575903 0.084140 0.085422 -0.019329
C3    C     C_2   0.575896 0.417952 0.080677 -0.024399
C4    C     C_2   0.424089 0.584135 0.914587 -0.019256
C5    C     C_2   0.459618 0.972650 0.011893 0.200344
C6    C     C_2   0.551125 0.025467 0.002370 0.223718
C7    C     C_2   0.540371 0.472645 0.988105 0.200342
C8    C     C_2   0.448897 0.525472 0.997671 0.223776
C9    C     C_2   0.104421 0.940120 0.142075 0.261437
C10   C     C_2   0.982392 0.073860 0.879843 0.272666
C11   C     C_2   0.895503 0.440126 0.857882 0.261330
C12   C     C_R   0.869821 0.361976 0.842526 0.580123
C13   C     C_2   0.017614 0.573846 0.120133 0.272689
C14   C     C_2   0.102563 0.976430 0.026718 -0.025358
C15   C     C_2   0.064533 0.053199 0.003050 -0.048514
C16   C     C_2   0.897398 0.476420 0.973279 -0.025343
C17   C     C_2   0.935436 0.553197 0.996975 -0.048461
C18   C     C_R   0.470816 0.647333 0.443086 0.586814
C19   C     C_R   0.529197 0.352365 0.556061 0.582834
C20   C     C_R   0.529185 0.147333 0.556915 0.586777
C21   C     C_R   0.470807 0.852364 0.443941 0.582824
C22   C     C_R   0.378583 0.647504 0.962021 0.570596
C23   C     C_R   0.925722 0.145591 0.858899 0.601845
C24   C     C_R   0.621498 0.353056 0.037203 0.552583
C25   C     C_R   0.621416 0.147505 0.037981 0.570595
C26   C     C_R   0.378504 0.853056 0.962799 0.552593
C27   C     C_R   0.498132 0.423386 0.484293 0.053295
C28   C     C_R   0.501794 0.575386 0.510670 0.049109
C29   C     C_R   0.501887 0.923384 0.515708 0.053276
C30   C     C_R   0.498212 0.075384 0.489337 0.049102
C31   C     C_R   0.290062 0.422494 0.495147 0.282334
C32   C     C_R   0.709377 0.576405 0.496646 0.270800
C33   C     C_R   0.709945 0.922499 0.504808 0.282304
C34   C     C_R   0.130183 0.861977 0.157474 0.580128
C35   C     C_R   0.290651 0.076393 0.503441 0.270877
C36   C     C_R   0.215923 0.452065 0.563850 0.354301
C37   C     C_R   0.783887 0.546597 0.428518 0.347134
C38   C     C_R   0.784079 0.952076 0.436103 0.354286
C39   C     C_R   0.216167 0.046576 0.571595 0.347141
C40   C     C_R   0.231015 0.524892 0.604932 0.264921
C41   C     C_R   0.770413 0.473401 0.390585 0.254287
C42   C     C_R   0.768988 0.024903 0.395031 0.264908
C43   C     C_R   0.229647 0.973378 0.609505 0.254304
C44   C     C_R   0.321367 0.566298 0.581685 -0.103517
C45   C     C_R   0.396574 0.460010 0.497594 0.021028
C46   C     C_R   0.680450 0.431913 0.415205 -0.113696
C47   C     C_R   0.678630 0.066305 0.418282 -0.103541
C48   C     C_R   0.319605 0.931898 0.584861 -0.113666
C49   C     C_R   0.406492 0.534539 0.529521 -0.028082
C50   C     C_R   0.593533 0.464107 0.464480 -0.047451
C51   C     C_R   0.593509 0.034542 0.470454 -0.028110
C52   C     C_R   0.406502 0.964100 0.535560 -0.047439
C53   C     C_R   0.602806 0.538893 0.494774 0.002199
C54   C     C_R   0.603434 0.960012 0.502378 0.020971
C55   C     C_R   0.397216 0.038886 0.505269 0.002215
C56   C     C_2   0.424124 0.917949 0.919331 -0.024443
Cl1   Cl    Cl    0.110474 0.396251 0.603894 -0.299043
Cl2   Cl    Cl    0.758311 0.655953 0.598982 -0.408546
Cl3   Cl    Cl    0.756970 0.842019 0.604698 -0.364368
Cl4   Cl    Cl    0.241672 0.155935 0.401097 -0.408430
Cl5   Cl    Cl    0.625390 0.013582 0.877065 -0.566853
Cl6   Cl    Cl    0.400567 0.978956 0.151505 -0.700429
Cl7   Cl    Cl    0.374697 0.513606 0.123048 -0.566806
Cl8   Cl    Cl    0.599342 0.478928 0.848431 -0.700524
Cl9   Cl    Cl    0.912193 0.009642 0.749053 -0.450638
Cl10  Cl    Cl    0.076701 0.985210 0.277998 -0.438204
Cl11  Cl    Cl    0.087894 0.509601 0.250806 -0.450668
Cl12  Cl    Cl    0.895310 0.600442 0.395339 -0.359909
Cl13  Cl    Cl    0.923478 0.485209 0.722126 -0.438062
Cl14  Cl    Cl    0.889559 0.896277 0.396080 -0.299042
Cl15  Cl    Cl    0.104738 0.100411 0.604790 -0.359872
Cl16  Cl    Cl    0.136346 0.567890 0.680784 -0.361333
Cl17  Cl    Cl    0.871880 0.430013 0.324623 -0.419213
Cl18  Cl    Cl    0.863713 0.067902 0.319245 -0.361290
Cl19  Cl    Cl    0.128170 0.929971 0.675410 -0.419135
Cl20  Cl    Cl    0.243054 0.342010 0.395258 -0.364372
Cr1   Cr    Cr6+3 0.187610 0.750000 0.979860 1.194796
Cr2   Cr    Cr6+3 0.812390 0.250000 0.020140 1.194759
Cr3   Cr    Cr6+3 0.245810 0.750000 0.341640 1.135949
Cr4   Cr    Cr6+3 0.754190 0.250000 0.658360 1.135917
Cr5   Cr    Cr6+3 0.485760 0.750000 0.219910 1.153006
Cr6   Cr    Cr6+3 0.514240 0.250000 0.780090 1.153027
H1    H     H_    0.330391 0.622159 0.616718 0.152156
H2    H     H_    0.119738 0.947453 0.942424 0.214376
H3    H     H_    0.903397 0.591727 0.910584 0.193938
H4    H     H_    0.880205 0.447443 0.057545 0.214338
H5    H     H_    0.673364 0.375534 0.383512 0.160875
H6    H     H_    0.669611 0.122169 0.383266 0.152156
H7    H     H_    0.326701 0.875517 0.616543 0.160850
H8    H     H_    0.530374 0.093862 0.160161 0.102197
H9    H     H_    0.461456 0.911667 0.836483 0.105443
H10   H     H_    0.469578 0.593847 0.839803 0.102163
H11   H     H_    0.538632 0.411688 0.163580 0.105428
H12   H     H_    0.096489 0.091711 0.089495 0.194061
O1    O     O_R   0.267710 0.668200 0.902110 -0.434403
O2    O     O_R   0.883280 0.330790 0.732340 -0.415180
O3    O     O_R   0.883280 0.169210 0.732340 -0.431968
O4    O     O_R   0.116720 0.830790 0.267660 -0.415153
O5    O     O_R   0.366710 0.675440 0.427590 -0.514054
O6    O     O_R   0.633290 0.324560 0.572410 -0.535977
O7    O     O_R   0.633290 0.175440 0.572410 -0.514054
O8    O     O_R   0.366710 0.824560 0.427590 -0.535942
O9    O     O_R   0.534870 0.669390 0.371760 -0.455717
O10   O     O_R   0.465130 0.330610 0.628240 -0.449536
O11   O     O_R   0.465130 0.169390 0.628240 -0.455746
O12   O     O_R   0.732290 0.331800 0.097890 -0.474715
O13   O     O_R   0.534870 0.830610 0.371760 -0.449578
O14   O     O_R   0.453080 0.674480 0.075160 -0.492467
O15   O     O_R   0.546920 0.325520 0.924840 -0.474865
O16   O     O_R   0.546920 0.174480 0.924840 -0.492468
O17   O     O_R   0.453080 0.825520 0.075160 -0.474918
O18   O     O_3   0.306390 0.750000 0.180470 -0.325709
O19   O     O_3   0.693610 0.250000 0.819530 -0.325719
O20   O     O_R   0.732290 0.168200 0.097890 -0.434424
O21   O     O_R   0.267710 0.831800 0.902110 -0.474661
O22   O     O_R   0.099480 0.674460 0.038850 -0.477861
O23   O     O_R   0.900520 0.325540 0.961150 -0.483820
O24   O     O_R   0.900520 0.174460 0.961150 -0.477916
O25   O     O_R   0.099480 0.825540 0.038850 -0.483866
O26   O     O_R   0.116720 0.669210 0.267660 -0.431994

loop_
_geom_bond_atom_site_label_1
_geom_bond_atom_site_label_2
_ccdc_geom_bond_type
C44   C49   A    
C30   C51   A    
C38   Cl14  S    
Cr4   O3    S    
C22   O1    A    
Cr3   O4    S    
C32   Cl2   S    
C4    C8    D    
C44   H1    S    
C23   O24   A    
Cr5   O13   S    
C7    C8    S    
C20   C30   S    
Cr3   O18   S    
C17   H3    S    
Cr6   O16   S    
C6    Cl5   S    
Cr3   O5    S    
Cr2   O24   S    
C38   C42   A    
C3    C7    D    
C10   C15   D    
C31   C36   A    
C13   Cl11  S    
C5    C6    S    
C29   C54   A    
C37   Cl12  S    
C33   C54   A    
C19   O10   A    
Cr6   O11   S    
C2    H8    S    
C26   O21   A    
C5    C56   D    
C9    Cl10  S    
C56   H9    S    
Cr5   O17   S    
C16   C17   S    
C41   C46   A    
Cr3   O8    S    
C1    O22   A    
C14   H2    S    
Cr4   O2    S    
Cr1   O22   S    
C19   C27   S    
C43   C48   A    
C40   C44   A    
C52   C55   A    
C18   O9    A    
C27   C45   A    
Cr5   O14   S    
C33   Cl3   S    
Cr4   O6    S    
C16   H4    S    
C3    C24   S    
Cr2   O20   S    
C15   H12   S    
C43   Cl19  S    
C42   Cl18  S    
C50   C53   A    
C35   C55   A    
Cr6   O15   S    
C36   C40   A    
Cr2   O23   S    
C18   C28   S    
C36   Cl1   S    
C47   C51   A    
C20   O7    A    
C21   C29   S    
Cr1   O1    S    
C2    C6    D    
C35   Cl4   S    
C1    O26   A    
Cr1   O18   S    
C35   C39   A    
C9    C14   D    
C4    C22   S    
C11   C16   D    
Cr5   O18   S    
C45   C49   A    
C28   C53   A    
Cr3   O26   S    
C11   Cl13  S    
C3    H11   S    
C32   C37   A    
C21   O13   A    
C25   O16   A    
C21   O8    A    
C23   O3    A    
C48   H7    S    
C9    C34   S    
Cr2   O19   S    
C24   O12   A    
C18   O5    A    
C32   C53   A    
C46   H5    S    
Cr5   O9    S    
C10   Cl9   S    
C34   O25   A    
C39   Cl15  S    
C40   Cl16  S    
C20   O11   A    
C24   O15   A    
Cr6   O19   S    
Cr1   O25   S    
C26   C56   S    
C39   C43   A    
C19   O6    A    
C27   C50   A    
C10   C23   S    
C30   C55   A    
C46   C50   A    
C33   C38   A    
C13   C17   D    
Cr4   O7    S    
Cr2   O12   S    
C51   C54   A    
C47   H6    S    
C25   O20   A    
C31   Cl20  S    
C22   O14   A    
C34   O4    A    
C28   C49   A    
C5    Cl6   S    
C2    C25   S    
C42   C47   A    
C37   C41   A    
C7    Cl8   S    
C8    Cl7   S    
C41   Cl17  S    
C12   O23   A    
C48   C52   A    
C1    C13   S    
Cr4   O19   S    
C31   C45   A    
Cr6   O10   S    
C14   C15   S    
C12   O2    A    
Cr1   O21   S    
C26   O17   A    
C11   C12   S    
C4    H10   S    
C29   C52   A    
