data_mof_unit_38926.cif
_audit_creation_date              2013-03-05T16:06:02-0500
_audit_creation_method            fapswitch 2.2
_symmetry_space_group_name_H-M    P1
_symmetry_Int_Tables_number       1
_space_group_crystal_system       triclinic
_cell_length_a                    10.529264
_cell_length_b                    15.041207
_cell_length_c                    15.528146
_cell_angle_alpha                 82.411123
_cell_angle_beta                  89.646052
_cell_angle_gamma                 104.256495
_cell_volume                      2360.70518734

loop_
_atom_site_label
_atom_site_type_symbol
_atom_site_description
_atom_site_fract_x
_atom_site_fract_y
_atom_site_fract_z
_atom_type_partial_charge
O1    O     O_R   0.462600 0.383110 0.605620 -0.621044
O2    O     O_R   0.537400 0.616890 0.394380 -0.622443
O3    O     O_R   0.510210 0.531900 0.639510 -0.591502
O4    O     O_R   0.489790 0.468100 0.360490 -0.593157
C1    C     C_R   0.482705 0.442016 0.661879 0.899091
C2    C     C_R   0.521478 0.558092 0.338188 0.889120
O5    O     O_R   0.662240 0.425610 0.483080 -0.649722
O6    O     O_R   0.337760 0.574390 0.516920 -0.647956
O7    O     O_R   0.709860 0.574400 0.516970 -0.555815
O8    O     O_R   0.290140 0.425600 0.483030 -0.557105
C3    C     C_R   0.742117 0.500438 0.500196 0.940840
C4    C     C_R   0.257871 0.499583 0.499771 0.944793
Zn1   Zn    Zn3+2 0.468210 0.400660 0.477370 1.017751
Zn2   Zn    Zn3+2 0.531790 0.599340 0.522630 1.018375
C5    C     C_3   0.960839 0.509496 0.581074 -0.241333
C6    C     C_3   0.039106 0.490615 0.418844 -0.244678
C7    C     C_3   0.070329 0.581036 0.523171 -0.184030
C8    C     C_3   0.929629 0.419071 0.476742 -0.187980
H1    H     H_    0.130325 0.647509 0.540561 0.203111
H2    H     H_    0.869641 0.352605 0.459332 0.202163
H3    H     H_    0.924941 0.515484 0.646937 0.210085
H4    H     H_    0.074901 0.484713 0.352935 0.209695
C9    C     C_3   0.123002 0.499937 0.499341 -0.164880
C10   C     C_3   0.876962 0.500151 0.500580 -0.162160
C11   C     C_3   0.015688 0.430503 0.555848 0.353930
C12   C     C_3   0.984241 0.569597 0.444072 0.355175
C13   C     C_R   0.490326 0.408411 0.753736 -0.037292
C14   C     C_R   0.547110 0.593669 0.246074 -0.029102
C15   C     C_R   0.535132 0.296443 0.868539 -0.177508
C16   C     C_R   0.580266 0.717426 0.125618 -0.176386
C17   C     C_R   0.506503 0.319661 0.782123 -0.171415
C18   C     C_R   0.561361 0.687385 0.214574 -0.150526
C19   C     C_R   0.499481 0.472072 0.812160 -0.171381
C20   C     C_R   0.559150 0.531694 0.189162 -0.185055
C21   C     C_R   0.540606 0.453634 0.896247 0.087785
C22   C     C_R   0.578564 0.560060 0.099859 0.084414
C23   C     C_R   0.553102 0.363073 0.925729 0.158953
C24   C     C_R   0.584584 0.653856 0.067875 0.165784
C25   C     C_R   0.565955 0.522515 0.952125 0.070193
C26   C     C_R   0.580899 0.495685 0.041395 0.070401
C27   C     C_R   0.595597 0.405257 0.069124 -0.182811
C28   C     C_R   0.578386 0.617397 0.921520 -0.184864
C29   C     C_R   0.583794 0.340584 0.011601 -0.203178
C30   C     C_R   0.590422 0.682225 0.978699 -0.216954
H5    H     H_    0.596133 0.272164 0.034912 0.154577
H6    H     H_    0.598213 0.754075 0.953077 0.154825
H7    H     H_    0.546103 0.459986 0.215372 0.180754
H8    H     H_    0.475045 0.536688 0.790314 0.166699
H9    H     H_    0.554562 0.736720 0.258200 0.164542
H10   H     H_    0.500147 0.269358 0.737425 0.164831
H11   H     H_    0.546442 0.227395 0.890082 0.147441
H12   H     H_    0.587005 0.789540 0.101744 0.145102
H13   H     H_    0.620524 0.383463 0.134468 0.155013
H14   H     H_    0.581981 0.643938 0.853333 0.185052
N1    N     N_R   0.574200 0.731700 0.552740 -0.159453
N2    N     N_R   0.425800 0.268300 0.447260 -0.161733
C31   C     C_R   0.715329 0.849424 0.621032 -0.342607
C32   C     C_R   0.285819 0.151183 0.377758 -0.332140
C33   C     C_R   0.678730 0.758919 0.603174 0.473456
C34   C     C_R   0.325630 0.242453 0.393255 0.478020
C35   C     C_R   0.504790 0.791324 0.517821 -0.130713
C36   C     C_R   0.489670 0.207276 0.486621 -0.128909
C37   C     C_R   0.539154 0.884981 0.532658 0.012588
C38   C     C_R   0.454019 0.113396 0.472697 0.012433
C39   C     C_R   0.646505 0.912675 0.585968 0.098160
C40   C     C_R   0.348978 0.086382 0.417434 0.093668
C41   C     C_R   0.473570 0.952018 0.495196 0.086271
C42   C     C_R   0.517542 0.045895 0.511790 0.088549
C43   C     C_R   0.624172 0.069351 0.566178 -0.208801
C44   C     C_R   0.366653 0.928563 0.441022 -0.205841
C45   C     C_R   0.686851 0.003725 0.602615 -0.146044
C46   C     C_R   0.306354 0.994799 0.402620 -0.142248
H15   H     H_    0.769097 0.024861 0.643402 0.172867
H16   H     H_    0.225106 0.973959 0.360986 0.174259
H17   H     H_    0.565076 0.233984 0.529498 0.148825
H18   H     H_    0.426227 0.763919 0.477398 0.150381
H19   H     H_    0.798784 0.870381 0.660911 0.181084
H20   H     H_    0.205191 0.131120 0.335442 0.181228
H21   H     H_    0.663316 0.138285 0.581498 0.158295
H22   H     H_    0.326670 0.859425 0.426445 0.160720
N3    N     N_R   0.257226 0.307395 0.354285 0.219664
O9    O     O_R   0.299154 0.354372 0.278779 -0.414492
O10   O     O_R   0.136014 0.298150 0.379379 -0.386601
N4    N     N_R   0.756190 0.696876 0.634815 0.220445
O11   O     O_R   0.719257 0.640939 0.706606 -0.433083
O12   O     O_R   0.877891 0.714583 0.607141 -0.381407
N5    N     N_R   0.038372 0.354579 0.617315 0.219678
O13   O     O_R   0.982043 0.269257 0.608289 -0.382188
O14   O     O_R   0.115372 0.371944 0.681449 -0.401934
N6    N     N_R   0.961419 0.645472 0.382593 0.220290
O15   O     O_R   0.017548 0.730819 0.391631 -0.378551
O16   O     O_R   0.884471 0.628034 0.318445 -0.404350

loop_
_geom_bond_atom_site_label_1
_geom_bond_atom_site_label_2
_geom_bond_distance
_ccdc_geom_bond_type
N5    O13   1.300785 A    
C37   C39   1.416751 A    
N1    C33   1.365917 A    
N3    O9    1.299993 A    
C13   C19   1.390783 A    
O5    C3    1.288529 A    
C4    C9    1.421437 S    
C7    C9    1.543499 S    
O1    C1    1.306661 A    
C7    C12   1.533820 S    
C38   C42   1.422446 A    
C21   C23   1.416572 A    
N4    O12   1.300967 A    
C31   C33   1.386079 A    
C32   C34   1.386835 A    
C3    C10   1.420936 S    
C11   N5    1.456527 S    
C16   C24   1.402724 A    
C35   C37   1.415686 A    
O4    Zn1   1.941567 S    
C43   C45   1.381310 A    
C36   C38   1.414995 A    
C19   C21   1.392765 A    
C1    C13   1.458565 S    
C32   C40   1.391957 A    
C40   C46   1.390090 A    
C42   C43   1.411939 A    
O6    Zn2   1.988951 S    
C8    C10   1.543244 S    
C20   C22   1.394288 A    
Zn1   N2    2.047457 S    
Zn2   N1    2.047457 S    
C14   C20   1.392995 A    
C27   C29   1.389555 A    
O2    C2    1.305455 A    
C8    C11   1.533736 S    
C28   C30   1.387230 A    
N3    O10   1.300835 A    
C30   H6    1.084118 S    
C25   C28   1.416968 A    
C35   H18   1.074712 S    
C6    C12   1.535125 S    
C37   C41   1.422990 A    
C44   H22   1.075933 S    
C41   C42   1.431840 A    
C31   H19   1.084815 S    
C14   C18   1.400564 A    
C33   N4    1.426939 S    
C46   H16   1.084608 S    
C31   C39   1.390789 A    
C25   C26   1.412571 A    
C45   H15   1.084664 S    
C39   C45   1.389651 A    
C13   C17   1.400989 A    
N2    C34   1.364518 A    
C38   C40   1.416759 A    
C23   C29   1.391731 A    
C21   C25   1.414798 A    
O7    Zn2   2.004236 S    
C24   C30   1.390444 A    
C29   H5    1.083997 S    
C34   N3    1.426486 S    
N6    O16   1.300679 A    
C22   C26   1.416330 A    
O6    C4    1.288511 A    
N4    O11   1.299074 A    
O7    C3    1.297053 A    
C27   H13   1.078750 S    
O3    Zn2   1.941567 S    
O8    C4    1.297262 A    
O4    C2    1.309873 A    
C5    C10   1.536535 S    
C6    C9    1.536668 S    
N5    O14   1.300657 A    
N2    C36   1.352499 A    
C36   H17   1.074770 S    
C43   H21   1.075831 S    
O1    Zn1   1.972613 S    
C17   H10   1.083071 S    
C15   H11   1.083674 S    
C5    C7    1.554350 S    
C16   H12   1.083779 S    
C26   C27   1.417451 A    
C6    H4    1.110453 S    
C10   C12   1.517066 S    
O3    C1    1.309283 A    
O8    Zn1   2.004234 S    
C12   N6    1.456607 S    
C41   C44   1.412064 A    
C22   C24   1.418289 A    
C15   C17   1.395188 A    
C28   H14   1.078099 S    
C16   C18   1.392583 A    
N6    O15   1.300717 A    
C5    H3    1.110541 S    
N1    C35   1.353400 A    
C7    H1    1.110853 S    
C8    H2    1.110840 S    
C9    C11   1.517182 S    
O2    Zn2   1.972610 S    
C18   H9    1.083067 S    
C5    C11   1.535174 S    
C32   H20   1.084724 S    
C2    C14   1.458451 S    
O5    Zn1   1.988952 S    
C6    C8    1.554267 S    
C15   C23   1.404486 A    
C19   H8    1.078427 S    
C44   C46   1.382234 A    
C20   H7    1.076210 S    
