data_mof_unit_40831.cif
_audit_creation_date              2012-12-11T15:53:56-0500
_audit_creation_method            fapswitch 2.2
_symmetry_space_group_name_H-M    P1
_symmetry_Int_Tables_number       1
_space_group_crystal_system       triclinic
_cell_length_a                    10.696071
_cell_length_b                    10.718081
_cell_length_c                    17.010551
_cell_angle_alpha                 80.654236
_cell_angle_beta                  99.031038
_cell_angle_gamma                 118.917186
_cell_volume                      1677.35237042

loop_
_atom_site_label
_atom_site_type_symbol
_atom_type_description
_atom_site_fract_x
_atom_site_fract_y
_atom_site_fract_z
_atom_type_partial_charge
C1    C     C_R   0.384373 0.284433 0.631800 0.539083
C2    C     C_R   0.510763 0.700705 0.736759 -0.162688
C3    C     C_R   0.488568 0.715869 0.812728 -0.142780
C4    C     C_3   0.092828 0.543535 0.760078 -0.194763
C5    C     C_3   0.115742 0.521433 0.678684 0.027772
C6    C     C_R   0.393390 0.619160 0.684522 -0.012727
C7    C     C_1   0.822181 0.656663 0.706067 -0.057354
C8    C     C_1   0.849697 0.684170 0.773955 -0.062316
C9    C     C_1   0.365064 0.234459 0.714345 -0.049934
C10   C     C_1   0.334240 0.187517 0.781717 -0.048285
C11   C     C_1   0.336398 0.663865 0.277725 -0.054558
C12   C     C_R   0.412655 0.620350 0.601687 0.548404
C13   C     C_1   0.323381 0.672606 0.206914 -0.057297
C14   C     C_R   0.935458 0.717302 0.177144 0.014030
C15   C     C_R   0.966469 0.627973 0.236176 0.006550
C16   C     C_R   0.930943 0.609681 0.313055 0.026651
C17   C     C_R   0.845380 0.783994 0.276319 -0.156648
C18   C     C_R   0.886722 0.805920 0.199538 -0.138244
C19   C     C_3   0.929018 0.475204 0.236561 -0.271293
C20   C     C_3   0.893536 0.454485 0.321964 -0.273729
C21   C     C_R   0.858050 0.677901 0.332207 0.010537
C22   C     C_R   0.338115 0.181219 0.155525 0.022267
C23   C     C_R   0.776864 0.619105 0.626795 0.535527
C24   C     C_R   0.267559 0.246505 0.179836 -0.014880
C25   C     C_R   0.269716 0.252906 0.259032 0.030031
C26   C     C_R   0.442071 0.166502 0.292549 -0.164695
C27   C     C_R   0.438245 0.155446 0.211362 -0.156520
C28   C     C_3   0.120464 0.235687 0.163215 -0.223805
C29   C     C_3   0.126059 0.245673 0.252252 0.016524
C30   C     C_R   0.345908 0.202909 0.317412 0.013735
C31   C     C_R   0.891149 0.701586 0.856078 0.557561
C32   C     C_R   0.315815 0.705885 0.898663 0.550250
C33   C     C_R   0.286786 0.118674 0.858519 0.552408
C34   C     C_R   0.353715 0.230775 0.398134 0.552716
C35   C     C_R   0.956747 0.720069 0.094895 0.572877
C36   C     C_R   0.312958 0.700246 0.123725 0.543325
C37   C     C_R   0.287742 0.111063 0.083416 0.544754
C38   C     C_R   0.365514 0.654218 0.360793 0.563538
C39   C     C_R   0.774829 0.623860 0.400699 0.550330
C40   C     C_R   0.348295 0.651373 0.836031 0.008963
C41   C     C_R   0.236450 0.552709 0.788571 -0.018883
C42   C     C_R   0.258979 0.534334 0.714254 0.030553
Cr1   Cr    Cr6+3 0.608440 0.389080 0.519680 1.024472
Cr2   Cr    Cr6+3 0.288640 0.400090 0.490760 0.987021
Cr3   Cr    Cr6+3 0.602940 0.710800 0.489510 0.999350
Cr4   Cr    Cr6+3 0.052530 0.947560 0.964210 1.005764
Cr5   Cr    Cr6+3 0.059970 0.626800 0.992920 1.002746
Cr6   Cr    Cr6+3 0.373320 0.938440 0.995370 1.020502
H1    H     H_    0.617342 0.761209 0.716714 0.136749
H2    H     H_    0.833214 0.416048 0.195221 0.159623
H3    H     H_    0.778222 0.380166 0.329046 0.157126
H4    H     H_    0.969971 0.432449 0.366577 0.137066
H5    H     H_    0.514278 0.140478 0.335526 0.129069
H6    H     H_    0.502114 0.112496 0.194248 0.143169
H7    H     H_    0.036394 0.131256 0.143204 0.173479
H8    H     H_    0.121670 0.331031 0.125376 0.120876
H9    H     H_    0.137010 0.346284 0.268679 0.145652
H10   H     H_    0.578583 0.789309 0.849386 0.144765
H11   H     H_    0.093698 0.647626 0.760079 0.119438
H12   H     H_    0.003843 0.451337 0.790575 0.163264
H13   H     H_    0.124450 0.610800 0.632289 0.141086
H14   H     H_    0.788681 0.838208 0.288361 0.155272
H15   H     H_    0.865917 0.881018 0.156157 0.146693
H16   H     H_    0.024343 0.465351 0.229819 0.132813
O1    O     O_R   0.754020 0.497590 0.609930 -0.494526
O2    O     O_R   0.295080 0.533620 0.397890 -0.508951
O3    O     O_R   0.485280 0.746620 0.388440 -0.510289
O4    O     O_R   0.720550 0.696220 0.420010 -0.509149
O5    O     O_3   0.500010 0.499990 0.499980 -0.286632
O6    O     O_R   0.163320 0.092900 0.874450 -0.517287
O7    O     O_R   0.934650 0.822080 0.882840 -0.492471
O8    O     O_R   0.915520 0.604140 0.893670 -0.511899
O9    O     O_R   0.191760 0.638110 0.923230 -0.503242
O10   O     O_R   0.406180 0.826930 0.920660 -0.513182
O11   O     O_R   0.358620 0.062870 0.901950 -0.486807
O12   O     O_R   0.481420 0.271390 0.600630 -0.475619
O13   O     O_R   0.163910 0.085460 0.050210 -0.533638
O14   O     O_R   0.935200 0.815170 0.045770 -0.508435
O15   O     O_R   0.916120 0.596690 0.069430 -0.515972
O16   O     O_R   0.192310 0.631200 0.086170 -0.527335
O17   O     O_R   0.406770 0.819480 0.096420 -0.509685
O18   O     O_R   0.359170 0.055960 0.064880 -0.510402
O19   O     O_3   0.161940 0.837600 0.984160 -0.270702
O20   O     O_R   0.263810 0.254550 0.589590 -0.520779
O21   O     O_R   0.300820 0.531200 0.560890 -0.514585
O22   O     O_R   0.491480 0.744020 0.564270 -0.503600
O23   O     O_R   0.726290 0.693800 0.583010 -0.523135
O24   O     O_R   0.747830 0.500190 0.434090 -0.519872
O25   O     O_R   0.475680 0.273800 0.437630 -0.495587
O26   O     O_R   0.257620 0.257160 0.413750 -0.514603
N1    N     N_2   0.018766 0.115343 0.292242 -0.513743
H17   H     H_    0.056244 0.051851 0.329126 0.276073
C43   C     C_3   0.913509 0.132891 0.326545 -0.309188
H18   H     H_    0.834228 0.028343 0.354090 0.144616
H19   H     H_    0.855489 0.175121 0.279318 0.147826
H20   H     H_    0.966725 0.206591 0.374159 0.152023
N2    N     N_2   0.013648 0.381372 0.651915 -0.492526
H21   H     H_    0.012185 0.378328 0.591482 0.262413
C44   C     C_3   0.004972 0.252118 0.698975 -0.256745
H22   H     H_    0.914871 0.156997 0.672554 0.139140
H23   H     H_    0.984735 0.247416 0.761553 0.153435
H24   H     H_    0.105272 0.246187 0.698553 0.172078

loop_
_geom_bond_atom_site_label_1
_geom_bond_atom_site_label_2
_ccdc_geom_bond_type
C5    C42   S    
C43   H18   S    
C39   O4    A    
C14   C18   A    
Cr2   O2    S    
C19   C20   S    
Cr5   O15   S    
N2    H21   S    
C28   H8    S    
C27   H6    S    
C7    C8    T    
C1    O20   A    
C15   C19   S    
C26   C27   A    
C16   C21   A    
C12   O21   A    
Cr1   O24   S    
C39   O24   A    
C28   C29   S    
Cr3   O23   S    
C20   H3    S    
C6    C12   S    
C18   H15   S    
C4    C41   S    
C15   C16   A    
Cr1   O12   S    
Cr6   O17   S    
C41   C42   A    
C33   O11   A    
C38   O2    A    
Cr3   O3    S    
Cr5   O19   S    
C9    C10   T    
C19   H16   S    
Cr1   O1    S    
C31   O7    A    
Cr1   O5    S    
C23   O23   A    
C8    C31   S    
Cr6   O11   S    
C2    C6    A    
Cr5   O16   S    
N2    C44   S    
C28   H7    S    
C25   C29   S    
C30   C34   S    
Cr3   O5    S    
Cr6   O10   S    
C1    C9    S    
C24   C25   A    
Cr5   O9    S    
C13   C36   S    
C36   O16   A    
C14   C35   S    
Cr4   O14   S    
C22   C37   S    
C37   O13   A    
C17   C21   A    
C11   C38   S    
C34   O26   A    
C2    H1    S    
C17   H14   S    
N1    C43   S    
C44   H22   S    
C21   C39   S    
C36   O17   A    
C16   C20   S    
C4    H12   S    
Cr3   O4    S    
C17   C18   A    
C5    H13   S    
Cr2   O5    S    
Cr1   O25   S    
Cr4   O7    S    
C33   O6    A    
C31   O8    A    
C44   H23   S    
C29   H9    S    
C3    C40   A    
C26   C30   A    
C43   H20   S    
C22   C27   A    
C22   C24   A    
C37   O18   A    
Cr2   O21   S    
C26   H5    S    
N1    H17   S    
Cr2   O26   S    
C25   C30   A    
C40   C41   A    
C1    O12   A    
C24   C28   S    
C5    N2    S    
C4    C5    S    
Cr2   O20   S    
Cr4   O13   S    
C35   O14   A    
Cr6   O19   S    
C12   O22   A    
C23   O1    A    
C2    C3    A    
C34   O25   A    
C20   H4    S    
C32   O10   A    
C11   C13   T    
C19   H2    S    
C7    C23   S    
C4    H11   S    
C35   O15   A    
Cr6   O18   S    
Cr3   O22   S    
C10   C33   S    
C32   C40   S    
Cr5   O8    S    
Cr4   O6    S    
Cr4   O19   S    
C3    H10   S    
C44   H24   S    
C38   O3    A    
C43   H19   S    
C6    C42   A    
C14   C15   A    
C32   O9    A    
C29   N1    S    
