data_mof_unit_26703.cif
_audit_creation_date              2012-12-10T16:56:29-0500
_audit_creation_method            fapswitch 2.2
_symmetry_space_group_name_H-M    P1
_symmetry_Int_Tables_number       1
_space_group_crystal_system       triclinic
_cell_length_a                    7.773355
_cell_length_b                    8.574005
_cell_length_c                    15.704886
_cell_angle_alpha                 90.847339
_cell_angle_beta                  85.89491
_cell_angle_gamma                 93.646142
_cell_volume                      1041.85778443

loop_
_atom_site_label
_atom_site_type_symbol
_atom_type_description
_atom_site_fract_x
_atom_site_fract_y
_atom_site_fract_z
_atom_type_partial_charge
Br1   Br    Br    0.360914 0.830266 0.074882 -0.464794
Br2   Br    Br    0.639086 0.169735 0.925118 -0.464794
C1    C     C_R   0.545771 0.794719 0.497805 0.964822
C2    C     C_3   0.392666 0.380480 0.030170 -0.210008
C3    C     C_1   0.506475 0.499566 0.750713 -0.139387
C4    C     C_1   0.493525 0.500434 0.249287 -0.139388
C5    C     C_3   0.339436 0.516431 0.975586 -0.237896
C6    C     C_3   0.660564 0.483570 0.024414 -0.237896
C7    C     C_3   0.504099 0.499667 0.916992 0.057283
C8    C     C_3   0.495901 0.500335 0.083008 0.057283
C9    C     C_1   0.506995 0.499460 0.826027 0.034827
C10   C     C_1   0.493005 0.500540 0.173973 0.034828
C11   C     C_R   0.454229 0.205281 0.502194 0.964822
C12   C     C_R   0.502182 0.500012 0.661947 0.901582
C13   C     C_R   0.497818 0.499988 0.338053 0.901582
C14   C     C_2   0.569852 0.958217 0.496556 -0.357922
C15   C     C_2   0.430148 0.041783 0.503444 -0.357922
C16   C     C_3   0.443254 0.634898 0.029886 0.355094
C17   C     C_3   0.556746 0.365103 0.970114 0.355093
C18   C     C_3   0.607334 0.619521 0.969830 -0.210008
H1    H     H_    0.694132 0.717616 0.943421 0.200844
H2    H     H_    0.305868 0.282385 0.056579 0.200844
H3    H     H_    0.791385 0.469140 0.046153 0.182384
H4    H     H_    0.208615 0.530861 0.953847 0.182384
H5    H     H_    0.701794 0.009281 0.489987 0.183049
H6    H     H_    0.298206 0.990719 0.510013 0.183049
H7    H     H_    0.013367 0.382008 0.436426 0.197309
H8    H     H_    0.986633 0.617992 0.563574 0.197308
N1    N     N_2   0.950320 0.457950 0.477300 -0.168393
N2    N     N_2   0.049680 0.542050 0.522700 -0.168393
O1    O     O_R   0.389250 0.738570 0.505570 -0.612605
O2    O     O_R   0.610750 0.261430 0.494430 -0.612605
O3    O     O_R   0.678390 0.711630 0.491020 -0.629046
O4    O     O_R   0.321610 0.288370 0.508980 -0.629046
O5    O     O_R   0.355460 0.513480 0.630490 -0.607859
O6    O     O_R   0.644540 0.486520 0.369510 -0.607859
O7    O     O_R   0.644600 0.486540 0.615950 -0.617959
O8    O     O_R   0.355400 0.513460 0.384050 -0.617959
Zn1   Zn    Zn3+2 0.306940 0.517990 0.509710 0.968677
Zn2   Zn    Zn3+2 0.693060 0.482010 0.490290 0.968677

loop_
_geom_bond_atom_site_label_1
_geom_bond_atom_site_label_2
_ccdc_geom_bond_type
O5    Zn1   S    
C13   O8    A    
N1    N2    D    
H7    N1    S    
C2    H2    S    
C11   O2    A    
C11   C15   S    
C5    C16   S    
H8    N2    S    
Br1   C16   S    
C11   O4    A    
C12   O7    A    
C1    O1    A    
C7    C9    S    
C3    C12   S    
C6    C18   S    
C8    C10   S    
C8    C16   S    
C2    C5    S    
C15   H6    S    
N1    Zn2   S    
O1    Zn1   S    
N2    Zn1   S    
C3    C9    T    
O7    Zn2   S    
C16   C18   S    
O2    Zn2   S    
C4    C10   T    
O8    Zn1   S    
O3    Zn2   S    
C1    O3    A    
C2    C8    S    
C5    H4    S    
C6    C17   S    
C13   O6    A    
C12   O5    A    
C6    H3    S    
C18   H1    S    
C6    C8    S    
C14   H5    S    
C5    C7    S    
O6    Zn2   S    
C7    C18   S    
C4    C13   S    
Br2   C17   S    
C2    C17   S    
C7    C17   S    
C1    C14   S    
O4    Zn1   S    
C14   C15   D    
