data_mof_unit_47954.cif
_audit_creation_date              2012-12-10T20:32:46-0500
_audit_creation_method            fapswitch 2.2
_symmetry_space_group_name_H-M    P1
_symmetry_Int_Tables_number       1
_space_group_crystal_system       triclinic
_cell_length_a                    11.519943
_cell_length_b                    10.66003
_cell_length_c                    9.914537
_cell_angle_alpha                 90.841106
_cell_angle_beta                  89.219619
_cell_angle_gamma                 90.216505
_cell_volume                      1217.28236547

loop_
_atom_site_label
_atom_site_type_symbol
_atom_type_description
_atom_site_fract_x
_atom_site_fract_y
_atom_site_fract_z
_atom_type_partial_charge
C1    C     C_R   0.500454 0.260677 0.498861 0.910179
C2    C     C_R   0.584143 0.561074 0.069535 0.221747
C3    C     C_R   0.585938 0.556545 0.926641 -0.100263
C4    C     C_R   0.282054 0.500183 0.500764 0.908065
C5    C     C_R   0.414723 0.439543 0.929984 0.126999
C6    C     C_3   0.287273 0.469225 0.933712 -0.143318
C7    C     C_3   0.290265 0.449187 0.085563 -0.065331
C8    C     C_R   0.496245 0.739544 0.500898 0.926898
C9    C     C_R   0.717956 0.500161 0.499298 0.930507
C10   C     C_1   0.161584 0.500719 0.502019 -0.144189
C11   C     C_1   0.059352 0.501019 0.501197 0.036584
C12   C     C_R   0.503057 0.129158 0.493706 -0.128133
C13   C     C_1   0.940699 0.501002 0.499246 0.054751
C14   C     C_1   0.838458 0.500681 0.498240 -0.112093
C15   C     C_R   0.582453 0.064703 0.569702 0.019753
C16   C     C_3   0.258461 0.606952 0.900490 -0.373965
C17   C     C_3   0.127571 0.628339 0.901933 -0.754317
C18   C     C_R   0.429253 0.064980 0.405579 -0.187306
C19   C     C_R   0.423617 0.935288 0.408823 0.173906
C20   C     C_R   0.493989 0.871708 0.500906 -0.140538
C21   C     C_R   0.576714 0.937523 0.575303 -0.001801
C22   C     C_3   0.613560 0.937335 0.720142 0.246615
C23   C     C_3   0.621232 0.080953 0.711574 -0.046777
C24   C     C_R   0.418403 0.432561 0.071855 0.125319
H1    H     H_    0.371239 0.115598 0.340938 0.199645
H2    H     H_    0.293496 0.632790 0.800476 0.265122
H3    H     H_    0.235655 0.398258 0.876870 0.211132
H4    H     H_    0.265641 0.532504 0.148159 0.191426
H5    H     H_    0.555149 0.130648 0.774974 0.170440
H6    H     H_    0.653637 0.604664 0.871429 0.195033
H7    H     H_    0.085543 0.567388 0.824821 0.259201
H8    H     H_    0.090021 0.607380 0.002928 0.276050
H9    H     H_    0.109234 0.727798 0.878477 0.274817
H10   H     H_    0.299290 0.672647 0.974179 0.239287
I1    I     I_    0.206710 0.279102 0.146596 -0.294520
I2    I     I_    0.296712 0.846290 0.285357 -0.290911
I3    I     I_    0.480750 0.882213 0.862143 -0.326302
I4    I     I_    0.771413 0.833058 0.742479 -0.261574
I5    I     I_    0.788399 0.171126 0.717206 -0.244563
I6    I     I_    0.708655 0.681986 0.158139 -0.221662
N1    N     N_R   0.499240 0.499140 0.142800 -0.142258
N2    N     N_R   0.499240 0.499180 0.857150 -0.125126
O1    O     O_R   0.500010 0.316790 0.614690 -0.615931
O2    O     O_R   0.500000 0.316760 0.385350 -0.601893
O3    O     O_R   0.334450 0.500030 0.614670 -0.636774
O4    O     O_R   0.334440 0.500000 0.385330 -0.608970
O5    O     O_R   0.500000 0.683240 0.614650 -0.608011
O6    O     O_R   0.499990 0.683210 0.385310 -0.581172
O7    O     O_R   0.665560 0.500000 0.614670 -0.602783
O8    O     O_R   0.665550 0.499970 0.385330 -0.592118
Zn1   Zn    Zn3+2 0.500010 0.500020 0.653130 0.975129
Zn2   Zn    Zn3+2 0.499990 0.499980 0.346870 1.013994

loop_
_geom_bond_atom_site_label_1
_geom_bond_atom_site_label_2
_ccdc_geom_bond_type
C3    H6    S    
O8    Zn2   S    
C9    C14   S    
C8    O6    A    
C3    N2    A    
C6    C7    S    
C4    O3    A    
C2    I6    S    
C6    C16   S    
C9    O8    A    
N1    Zn2   S    
C19   C20   A    
C12   C15   A    
C15   C21   A    
N2    Zn1   S    
C5    N2    A    
O2    Zn2   S    
C15   C23   S    
C2    C3    A    
C8    O5    A    
C4    O4    A    
C21   C22   S    
C24   N1    A    
C11   C13   S    
O1    Zn1   S    
C8    C20   S    
C5    C24   A    
C17   H9    S    
C23   I5    S    
C23   H5    S    
C19   I2    S    
C16   H2    S    
C5    C6    S    
C17   H7    S    
C18   H1    S    
C10   C11   T    
O3    Zn1   S    
C2    N1    A    
C4    C10   S    
C7    C24   S    
C22   I4    S    
O4    Zn2   S    
O6    Zn2   S    
C9    O7    A    
C20   C21   A    
C18   C19   A    
C12   C18   A    
C17   H8    S    
C22   C23   S    
O5    Zn1   S    
C1    O2    A    
C16   H10   S    
C13   C14   T    
C22   I3    S    
C7    I1    S    
C1    O1    A    
C1    C12   S    
C7    H4    S    
C6    H3    S    
C16   C17   S    
O7    Zn1   S    
