data_mof_unit_54003.cif
_audit_creation_date              2013-03-05T15:55:27-0500
_audit_creation_method            fapswitch 2.2
_symmetry_space_group_name_H-M    P1
_symmetry_Int_Tables_number       1
_space_group_crystal_system       triclinic
_cell_length_a                    11.00472
_cell_length_b                    12.350456
_cell_length_c                    13.358045
_cell_angle_alpha                 116.423182
_cell_angle_beta                  75.422306
_cell_angle_gamma                 101.323711
_cell_volume                      1566.0593768

loop_
_atom_site_label
_atom_site_type_symbol
_atom_site_description
_atom_site_fract_x
_atom_site_fract_y
_atom_site_fract_z
_atom_type_partial_charge
O1    O     O_R   0.537340 0.972510 0.318130 -0.568314
O2    O     O_R   0.487200 0.806530 0.359650 -0.636245
C1    C     C_R   0.508644 0.854627 0.287201 0.892449
O3    O     O_R   0.707380 0.082980 0.479220 -0.521901
O4    O     O_R   0.657240 0.917000 0.520740 -0.555401
C2    C     C_R   0.738820 0.004745 0.506727 0.973418
Cu1   Cu    Cu3+1 0.529690 0.098270 0.475420 1.067838
Cu2   Cu    Cu3+1 0.470310 0.901730 0.524580 1.051940
O5    O     O_R   0.512800 0.193470 0.640350 -0.552746
O6    O     O_R   0.462660 0.027490 0.681870 -0.543351
O7    O     O_R   0.342760 0.083000 0.479260 -0.568071
O8    O     O_R   0.292620 0.917020 0.520780 -0.547053
C3    C     C_R   0.484316 0.145027 0.713692 0.893811
C4    C     C_R   0.259703 0.003770 0.505212 1.029851
C5    C     C_3   0.968689 0.068897 0.431437 0.019286
H1    H     H_    0.966670 0.004454 0.342274 0.249681
C6    C     C_3   0.105545 0.090956 0.452414 0.147697
H2    H     H_    0.117642 0.187336 0.514504 0.159416
H3    H     H_    0.904775 0.178649 0.649657 0.152155
C7    C     C_3   0.905712 0.084099 0.635009 0.027454
C8    C     C_3   0.912833 0.870709 0.465701 0.469466
C9    C     C_3   0.877074 0.006715 0.509424 -0.371903
C10   C     C_3   0.121104 0.007823 0.510516 -0.417569
C11   C     C_3   0.046185 0.073182 0.640986 0.401773
C12   C     C_3   0.062347 0.871665 0.437626 0.387015
C13   C     C_R   0.375555 0.269131 0.033564 -0.214968
H4    H     H_    0.304317 0.439300 0.237867 0.159874
H5    H     H_    0.340858 0.239841 0.101298 0.139124
C14   C     C_R   0.464786 0.227785 0.836482 -0.174573
C15   C     C_R   0.537718 0.818429 0.084480 -0.104443
C16   C     C_R   0.537530 0.744175 0.970303 -0.183416
C17   C     C_R   0.504387 0.620203 0.934883 -0.127948
C18   C     C_R   0.471547 0.567171 0.013674 0.127314
C19   C     C_R   0.453010 0.645940 0.131575 0.107867
C20   C     C_R   0.451482 0.438738 0.979617 -0.003235
C21   C     C_R   0.392078 0.393497 0.062124 0.064452
C22   C     C_R   0.354317 0.473022 0.174708 -0.109317
C23   C     C_R   0.383985 0.596708 0.208867 -0.089277
C24   C     C_R   0.497455 0.353988 0.868551 0.318030
C25   C     C_R   0.408488 0.184158 0.920888 0.458942
C26   C     C_R   0.499178 0.771609 0.166841 -0.039316
H6    H     H_    0.564125 0.913698 0.108571 0.214637
H7    H     H_    0.499579 0.568623 0.845993 0.196729
H8    H     H_    0.563756 0.783034 0.908569 0.175023
H9    H     H_    0.346182 0.651221 0.296013 0.224032
C27   C     C_R   0.691921 0.341796 0.316674 0.224408
N1    N     N_R   0.574690 0.246280 0.438200 -0.263409
C28   C     C_R   0.328691 0.761036 0.648684 0.171905
C29   C     C_R   0.290367 0.664771 0.681106 -0.248924
C30   C     C_R   0.354538 0.560795 0.625790 -0.177155
C31   C     C_R   0.453584 0.549147 0.532612 0.034862
C32   C     C_R   0.484064 0.647622 0.498707 0.198825
C33   C     C_R   0.523759 0.444216 0.471423 -0.131548
C34   C     C_R   0.612579 0.435804 0.371381 -0.163626
C35   C     C_R   0.620842 0.521604 0.327189 0.318801
C36   C     C_R   0.570301 0.630993 0.397629 -0.304051
C37   C     C_R   0.510214 0.346849 0.504418 -0.031621
C38   C     C_R   0.661464 0.240814 0.342235 0.420837
N2    N     N_R   0.426100 0.754320 0.561190 -0.210040
H10   H     H_    0.444494 0.346923 0.579356 0.188000
H11   H     H_    0.279371 0.841281 0.692762 0.181371
H12   H     H_    0.322647 0.489708 0.655158 0.172659
H13   H     H_    0.211865 0.671759 0.750712 0.175011
H14   H     H_    0.611008 0.704409 0.375947 0.258091
N3    N     N_R   0.933606 0.183536 0.441672 0.157534
O9    O     O_R   0.903040 0.272774 0.539918 -0.410426
O10   O     O_R   0.963428 0.207520 0.352524 -0.291912
N4    N     N_R   0.094862 0.775525 0.462301 0.128805
O11   O     O_R   0.086853 0.786896 0.565141 -0.334222
O12   O     O_R   0.115220 0.668957 0.379903 -0.302866
N5    N     N_R   0.807876 0.075337 0.731040 0.172149
O13   O     O_R   0.811473 0.158776 0.833518 -0.248454
O14   O     O_R   0.713380 0.991757 0.717501 -0.293515
N6    N     N_R   0.053352 0.007767 0.708401 0.208484
O15   O     O_R   0.159642 0.019319 0.739513 -0.388775
O16   O     O_R   0.955022 0.956407 0.754209 -0.227917
O17   O     O_3   0.411911 0.062629 0.896019 -0.539927
C39   C     C_3   0.295382 0.008726 0.936011 0.098040
H15   H     H_    0.231992 0.979938 0.874749 0.207679
H16   H     H_    0.243245 0.067930 0.019540 0.151767
C40   C     C_3   0.319301 0.896663 0.945502 -0.743997
H17   H     H_    0.372035 0.923040 0.014616 0.254286
H18   H     H_    0.228382 0.844864 0.963562 0.242427
H19   H     H_    0.377251 0.837750 0.865529 0.241862
O18   O     O_3   0.584321 0.393153 0.793776 -0.605981
C41   C     C_3   0.707092 0.396359 0.810334 0.127794
H20   H     H_    0.740244 0.304678 0.759735 0.185679
H21   H     H_    0.712384 0.425844 0.901380 0.202477
C42   C     C_3   0.795521 0.485591 0.769225 -0.672642
H22   H     H_    0.769519 0.579473 0.824296 0.233250
H23   H     H_    0.894174 0.481159 0.772549 0.244589
H24   H     H_    0.789104 0.463093 0.680433 0.274002
N7    N     N_R   0.705748 0.128087 0.255771 0.138909
O19   O     O_R   0.768791 0.063989 0.275934 -0.264167
O20   O     O_R   0.695675 0.096232 0.151164 -0.330813
N8    N     N_R   0.670312 0.494712 0.208486 0.173302
O21   O     O_R   0.705440 0.581968 0.174856 -0.287778
O22   O     O_R   0.650386 0.384973 0.131885 -0.326745
N9    N     N_R   0.813859 0.358010 0.250623 0.187336
O23   O     O_R   0.847415 0.282594 0.145283 -0.169354
O24   O     O_R   0.896979 0.442881 0.300565 -0.284270
O25   O     O_3   0.192568 0.070076 0.348030 -0.507842
C43   C     C_3   0.257050 0.179907 0.344135 0.139997
H25   H     H_    0.290277 0.242743 0.424612 0.143686
H26   H     H_    0.195554 0.227256 0.325720 0.193192
C44   C     C_3   0.372615 0.151142 0.250431 -0.730632
H27   H     H_    0.342844 0.096091 0.167964 0.242250
H28   H     H_    0.427425 0.236440 0.249525 0.198299
H29   H     H_    0.432991 0.098744 0.263672 0.275310
N10   N     N_R   0.103175 0.199340 0.701658 0.085343
O26   O     O_R   0.041520 0.271128 0.798554 -0.265764
O27   O     O_R   0.222496 0.231592 0.675717 -0.416934
O28   O     O_3   0.865217 0.840760 0.561947 -0.538025
C45   C     C_3   0.817541 0.719634 0.542289 0.258218
H30   H     H_    0.887337 0.653828 0.487007 0.225651
H31   H     H_    0.733774 0.696687 0.505810 0.137790
C46   C     C_3   0.776679 0.707593 0.654762 -0.695973
H32   H     H_    0.728548 0.615329 0.639704 0.173540
H33   H     H_    0.859905 0.721429 0.693364 0.282972
H34   H     H_    0.709477 0.774998 0.714683 0.275645
N11   N     N_R   0.858487 0.782783 0.363840 0.087255
O29   O     O_R   0.888724 0.671617 0.312915 -0.259269
O30   O     O_R   0.807189 0.819538 0.307899 -0.343413
N12   N     N_R   0.119801 0.840519 0.314892 0.171409
O31   O     O_R   0.239645 0.827860 0.281824 -0.377555
O32   O     O_R   0.057930 0.823509 0.237207 -0.256379

loop_
_geom_bond_atom_site_label_1
_geom_bond_atom_site_label_2
_geom_bond_distance
_ccdc_geom_bond_type
C35   C36   1.385710 A    
N7    O19   1.296174 A    
C29   H13   1.082502 S    
C20   C21   1.412868 A    
C27   N9    1.440489 S    
C11   N6    1.475867 S    
C45   H30   1.105117 S    
Cu1   Cu2   2.707407 S    
O17   C39   1.417563 S    
Cu1   O7    2.018179 S    
C19   C26   1.431454 A    
C6    C10   1.590913 S    
N6    O16   1.300118 A    
C3    C14   1.482560 S    
C21   C22   1.389306 A    
C38   N7    1.435886 S    
C46   H33   1.109846 S    
Cu2   N2    2.028584 S    
C15   C16   1.386792 A    
O7    C4    1.305490 A    
C41   H21   1.117274 S    
C44   H27   1.100341 S    
C5    H1    1.102383 S    
C2    C9    1.526094 S    
C6    H2    1.112302 S    
O5    C3    1.307476 A    
N10   O26   1.301754 A    
C23   H9    1.072458 S    
C5    C9    1.603361 S    
C7    C11   1.602437 S    
C33   C34   1.418046 A    
N4    O11   1.298801 A    
N3    O10   1.300986 A    
C8    O28   1.439545 S    
N8    O22   1.301536 A    
C10   C11   1.629344 S    
C36   H14   1.056224 S    
C15   C26   1.399875 A    
C42   H23   1.110568 S    
N7    O20   1.300476 A    
O1    Cu1   1.972807 S    
C8    C9    1.608808 S    
C27   C38   1.393404 A    
C14   C24   1.416128 A    
C12   N4    1.490331 S    
O3    Cu1   2.016295 S    
C40   H18   1.110419 S    
C18   C19   1.421631 A    
C16   H8    1.082458 S    
C31   C32   1.431920 A    
C11   N10   1.492022 S    
C43   H26   1.108013 S    
N6    O15   1.299093 A    
C46   H34   1.109684 S    
N5    O14   1.298703 A    
C33   C37   1.425053 A    
C39   H15   1.101700 S    
C37   H10   1.077090 S    
O18   C41   1.413321 S    
C41   C42   1.520365 S    
C40   H17   1.105920 S    
O1    C1    1.319038 A    
Cu1   N1    2.040449 S    
C4    C10   1.518655 S    
C20   C24   1.414470 A    
C6    O25   1.425703 S    
C22   C23   1.380968 A    
C32   N2    1.386809 A    
N1    C37   1.371479 A    
C16   C17   1.387085 A    
Cu2   O8    2.016294 S    
N8    O21   1.300930 A    
C27   C34   1.402212 A    
C30   C31   1.406141 A    
C7    N5    1.482904 S    
C42   H24   1.109124 S    
N11   O29   1.301046 A    
O3    C2    1.303679 A    
C28   C29   1.395849 A    
N9    O24   1.299528 A    
O8    C4    1.308048 A    
N3    O9    1.298553 A    
C30   H12   1.078940 S    
C24   O18   1.383199 S    
C40   H19   1.106722 S    
C41   H20   1.108612 S    
C28   N2    1.356437 A    
N12   O32   1.300032 A    
O28   C45   1.411966 S    
C13   C21   1.393395 A    
Cu1   O5    1.960884 S    
C8    C12   1.591752 S    
C34   C35   1.404100 A    
C1    C26   1.490736 S    
C19   C23   1.412535 A    
O2    Cu2   1.960886 S    
C7    C9    1.596210 S    
C35   N8    1.445232 S    
O6    C3    1.307929 A    
O4    Cu2   2.018181 S    
C45   H31   1.080808 S    
C5    C6    1.550591 S    
C13   H5    1.076317 S    
N9    O23   1.300378 A    
C17   C18   1.412955 A    
H3    C7    1.096525 S    
O2    C1    1.298760 A    
N5    O13   1.301226 A    
C46   H32   1.109992 S    
N1    C38   1.375430 A    
C39   C40   1.522141 S    
C13   C25   1.402522 A    
C28   H11   1.074470 S    
O4    C2    1.315030 A    
C44   H28   1.109915 S    
H4    C22   1.084928 S    
C14   C25   1.415413 A    
C18   C20   1.429176 A    
C17   H7    1.078756 S    
C43   C44   1.513501 S    
C39   H16   1.106885 S    
C10   C12   1.620700 S    
C8    N11   1.492605 S    
O25   C43   1.418612 S    
C12   N12   1.499349 S    
N10   O27   1.300523 A    
N11   O30   1.303095 A    
C45   C46   1.521223 S    
Cu2   O6    1.972807 S    
C29   C30   1.393799 A    
C43   H25   1.111558 S    
N4    O12   1.302425 A    
C25   O17   1.391661 S    
C15   H6    1.071560 S    
C31   C33   1.441000 A    
C42   H22   1.110249 S    
C32   C36   1.396628 A    
N12   O31   1.298144 A    
C44   H29   1.105155 S    
C5    N3    1.479249 S    
