data_mof_unit_34765.cif
_audit_creation_date              2013-03-05T16:48:43-0500
_audit_creation_method            fapswitch 2.2
_symmetry_space_group_name_H-M    P1
_symmetry_Int_Tables_number       1
_space_group_crystal_system       triclinic
_cell_length_a                    27.479308
_cell_length_b                    8.943392
_cell_length_c                    8.07388
_cell_angle_alpha                 90.016649
_cell_angle_beta                  90.051019
_cell_angle_gamma                 92.476479
_cell_volume                      1982.36833431

loop_
_atom_site_label
_atom_site_type_symbol
_atom_site_description
_atom_site_fract_x
_atom_site_fract_y
_atom_site_fract_z
_atom_type_partial_charge
O1    O     O_R   0.500000 0.285350 0.636850 -0.620863
O2    O     O_R   0.500000 0.714650 0.363150 -0.619449
O3    O     O_R   0.500000 0.714650 0.636850 -0.610913
O4    O     O_R   0.500000 0.285350 0.363150 -0.612005
C1    C     C_R   0.500099 0.217850 0.500016 1.009557
C2    C     C_R   0.499642 0.782110 0.500061 1.007658
O5    O     O_R   0.428760 0.500000 0.636860 -0.604221
O6    O     O_R   0.571240 0.500000 0.363140 -0.621111
O7    O     O_R   0.571240 0.500000 0.636860 -0.599398
O8    O     O_R   0.428760 0.500000 0.363140 -0.617803
C3    C     C_R   0.405472 0.494860 0.499624 1.002331
C4    C     C_R   0.594546 0.504181 0.499784 1.008355
Zn1   Zn    Zn3+2 0.500000 0.500000 0.682780 1.047956
Zn2   Zn    Zn3+2 0.500000 0.500000 0.317220 1.043670
C5    C     C_R   0.170332 0.323514 0.476451 0.613625
C6    C     C_R   0.830494 0.649604 0.481741 0.614403
C7    C     C_R   0.182010 0.565432 0.352129 0.533227
C8    C     C_R   0.818116 0.407199 0.358913 0.537303
O9    O     O_2   0.190138 0.204150 0.547896 -0.524075
O10   O     O_2   0.811079 0.769645 0.553104 -0.524706
O11   O     O_2   0.213192 0.674006 0.294642 -0.526094
O12   O     O_2   0.786658 0.298807 0.302485 -0.526927
N1    N     N_R   0.199806 0.442958 0.428826 -0.322684
N2    N     N_R   0.800651 0.530959 0.433980 -0.321850
C9    C     C_R   0.271137 0.535098 0.585321 0.425806
C10   C     C_R   0.727857 0.444916 0.586363 0.426080
C11   C     C_R   0.280611 0.360345 0.355847 0.435624
C12   C     C_R   0.721075 0.620724 0.356557 0.432777
C13   C     C_R   0.322099 0.550703 0.603715 -0.176063
C14   C     C_R   0.676814 0.436602 0.604163 -0.180346
C15   C     C_R   0.331179 0.368549 0.378672 -0.171741
C16   C     C_R   0.670484 0.620023 0.379018 -0.173862
C17   C     C_R   0.250981 0.442649 0.459851 0.103021
C18   C     C_R   0.749368 0.534850 0.461488 0.105693
C19   C     C_R   0.100764 0.458873 0.388110 -0.192962
C20   C     C_R   0.899628 0.512537 0.393159 -0.193075
C21   C     C_R   0.119745 0.326074 0.450942 -0.139846
C22   C     C_R   0.881012 0.645830 0.456026 -0.139372
C23   C     C_R   0.131774 0.579695 0.337013 -0.097926
C24   C     C_R   0.868316 0.391848 0.343493 -0.097720
C25   C     C_R   0.087293 0.203532 0.489817 0.526462
C26   C     C_R   0.913724 0.768088 0.493769 0.525940
C27   C     C_R   0.111681 0.711836 0.276128 0.556819
C28   C     C_R   0.888084 0.259278 0.282381 0.555852
C29   C     C_R   0.352221 0.471350 0.495463 -0.313046
C30   C     C_R   0.647983 0.520770 0.496102 -0.306235
C31   C     C_R   0.969129 0.357347 0.358724 0.018793
C32   C     C_R   0.031071 0.613607 0.356538 0.018942
C33   C     C_R   0.981307 0.628215 0.389870 0.023462
C34   C     C_R   0.019103 0.342833 0.389071 0.023300
C35   C     C_R   0.950019 0.499595 0.379875 0.076658
C36   C     C_R   0.050312 0.471476 0.376989 0.076834
C37   C     C_R   0.938141 0.238190 0.303950 -0.304714
C38   C     C_R   0.061715 0.732665 0.299731 -0.306302
C39   C     C_R   0.962612 0.762888 0.444678 -0.339180
C40   C     C_R   0.038162 0.208334 0.442926 -0.339425
H1    H     H_    0.953400 0.134744 0.263607 0.150690
H2    H     H_    0.046205 0.835871 0.259814 0.150740
H3    H     H_    0.986550 0.860437 0.463631 0.159280
H4    H     H_    0.014377 0.110683 0.463064 0.159277
C41   C     C_1   0.499882 0.065120 0.500091 -0.123210
C42   C     C_1   0.499680 0.934828 0.500171 -0.143677
N3    N     N_1   0.500000 0.500000 0.073640 -0.019958
N4    N     N_1   0.500000 0.500000 0.926360 -0.019495
C43   C     C_2   0.361257 0.262992 0.285227 1.034320
O13   O     O_2   0.391346 0.190830 0.358411 -0.651427
O14   O     O_R   0.354784 0.244472 0.114605 -0.774491
H5    H     H_    0.377393 0.169479 0.065713 0.344236
C44   C     C_2   0.641962 0.730893 0.287234 1.030938
O15   O     O_2   0.648177 0.750060 0.138694 -0.596487
O16   O     O_R   0.608542 0.815667 0.372395 -0.818441
H6    H     H_    0.591975 0.889041 0.297610 0.341693
C45   C     C_2   0.343039 0.653461 0.732331 0.977702
O17   O     O_2   0.327977 0.645456 0.874664 -0.591554
O18   O     O_R   0.379187 0.761489 0.689838 -0.807095
H7    H     H_    0.390392 0.824937 0.787906 0.346984
C46   C     C_2   0.654376 0.336540 0.732291 0.978271
O19   O     O_2   0.668975 0.343799 0.875303 -0.593684
O20   O     O_R   0.617330 0.231785 0.688540 -0.810364
H8    H     H_    0.605111 0.169880 0.786373 0.351733
O21   O     O_3   0.259789 0.259770 0.242975 -0.602458
C47   C     C_3   0.249342 0.335573 0.094498 -0.122549
H9    H     H_    0.278234 0.420883 0.059020 0.220866
H10   H     H_    0.213631 0.388121 0.103069 0.151242
H11   H     H_    0.246542 0.252285 0.992712 0.197046
O22   O     O_3   0.743518 0.718073 0.243926 -0.606108
C48   C     C_3   0.751413 0.641025 0.094292 -0.138612
H12   H     H_    0.718893 0.571913 0.053491 0.219079
H13   H     H_    0.783408 0.570229 0.104598 0.161672
H14   H     H_    0.759605 0.724683 0.995670 0.195832
O23   O     O_3   0.240037 0.605097 0.693000 -0.606503
C49   C     C_3   0.239029 0.760095 0.658084 -0.124925
H15   H     H_    0.263112 0.799995 0.554442 0.164611
H16   H     H_    0.249846 0.823958 0.771060 0.203242
H17   H     H_    0.201113 0.787895 0.627147 0.183935
O24   O     O_3   0.757800 0.370578 0.694343 -0.607072
C50   C     C_3   0.756184 0.215084 0.660386 -0.122364
H18   H     H_    0.732710 0.179114 0.553421 0.165024
H19   H     H_    0.742913 0.153595 0.772009 0.203275
H20   H     H_    0.793726 0.180292 0.634830 0.187372
O25   O     O_3   0.103873 0.075271 0.562505 -0.613581
C51   C     C_3   0.087499 0.067827 0.727904 -0.253472
H21   H     H_    0.047304 0.048158 0.734099 0.138117
H22   H     H_    0.098923 0.170588 0.798373 0.167210
H23   H     H_    0.104265 0.971700 0.789279 0.208214
O26   O     O_3   0.897579 0.896601 0.567125 -0.612829
C52   C     C_3   0.914533 0.903793 0.731961 -0.252315
H24   H     H_    0.954780 0.922593 0.736817 0.137546
H25   H     H_    0.903119 0.801284 0.802750 0.166994
H26   H     H_    0.898206 0.000342 0.793944 0.208208
O27   O     O_3   0.139110 0.806167 0.172634 -0.595309
C53   C     C_3   0.145584 0.948815 0.244385 -0.130616
H27   H     H_    0.172819 0.014829 0.170145 0.201656
H28   H     H_    0.160381 0.941709 0.372295 0.226871
H29   H     H_    0.111252 0.009502 0.240259 0.132570
O28   O     O_3   0.860219 0.164956 0.179961 -0.595985
C54   C     C_3   0.853870 0.022530 0.252151 -0.123317
H30   H     H_    0.826154 0.956823 0.179412 0.206322
H31   H     H_    0.839753 0.030076 0.380843 0.227075
H32   H     H_    0.888073 0.961324 0.246151 0.131816

loop_
_geom_bond_atom_site_label_1
_geom_bond_atom_site_label_2
_geom_bond_distance
_ccdc_geom_bond_type
O5    Zn1   1.992101 S    
C48   H12   1.113886 S    
O25   C51   1.410222 S    
C39   H3    1.080458 S    
C52   H25   1.114142 S    
C45   O17   1.222859 D    
C19   C23   1.408994 A    
O27   C53   1.405199 S    
O3    C2    1.258850 A    
C53   H28   1.112397 S    
O21   C47   1.412721 S    
C46   O19   1.222821 D    
C11   C17   1.400891 A    
C5    O9    1.348539 S    
C7    N1    1.366931 A    
C21   C25   1.418126 A    
O1    C1    1.258860 A    
C19   C21   1.411881 A    
C22   C26   1.418015 A    
C32   C36   1.407354 A    
C44   O15   1.222622 D    
C54   H31   1.112469 S    
C13   C45   1.485494 S    
O26   C52   1.410198 S    
O28   C54   1.405012 S    
C51   H23   1.109501 S    
C7    C23   1.397041 A    
C44   O16   1.397121 S    
O7    Zn1   1.992747 S    
C5    C21   1.406265 A    
C8    C24   1.397818 A    
C51   H21   1.112077 S    
C14   C46   1.484984 S    
C28   C37   1.407113 A    
C10   C18   1.404742 A    
C43   O14   1.397745 S    
N1    C17   1.428309 S    
C34   C36   1.408400 A    
C52   H24   1.112116 S    
O3    Zn1   1.955294 S    
O6    C4    1.274905 A    
C31   C37   1.406047 A    
C5    N1    1.367823 A    
C12   C18   1.401033 A    
C6    N2    1.367895 A    
C9    C13   1.409033 A    
C45   O18   1.398464 S    
O2    C2    1.259429 A    
C27   O27   1.387309 S    
C53   H27   1.109396 S    
C50   H19   1.109566 S    
C50   H18   1.116393 S    
C31   C34   1.406250 A    
C46   O20   1.398401 S    
C10   O24   1.387602 S    
C9    O23   1.387572 S    
C11   C15   1.400357 A    
O14   H5    1.013869 S    
C20   C24   1.408925 A    
C4    C30   1.469799 S    
O8    Zn2   1.992749 S    
C54   H32   1.108991 S    
O23   C49   1.416105 S    
C37   H1    1.082314 S    
O22   C48   1.412219 S    
C11   O21   1.386023 S    
C31   C35   1.407527 A    
C33   C35   1.408277 A    
C33   C39   1.401417 A    
C49   H17   1.109817 S    
C34   C40   1.401642 A    
N3    N4    1.189120 T    
C13   C29   1.415758 A    
C32   C38   1.405950 A    
O18   H7    1.013869 S    
C25   C40   1.404283 A    
C26   C39   1.403698 A    
C27   C38   1.406700 A    
O5    C3    1.278870 A    
C12   C16   1.401890 A    
C6    O10   1.348662 S    
O24   C50   1.416138 S    
C49   H16   1.109570 S    
C1    C41   1.365675 S    
C51   H22   1.114154 S    
C26   O26   1.383013 S    
C20   C35   1.398735 A    
C32   C33   1.405543 A    
C10   C14   1.408853 A    
C47   H10   1.108421 S    
C48   H13   1.108529 S    
C12   O22   1.385762 S    
C52   H26   1.109493 S    
C8    N2    1.367044 A    
C3    C29   1.469670 S    
O1    Zn1   1.955083 S    
C50   H20   1.109835 S    
C38   H2    1.082309 S    
C15   C43   1.487182 S    
O6    Zn2   1.992098 S    
C8    O12   1.349511 S    
C16   C30   1.420558 A    
C14   C30   1.416414 A    
O4    C1    1.259398 A    
C23   C27   1.413988 A    
C16   C44   1.487665 S    
C47   H11   1.109376 S    
C2    C42   1.365776 S    
C20   C22   1.411808 A    
O16   H6    1.013916 S    
C54   H30   1.109333 S    
Zn1   N4    1.966636 S    
Zn2   N3    1.966636 S    
C49   H15   1.116369 S    
C25   O25   1.383072 S    
C43   O13   1.222592 D    
O4    Zn2   1.955294 S    
C41   C42   1.165026 T    
O2    Zn2   1.955082 S    
O7    C4    1.278923 A    
N2    C18   1.428696 S    
O8    C3    1.274631 A    
O20   H8    1.013829 S    
C40   H4    1.080409 S    
C24   C28   1.414221 A    
C28   O28   1.387210 S    
C47   H9    1.114756 S    
C15   C29   1.421754 A    
C48   H14   1.109324 S    
C9    C17   1.405538 A    
C19   C36   1.398611 A    
C53   H29   1.109031 S    
C6    C22   1.405664 A    
C7    O11   1.349665 S    
