data_mof_unit_6959.cif
_audit_creation_date              2012-10-26T21:24:48-0400
_audit_creation_method            fapswitch 2.2
_symmetry_space_group_name_H-M    P1
_symmetry_Int_Tables_number       1
_space_group_crystal_system       triclinic
_cell_length_a                    9.64252
_cell_length_b                    10.935532
_cell_length_c                    15.447429
_cell_angle_alpha                 86.427782
_cell_angle_beta                  74.644962
_cell_angle_gamma                 91.285032
_cell_volume                      1566.391417

loop_
_atom_site_label
_atom_site_type_symbol
_atom_type_description
_atom_site_fract_x
_atom_site_fract_y
_atom_site_fract_z
_atom_type_partial_charge
C1    C     C_R   0.998079 0.263116 0.501058 0.546833
C2    C     C_R   0.230195 0.571632 0.041747 0.040435
C3    C     C_R   0.325360 0.530720 0.091823 0.034371
C4    C     C_R   0.918105 0.497590 0.673000 0.529823
C5    C     C_R   0.085891 0.591021 0.085919 -0.098772
C6    C     C_R   0.035046 0.567242 0.179196 -0.097699
C7    C     C_R   0.266909 0.492631 0.183265 -0.137112
C8    C     C_R   0.116591 0.066355 0.497496 0.078864
C9    C     C_R   0.992597 0.130547 0.506511 -0.049149
C10   C     C_R   0.861435 0.061451 0.527050 -0.110145
C11   C     C_R   0.859018 0.932037 0.535612 0.207528
C12   C     C_R   0.669477 0.510812 0.909675 -0.019553
C13   C     C_R   0.991596 0.869133 0.517407 -0.018353
C14   C     C_R   0.116042 0.942359 0.505110 -0.050168
C15   C     C_3   0.275871 0.941276 0.486633 -0.105331
C16   C     C_R   0.997998 0.736696 0.506125 0.546822
C17   C     C_3   0.276208 0.082800 0.474926 0.246590
C18   C     C_R   0.605450 0.553404 0.428889 0.125460
C19   C     C_R   0.545461 0.429472 0.562929 0.145457
C20   C     C_R   0.398168 0.430628 0.563000 0.357804
C21   C     C_R   0.458654 0.553568 0.429033 0.114738
C22   C     C_3   0.473595 0.685139 0.397792 -0.289036
C23   C     C_R   0.761957 0.474027 0.963333 0.065603
C24   C     C_3   0.631918 0.683501 0.393775 -0.270277
C25   C     C_R   0.081296 0.502639 0.327697 0.541162
C26   C     C_R   0.870696 0.492492 0.773734 0.009285
C27   C     C_R   0.125815 0.517458 0.228482 -0.010029
C28   C     C_R   0.904349 0.447056 0.922784 -0.091722
C29   C     C_R   0.959790 0.455522 0.829660 -0.054702
C30   C     C_R   0.727277 0.520823 0.815073 -0.146745
C31   C     C_3   0.320776 0.890565 0.570115 -0.384578
C32   C     C_3   0.343991 0.138049 0.378583 -0.368570
C33   C     C_3   0.580472 0.345004 0.635059 -0.301593
C34   C     C_R   0.522551 0.533609 0.952789 0.012384
C35   C     C_3   0.110826 0.416708 0.794148 -0.369063
C36   C     C_3   0.563151 0.572869 0.185244 -0.413371
C37   C     C_R   0.474886 0.524045 0.048641 0.015578
C38   C     C_R   0.578871 0.511687 0.098381 -0.017376
C39   C     C_R   0.714662 0.469101 0.057346 0.236885
C40   C     C_R   0.421767 0.567618 0.904260 -0.127667
C41   C     C_R   0.279875 0.590738 0.948425 -0.140532
Cu1   Cu    Cu3+1 0.140670 0.499980 0.500000 0.938208
Cu2   Cu    Cu3+1 0.859330 0.500020 0.500000 0.919391
H1    H     H_    0.013080 0.626208 0.048503 0.133824
H2    H     H_    0.207311 0.619904 0.908929 0.109403
H3    H     H_    0.974233 0.418403 0.964214 0.177875
H4    H     H_    0.662514 0.550922 0.771532 0.123289
H5    H     H_    0.448957 0.579061 0.831943 0.105254
H6    H     H_    0.751390 0.409257 0.170650 0.329741
H7    H     H_    0.734200 0.801084 0.605622 0.340613
H8    H     H_    0.439544 0.899529 0.556854 0.170611
H9    H     H_    0.270276 0.940249 0.630435 0.186056
H10   H     H_    0.285976 0.792550 0.586598 0.145817
H11   H     H_    0.427812 0.136897 0.526004 0.324575
H12   H     H_    0.760215 0.107170 0.539363 0.147063
H13   H     H_    0.296218 0.093959 0.329665 0.097477
H14   H     H_    0.326852 0.237999 0.374023 0.173678
H15   H     H_    0.461591 0.124007 0.359782 0.111884
H16   H     H_    0.693230 0.323140 0.623628 0.172376
H17   H     H_    0.542983 0.384675 0.701311 0.122961
H18   H     H_    0.524713 0.254023 0.639113 0.146517
H19   H     H_    0.214852 0.346218 0.612608 0.399139
H20   H     H_    0.177248 0.491748 0.749629 0.187207
H21   H     H_    0.164512 0.394659 0.848261 0.121514
H22   H     H_    0.105639 0.331124 0.760374 0.184381
H23   H     H_    0.325003 0.900503 0.422364 0.111963
H24   H     H_    0.477008 0.640064 0.194796 0.135889
H25   H     H_    0.542046 0.503685 0.243303 0.121571
H26   H     H_    0.663560 0.626502 0.182650 0.138471
H27   H     H_    0.449649 0.705483 0.332403 0.126310
H28   H     H_    0.330753 0.443543 0.220592 0.129407
H29   H     H_    0.414266 0.736355 0.452827 0.153363
H30   H     H_    0.703440 0.693407 0.324164 0.116125
H31   H     H_    0.661910 0.743833 0.441577 0.207462
H32   H     H_    0.925425 0.588113 0.212633 0.133228
N1    N     N_R   0.648210 0.500930 0.499430 -0.253163
N2    N     N_R   0.352300 0.500890 0.499430 -0.252728
O1    O     O_R   0.118810 0.319640 0.500000 -0.489803
O2    O     O_3   0.725988 0.872174 0.564531 -0.730440
O3    O     O_3   0.321773 0.143557 0.540432 -0.664245
O4    O     O_3   0.305165 0.356471 0.628596 -0.727595
O5    O     O_R   0.881230 0.319680 0.499990 -0.528423
O6    O     O_R   0.055580 0.499970 0.629840 -0.518059
O7    O     O_R   0.818000 0.500010 0.629830 -0.527908
O8    O     O_R   0.118770 0.680320 0.500010 -0.505293
O9    O     O_R   0.881190 0.680360 0.500000 -0.489613
O10   O     O_R   0.182000 0.499990 0.370170 -0.507516
O11   O     O_R   0.944420 0.500030 0.370160 -0.491879
O12   O     O_3   0.807032 0.430301 0.107531 -0.740054

loop_
_geom_bond_atom_site_label_1
_geom_bond_atom_site_label_2
_ccdc_geom_bond_type
Cu2   O7    S    
C34   C37   A    
C19   C20   A    
C32   H15   S    
C31   H9    S    
H7    O2    S    
C36   H24   S    
C6    H32   S    
C12   C23   A    
C28   H3    S    
C20   N2    A    
C34   C40   A    
Cu2   O11   S    
C28   C29   A    
C3    C7    A    
C7    H28   S    
C5    C6    A    
C24   H30   S    
C35   H22   S    
C2    C41   A    
C18   C21   A    
C25   O10   A    
C7    C27   A    
C40   H5    S    
C20   O4    S    
C8    C9    A    
C18   N1    A    
C35   H21   S    
C18   C24   S    
C39   O12   S    
C9    C10   A    
C33   H16   S    
C13   C14   A    
C16   O9    A    
C1    O1    A    
C32   H14   S    
C22   H29   S    
H11   O3    S    
C30   H4    S    
C1    C9    S    
C19   C33   S    
C31   H8    S    
C1    O5    A    
C15   H23   S    
C25   O11   A    
C37   C38   A    
C6    C27   A    
C4    O7    A    
Cu1   O8    S    
C23   C28   A    
C31   H10   S    
C10   H12   S    
C11   O2    S    
Cu1   N2    S    
C40   C41   A    
H19   O4    S    
Cu1   O1    S    
C33   H17   S    
C16   O8    A    
C22   C24   S    
C2    C5    A    
Cu1   Cu2   S    
C12   C34   A    
C36   H26   S    
Cu2   N1    S    
C15   C17   S    
C19   N1    A    
C8    C14   A    
C12   C30   A    
Cu2   O9    S    
C5    H1    S    
Cu1   O6    S    
H6    O12   S    
C4    C26   S    
C36   H25   S    
C15   C31   S    
C25   C27   S    
C29   C35   S    
C8    C17   S    
C36   C38   S    
C2    C3    A    
C11   C13   A    
C24   H31   S    
C38   C39   A    
C4    O6    A    
C23   C39   A    
C32   H13   S    
C17   O3    S    
C10   C11   A    
C3    C37   A    
C26   C29   A    
C33   H18   S    
C13   C16   S    
C21   N2    A    
C17   C32   S    
C41   H2    S    
C14   C15   S    
C35   H20   S    
Cu1   O10   S    
C21   C22   S    
C22   H27   S    
Cu2   O5    S    
C26   C30   A    
