data_mof_unit_33717.cif
_audit_creation_date              2012-12-10T17:37:50-0500
_audit_creation_method            fapswitch 2.2
_symmetry_space_group_name_H-M    P1
_symmetry_Int_Tables_number       1
_space_group_crystal_system       triclinic
_cell_length_a                    12.311341
_cell_length_b                    13.168973
_cell_length_c                    17.289184
_cell_angle_alpha                 104.864249
_cell_angle_beta                  74.827361
_cell_angle_gamma                 116.650398
_cell_volume                      2386.27074864

loop_
_atom_site_label
_atom_site_type_symbol
_atom_type_description
_atom_site_fract_x
_atom_site_fract_y
_atom_site_fract_z
_atom_type_partial_charge
C1    C     C_R   0.144689 0.713464 0.505190 0.797809
C2    C     C_R   0.020415 0.498713 0.262269 -0.026103
C3    C     C_R   0.737690 0.971683 0.398561 -0.193676
C4    C     C_R   0.985589 0.500190 0.651892 0.805392
C5    C     C_R   0.774305 0.164240 0.470902 -0.053705
C6    C     C_R   0.178147 0.918768 0.540454 -0.205394
C7    C     C_R   0.254495 0.036182 0.548118 0.322339
C8    C     C_R   0.381694 0.071253 0.522913 -0.267379
C9    C     C_R   0.433803 0.990094 0.487055 0.043920
C10   C     C_R   0.353640 0.872940 0.468597 0.079083
C11   C     C_R   0.563174 0.022021 0.466992 0.092252
C12   C     C_R   0.890822 0.525328 0.797219 -0.200992
C13   C     C_R   0.610056 0.940723 0.419194 0.166361
C14   C     C_R   0.529041 0.830236 0.391229 -0.246415
C15   C     C_R   0.402771 0.797078 0.414732 -0.181060
C16   C     C_R   0.855799 0.286120 0.487924 0.804310
C17   C     C_R   0.647410 0.131883 0.494806 -0.254722
C18   C     C_R   0.819601 0.083351 0.423743 -0.190547
C19   C     C_R   0.226580 0.836221 0.503105 -0.168012
C20   C     C_R   0.642087 0.674708 0.629503 -0.301070
C21   C     C_R   0.249584 0.351400 0.390237 0.074108
C22   C     C_R   0.347553 0.318132 0.367211 -0.256553
C23   C     C_R   0.940363 0.523918 0.158266 -0.155846
C24   C     C_R   0.447351 0.373830 0.408645 -0.206773
C25   C     C_R   0.450341 0.464059 0.474156 -0.011136
C26   C     C_R   0.347150 0.494552 0.495958 0.283691
C27   C     C_R   0.551026 0.524754 0.518995 -0.038616
C28   C     C_R   0.013024 0.497610 0.347826 0.781734
C29   C     C_R   0.545766 0.613740 0.584511 0.177508
C30   C     C_R   0.444345 0.641444 0.605054 -0.282451
C31   C     C_R   0.347362 0.583092 0.562025 -0.184367
C32   C     C_R   0.657631 0.501726 0.502011 0.013486
C33   C     C_R   0.743827 0.647676 0.609787 0.068717
C34   C     C_R   0.935231 0.524035 0.239342 -0.201858
C35   C     C_R   0.970876 0.487642 0.735974 -0.060804
C36   C     C_R   0.032171 0.431478 0.754478 -0.274834
C37   C     C_R   0.015364 0.414002 0.833752 0.291790
C38   C     C_R   0.940071 0.458421 0.895817 0.154409
C39   C     C_R   0.875673 0.510778 0.876725 -0.226640
C40   C     C_3   0.143354 0.121013 0.663502 -0.713005
C41   C     C_3   0.991387 0.236300 0.866005 -0.698507
C42   C     C_R   0.112511 0.475525 0.202993 -0.202137
C43   C     C_R   0.117554 0.475432 0.121626 -0.165122
C44   C     C_R   0.030070 0.497275 0.098788 0.173591
C45   C     C_2   0.932459 0.458223 0.981598 -0.224792
C46   C     C_2   0.034657 0.492458 0.012563 -0.186917
Cu1   Cu    Cu3+1 0.900140 0.524980 0.518800 0.932933
Cu2   Cu    Cu3+1 0.099860 0.475020 0.481200 0.921029
H1    H     H_    0.188168 0.456097 0.076310 0.128226
H2    H     H_    0.638650 0.742880 0.679644 0.134796
H3    H     H_    0.669720 0.435988 0.453161 0.122784
H4    H     H_    0.172446 0.307492 0.357829 0.123067
H5    H     H_    0.520473 0.344379 0.388296 0.136754
H6    H     H_    0.346093 0.248835 0.317084 0.144292
H7    H     H_    0.274071 0.610560 0.583257 0.209681
H8    H     H_    0.179997 0.456781 0.219303 0.149130
H9    H     H_    0.124112 0.515164 0.973258 0.168799
H10   H     H_    0.816637 0.543785 0.923951 0.139412
H11   H     H_    0.874796 0.545757 0.142562 0.122379
H12   H     H_    0.563333 0.768789 0.351422 0.143522
H13   H     H_    0.841393 0.567501 0.783933 0.155292
H14   H     H_    0.842524 0.436261 0.020099 0.139395
H15   H     H_    0.090794 0.398283 0.706998 0.157719
H16   H     H_    0.917781 0.107205 0.404407 0.152282
H17   H     H_    0.774031 0.910176 0.361581 0.134217
H18   H     H_    0.261216 0.201032 0.566326 0.254502
H19   H     H_    0.105009 0.187164 0.680863 0.230962
H20   H     H_    0.210864 0.142753 0.703443 0.226242
H21   H     H_    0.065979 0.036507 0.672714 0.228422
H22   H     H_    0.152129 0.353609 0.809167 0.243139
H23   H     H_    0.616391 0.194216 0.535687 0.153942
H24   H     H_    0.044177 0.195302 0.879813 0.225553
H25   H     H_    0.948355 0.183498 0.811878 0.220740
H26   H     H_    0.917978 0.238222 0.918999 0.246369
H27   H     H_    0.080252 0.891982 0.563062 0.163793
H28   H     H_    0.437238 0.162737 0.529516 0.128636
H29   H     H_    0.345047 0.712537 0.387372 0.177937
H30   H     H_    0.818594 0.694482 0.644186 0.117937
H31   H     H_    0.864434 0.544025 0.283939 0.153288
H32   H     H_    0.439592 0.709176 0.655300 0.152177
N1    N     N_R   0.749710 0.562810 0.547300 -0.178861
N2    N     N_R   0.249640 0.437820 0.453210 -0.207506
N3    N     N_2   0.203342 0.119547 0.579483 -0.422681
N4    N     N_2   0.073755 0.351597 0.850286 -0.446628
O1    O     O_R   0.025490 0.682370 0.523640 -0.581319
O2    O     O_R   0.194150 0.640180 0.491890 -0.605364
O3    O     O_R   0.905900 0.523560 0.631310 -0.584863
O4    O     O_R   0.074570 0.481370 0.599560 -0.602783
O5    O     O_R   0.805850 0.359820 0.508110 -0.587922
O6    O     O_R   0.974510 0.317630 0.476360 -0.584571
O7    O     O_R   0.925430 0.518630 0.400440 -0.588275
O8    O     O_R   0.094100 0.476440 0.368690 -0.599640

loop_
_geom_bond_atom_site_label_1
_geom_bond_atom_site_label_2
_ccdc_geom_bond_type
C7    N3    S    
C16   O6    A    
C27   C29   A    
C11   C13   A    
C35   C36   A    
C7    C8    A    
C22   H6    S    
C4    O3    A    
C15   H29   S    
C45   C46   D    
C23   H11   S    
C6    C19   A    
C29   C30   A    
Cu1   O1    S    
C36   C37   A    
C10   C15   A    
C30   C31   A    
C33   H30   S    
C5    C17   A    
C45   H14   S    
C8    H28   S    
C3    C18   A    
C38   C45   S    
C20   H2    S    
C42   H8    S    
C41   H26   S    
C8    C9    A    
C5    C16   S    
C40   H19   S    
Cu2   O4    S    
C37   N4    S    
C36   H15   S    
H22   N4    S    
C9    C10   A    
C3    C13   A    
C30   H32   S    
C2    C34   A    
H18   N3    S    
C4    C35   S    
C16   O5    A    
C26   N2    A    
Cu2   O6    S    
C21   C22   A    
Cu1   O5    S    
C40   N3    S    
C3    H17   S    
C44   C46   S    
C20   C29   A    
C1    O1    A    
C1    C19   S    
C40   H21   S    
C6    H27   S    
C24   C25   A    
C43   H1    S    
C5    C18   A    
C25   C26   A    
C39   H10   S    
C23   C44   A    
Cu1   O3    S    
C43   C44   A    
C32   H3    S    
C37   C38   A    
C32   N1    A    
C34   H31   S    
Cu1   Cu2   S    
C10   C19   A    
C23   C34   A    
C28   O8    A    
C12   C35   A    
C9    C11   A    
C41   H24   S    
C20   C33   A    
C17   H23   S    
C46   H9    S    
C40   H20   S    
Cu2   O2    S    
C42   C43   A    
C1    O2    A    
C11   C17   A    
C27   C32   A    
Cu1   O7    S    
C6    C7    A    
C4    O4    A    
C25   C27   A    
C14   H12   S    
C12   C39   A    
C24   H5    S    
C12   H13   S    
C41   N4    S    
C18   H16   S    
C38   C39   A    
C2    C42   A    
Cu2   N2    S    
C28   O7    A    
C22   C24   A    
Cu1   N1    S    
C41   H25   S    
C26   C31   A    
C21   N2    A    
Cu2   O8    S    
C14   C15   A    
C2    C28   S    
C31   H7    S    
C13   C14   A    
C33   N1    A    
C21   H4    S    
