data_mof_unit_41006.cif
_audit_creation_date              2012-12-11T14:45:24-0500
_audit_creation_method            fapswitch 2.2
_symmetry_space_group_name_H-M    P1
_symmetry_Int_Tables_number       1
_space_group_crystal_system       triclinic
_cell_length_a                    25.448629
_cell_length_b                    7.25344
_cell_length_c                    13.812727
_cell_angle_alpha                 90.000277
_cell_angle_beta                  103.915175
_cell_angle_gamma                 90.000111
_cell_volume                      2474.86642187

loop_
_atom_site_label
_atom_site_type_symbol
_atom_type_description
_atom_site_fract_x
_atom_site_fract_y
_atom_site_fract_z
_atom_type_partial_charge
O1    O     O_R   0.319150 0.364170 0.330530 -0.523089
O2    O     O_R   0.680850 0.635830 0.669470 -0.556186
O3    O     O_R   0.180850 0.864170 0.169470 -0.523085
O4    O     O_R   0.819150 0.135830 0.830530 -0.556186
O5    O     O_R   0.210330 0.696850 0.354180 -0.522100
O6    O     O_R   0.789670 0.303150 0.645820 -0.514405
O7    O     O_R   0.289670 0.196850 0.145820 -0.522097
O8    O     O_R   0.710330 0.803150 0.854180 -0.514405
C1    C     C_R   0.194661 0.525883 0.375975 0.825573
C2    C     C_R   0.805517 0.474462 0.624243 0.834392
C3    C     C_R   0.305338 0.025882 0.124025 0.825576
C4    C     C_R   0.694482 0.974462 0.875756 0.834390
O9    O     O_R   0.320550 0.694110 0.341970 -0.551492
O10   O     O_R   0.679450 0.305890 0.658030 -0.511304
O11   O     O_R   0.179450 0.194110 0.158030 -0.551497
O12   O     O_R   0.820550 0.805890 0.841970 -0.511302
O13   O     O_R   0.291860 0.861000 0.157170 -0.506940
O14   O     O_R   0.708140 0.139000 0.842830 -0.526660
O15   O     O_R   0.208140 0.361000 0.342830 -0.506941
O16   O     O_R   0.791860 0.639000 0.657170 -0.526659
C5    C     C_R   0.341429 0.525221 0.365064 0.777520
C6    C     C_R   0.658560 0.474444 0.634885 0.788250
C7    C     C_R   0.158571 0.025220 0.134937 0.777521
C8    C     C_R   0.841440 0.974445 0.865114 0.788254
O17   O     O_3   0.240460 0.529330 0.189380 -0.381796
O18   O     O_3   0.759540 0.470670 0.810620 -0.387163
O19   O     O_3   0.259540 0.029330 0.310620 -0.381799
O20   O     O_3   0.740460 0.970670 0.689380 -0.387164
V1    V     V_3+5 0.251770 0.805510 0.261240 1.572955
V2    V     V_3+5 0.748230 0.194490 0.738760 1.568505
V3    V     V_3+5 0.248230 0.305510 0.238760 1.572948
V4    V     V_3+5 0.751770 0.694490 0.761240 1.568505
C9    C     C_R   0.102560 0.016069 0.068819 -0.187493
C10   C     C_R   0.897044 0.983935 0.933124 -0.172462
C11   C     C_R   0.397440 0.516073 0.431183 -0.187498
C12   C     C_R   0.602957 0.483933 0.566875 -0.172455
C13   C     C_R   0.960216 0.992336 0.099927 0.356136
C14   C     C_R   0.038488 0.003223 0.904263 0.354584
C15   C     C_R   0.539784 0.492335 0.400072 0.356131
C16   C     C_R   0.461513 0.503233 0.595738 0.354589
C17   C     C_R   0.905950 0.968121 0.038055 0.300294
C18   C     C_R   0.092710 0.999059 0.964323 0.301059
C19   C     C_R   0.594050 0.468123 0.461944 0.300294
C20   C     C_R   0.407290 0.499077 0.535679 0.301058
C21   C     C_R   0.941151 0.005719 0.890648 -0.167048
C22   C     C_R   0.058555 0.006018 0.112529 -0.201292
C23   C     C_R   0.558849 0.505714 0.609352 -0.167059
C24   C     C_R   0.441445 0.506015 0.387472 -0.201292
C25   C     C_R   0.994633 0.009261 0.949646 -0.033776
C26   C     C_R   0.004397 0.006295 0.054537 -0.037977
C27   C     C_R   0.505367 0.509262 0.550355 -0.033777
C28   C     C_R   0.495603 0.506293 0.445464 -0.037975
H1    H     H_    0.067693 0.990777 0.192646 0.221356
H2    H     H_    0.933354 0.012431 0.810045 0.203600
H3    H     H_    0.432306 0.490772 0.307356 0.221359
H4    H     H_    0.566647 0.512423 0.689956 0.203596
C29   C     C_R   0.657553 0.984710 0.945860 -0.362007
C30   C     C_R   0.341188 0.017017 0.052236 -0.352062
C31   C     C_R   0.842445 0.484710 0.554138 -0.362009
C32   C     C_R   0.158812 0.517019 0.447763 -0.352044
C33   C     C_R   0.641570 0.926126 0.110451 0.362166
C34   C     C_R   0.357391 0.902221 0.895429 0.361060
C35   C     C_R   0.858427 0.426128 0.389545 0.362163
C36   C     C_R   0.142607 0.402220 0.604568 0.361055
C37   C     C_R   0.670750 0.891881 0.037694 0.436408
C38   C     C_R   0.330549 0.888830 0.973652 0.418461
C39   C     C_R   0.829248 0.391880 0.462303 0.436411
C40   C     C_R   0.169451 0.388834 0.526348 0.418440
C41   C     C_R   0.608088 0.084417 0.920609 0.602248
C42   C     C_R   0.388885 0.124452 0.065779 0.624986
C43   C     C_R   0.891910 0.584420 0.579388 0.602261
C44   C     C_R   0.111113 0.624450 0.434219 0.624982
C45   C     C_R   0.571731 0.083692 0.985367 -0.088572
C46   C     C_R   0.424931 0.098876 0.001887 -0.091594
C47   C     C_R   0.928267 0.583693 0.514629 -0.088568
C48   C     C_R   0.075068 0.598873 0.498111 -0.091595
C49   C     C_R   0.593361 0.028713 0.084976 -0.203133
C50   C     C_R   0.403364 0.015773 0.908786 -0.185924
C51   C     C_R   0.906637 0.528716 0.415020 -0.203134
C52   C     C_R   0.096633 0.515769 0.591210 -0.185921
C53   C     C_R   0.513900 0.112195 0.955113 -0.091814
C54   C     C_R   0.482673 0.124698 0.029986 -0.121951
C55   C     C_R   0.986098 0.612192 0.544883 -0.091807
C56   C     C_R   0.017326 0.624697 0.470011 -0.121956
C57   C     C_R   0.510859 0.117493 0.131371 0.676496
C58   C     C_R   0.484902 0.087254 0.854747 0.680919
C59   C     C_R   0.989139 0.617496 0.368626 0.676500
C60   C     C_R   0.015095 0.587244 0.645249 0.680923
C61   C     C_R   0.564510 0.063241 0.157082 -0.218993
C62   C     C_R   0.431106 0.031934 0.833565 -0.253470
C63   C     C_R   0.935488 0.563245 0.342914 -0.218993
C64   C     C_R   0.068890 0.531924 0.666431 -0.253492
H5    H     H_    0.582091 0.034027 0.234664 0.177215
H6    H     H_    0.412464 0.987087 0.758541 0.160402
H7    H     H_    0.917906 0.534033 0.265331 0.177215
H8    H     H_    0.087531 0.487068 0.741454 0.160412
O21   O     O_3   0.136539 0.970109 0.923343 -0.572630
C65   C     C_3   0.128756 0.809618 0.863246 0.103971
H9    H     H_    0.116572 0.851129 0.783564 0.187835
H10   H     H_    0.098483 0.710589 0.880060 0.157821
C66   C     C_3   0.181313 0.707408 0.878384 -0.712063
H11   H     H_    0.191515 0.638436 0.952343 0.257154
H12   H     H_    0.178213 0.606083 0.817714 0.181189
H13   H     H_    0.212829 0.806919 0.873217 0.257383
O22   O     O_3   0.860871 0.912882 0.071794 -0.563591
C67   C     C_3   0.863709 0.955104 0.172124 0.115392
H14   H     H_    0.877670 0.097133 0.190229 0.177161
H15   H     H_    0.888969 0.852657 0.221979 0.181230
C68   C     C_3   0.808140 0.944611 0.190556 -0.707128
H16   H     H_    0.793712 0.801898 0.179046 0.261710
H17   H     H_    0.810127 0.985437 0.268810 0.208608
H18   H     H_    0.779931 0.035868 0.138000 0.234653
O23   O     O_3   0.363461 0.470156 0.576662 -0.572622
C69   C     C_3   0.371239 0.309674 0.636765 0.104021
H19   H     H_    0.383426 0.351195 0.716446 0.187847
H20   H     H_    0.401509 0.210628 0.619952 0.157805
C70   C     C_3   0.318680 0.207486 0.621632 -0.712075
H21   H     H_    0.308473 0.138518 0.547672 0.257178
H22   H     H_    0.321779 0.106155 0.682299 0.181187
H23   H     H_    0.287170 0.307015 0.626805 0.257368
O24   O     O_3   0.639130 0.412888 0.428204 -0.563592
C71   C     C_3   0.636290 0.455101 0.327873 0.115393
H24   H     H_    0.622328 0.597129 0.309766 0.177163
H25   H     H_    0.611030 0.352650 0.278021 0.181229
C72   C     C_3   0.691858 0.444609 0.309440 -0.707132
H26   H     H_    0.706286 0.301896 0.320950 0.261710
H27   H     H_    0.689871 0.485431 0.231185 0.208607
H28   H     H_    0.720067 0.535868 0.361994 0.234653
O25   O     O_3   0.971495 0.971063 0.202677 -0.541680
C73   C     C_3   0.983398 0.143674 0.251474 0.108031
H29   H     H_    0.951896 0.248609 0.222074 0.114389
H30   H     H_    0.022146 0.203062 0.243088 0.150883
C74   C     C_3   0.987851 0.115355 0.362393 -0.635459
H31   H     H_    0.019027 0.009513 0.392226 0.258781
H32   H     H_    0.000200 0.244909 0.403865 0.172910
H33   H     H_    0.948340 0.069793 0.374893 0.209979
O26   O     O_3   0.027772 0.964069 0.803318 -0.539315
C75   C     C_3   0.032010 0.125863 0.749869 0.072765
H34   H     H_    0.074121 0.179352 0.770761 0.175614
H35   H     H_    0.003384 0.232812 0.763962 0.168088
C76   C     C_3   0.017590 0.080073 0.638975 -0.621335
H36   H     H_    0.976472 0.018425 0.617273 0.241665
H37   H     H_    0.017981 0.206154 0.594022 0.175207
H38   H     H_    0.047386 0.980901 0.621982 0.217560
O27   O     O_3   0.528505 0.471060 0.297323 -0.541682
C77   C     C_3   0.516601 0.643671 0.248526 0.108030
H39   H     H_    0.548104 0.748604 0.277924 0.114389
H40   H     H_    0.477854 0.703061 0.256916 0.150882
C78   C     C_3   0.512145 0.615348 0.137606 -0.635445
H41   H     H_    0.480967 0.509510 0.107775 0.258784
H42   H     H_    0.499798 0.744902 0.096134 0.172910
H43   H     H_    0.551655 0.569778 0.125102 0.209976
O28   O     O_3   0.472228 0.464082 0.696683 -0.539319
C79   C     C_3   0.468004 0.625886 0.750134 0.072782
H44   H     H_    0.425895 0.679398 0.729252 0.175596
H45   H     H_    0.496632 0.732816 0.736032 0.168085
C80   C     C_3   0.482430 0.580098 0.861028 -0.621359
H46   H     H_    0.523543 0.518410 0.882717 0.241686
H47   H     H_    0.482054 0.706188 0.905982 0.175192
H48   H     H_    0.452628 0.480960 0.878032 0.217561
F1    F     F_    0.398869 0.254911 0.138376 -0.632277
F2    F     F_    0.598009 0.190421 0.837253 -0.624153
F3    F     F_    0.101130 0.754907 0.361622 -0.632277
F4    F     F_    0.901989 0.690428 0.662743 -0.624148
F5    F     F_    0.296573 0.746283 0.975792 -0.695172
F6    F     F_    0.711779 0.768564 0.056610 -0.705835
F7    F     F_    0.203429 0.246295 0.524208 -0.695202
F8    F     F_    0.788219 0.268561 0.443387 -0.705834
O29   O     O_3   0.653794 0.831780 0.200427 -0.556778
C81   C     C_3   0.699128 0.910616 0.267151 0.100729
H49   H     H_    0.732789 0.810814 0.277914 0.151919
H50   H     H_    0.712808 0.042785 0.240651 0.106757
C82   C     C_3   0.687517 0.942578 0.369348 -0.707116
H51   H     H_    0.675543 0.813451 0.400786 0.207890
H52   H     H_    0.724612 0.994022 0.421994 0.256509
H53   H     H_    0.655008 0.045825 0.364840 0.232967
O30   O     O_3   0.346448 0.781835 0.814522 -0.548034
C83   C     C_3   0.290998 0.783586 0.765469 0.121340
H54   H     H_    0.270948 0.915731 0.775392 0.085535
H55   H     H_    0.270734 0.669813 0.795242 0.180935
C84   C     C_3   0.283792 0.752709 0.653790 -0.719473
H56   H     H_    0.280905 0.604417 0.636789 0.220400
H57   H     H_    0.245745 0.818741 0.611661 0.205661
H58   H     H_    0.318452 0.809027 0.627520 0.246558
O31   O     O_3   0.846203 0.331781 0.299568 -0.556778
C85   C     C_3   0.800870 0.410618 0.232844 0.100727
H59   H     H_    0.767209 0.310817 0.222080 0.151918
H60   H     H_    0.787190 0.542788 0.259345 0.106756
C86   C     C_3   0.812482 0.442580 0.130648 -0.707113
H61   H     H_    0.824455 0.313452 0.099210 0.207888
H62   H     H_    0.775386 0.494023 0.078002 0.256508
H63   H     H_    0.844990 0.545826 0.135157 0.232969
O32   O     O_3   0.153548 0.281832 0.685475 -0.548042
C87   C     C_3   0.208998 0.283559 0.734521 0.121287
H64   H     H_    0.229049 0.415716 0.724622 0.085566
H65   H     H_    0.229259 0.169803 0.704726 0.180968
C88   C     C_3   0.216208 0.252608 0.846194 -0.719464
H66   H     H_    0.219048 0.104299 0.863147 0.220473
H67   H     H_    0.254279 0.318485 0.888326 0.205606
H68   H     H_    0.181571 0.309024 0.872498 0.246528
F9    F     F_    0.485525 0.120423 0.207060 -0.636734
F10   F     F_    0.509115 0.078111 0.777821 -0.642286
F11   F     F_    0.014473 0.620429 0.292937 -0.636731
F12   F     F_    0.990881 0.578094 0.722174 -0.642288

loop_
_geom_bond_atom_site_label_1
_geom_bond_atom_site_label_2
_ccdc_geom_bond_type
C39   F8    S    
O17   V3    S    
C24   H3    S    
C87   H65   S    
C42   F1    S    
O1    C5    A    
C80   H46   S    
C18   O21   S    
C59   C63   A    
C68   H16   S    
O19   V1    S    
O13   V1    S    
O29   C81   S    
O12   C8    A    
O22   C67   S    
O3    C7    A    
C75   H34   S    
C56   C59   A    
O1    V3    S    
C83   C84   S    
C44   C48   A    
O15   V3    S    
C48   C56   A    
C34   O30   S    
O27   C77   S    
C14   C25   A    
C35   C51   A    
C84   H56   S    
C50   C62   A    
O7    C3    A    
C49   C61   A    
O5    C1    A    
C66   H11   S    
C67   H15   S    
C54   C57   A    
C9    C18   A    
C36   C40   A    
O9    V1    S    
O10   V2    S    
C14   C18   A    
C70   H22   S    
O4    C8    A    
C83   H55   S    
C82   H53   S    
C87   C88   S    
C67   H14   S    
C32   C44   A    
O21   C65   S    
C64   H8    S    
C12   C23   A    
O2    V4    S    
C45   C53   A    
O3    V1    S    
C68   H17   S    
C31   C39   A    
C76   H36   S    
C30   C38   A    
C14   O26   S    
C60   C64   A    
C86   H63   S    
C2    O16   A    
C7    C9    S    
O2    C6    A    
C72   H28   S    
C41   C45   A    
O14   V2    S    
C3    C30   S    
C58   F10   S    
C16   C20   A    
C51   C63   A    
C53   C58   A    
O32   C87   S    
C57   F9    S    
O11   C7    A    
C87   H64   S    
C80   H47   S    
C61   H5    S    
C9    C22   A    
C36   C52   A    
C86   H61   S    
C10   C17   A    
C46   C54   A    
C11   C24   A    
C59   F11   S    
C1    O15   A    
C62   H6    S    
C77   H40   S    
C71   H24   S    
C82   H52   S    
C84   H57   S    
C35   C39   A    
O7    V3    S    
C43   F4    S    
C34   C38   A    
C27   C28   A    
O8    V4    S    
C83   H54   S    
C41   F2    S    
C79   C80   S    
C58   C62   A    
C70   H23   S    
C33   C49   A    
C57   C61   A    
O18   V4    S    
C30   C42   A    
C23   C27   A    
C35   O31   S    
C82   H51   S    
C37   F6    S    
C53   C54   A    
C68   H18   S    
C76   H37   S    
C52   C64   A    
C88   H68   S    
C73   H30   S    
C42   C46   A    
C74   H33   S    
C77   C78   S    
C69   H20   S    
C55   C56   A    
C21   C25   A    
O8    C4    A    
C36   O32   S    
C15   O27   S    
C79   H44   S    
O9    C5    A    
C10   C21   A    
C60   F12   S    
C88   H67   S    
C11   C20   A    
O24   C71   S    
C77   H39   S    
C75   H35   S    
C5    C11   S    
C4    C29   S    
O6    V2    S    
C20   O23   S    
O30   C83   S    
C80   H48   S    
C65   H10   S    
C46   C50   A    
C72   H26   S    
C25   C26   A    
C16   O28   S    
C78   H43   S    
C73   C74   S    
C33   O29   S    
C85   H60   S    
C65   C66   S    
O5    V1    S    
C71   H25   S    
C72   H27   S    
O23   C69   S    
O16   V4    S    
C84   H58   S    
C19   O24   S    
C3    O13   A    
C38   F5    S    
C79   H45   S    
C34   C50   A    
C48   C52   A    
C29   C37   A    
C75   C76   S    
C21   H2    S    
C15   C19   A    
O11   V3    S    
C76   H38   S    
O12   V4    S    
C16   C27   A    
C6    C12   S    
O26   C75   S    
C22   C26   A    
C1    C32   S    
O10   C6    A    
C71   C72   S    
C78   H42   S    
C73   H29   S    
O25   C73   S    
C70   H21   S    
C43   C47   A    
C13   C26   A    
C47   C55   A    
O31   C85   S    
C74   H31   S    
C81   H50   S    
C85   C86   S    
C22   H1    S    
O20   V2    S    
C44   F3    S    
C13   O25   S    
C15   C28   A    
C69   H19   S    
C13   C17   A    
C88   H66   S    
C8    C10   S    
C69   C70   S    
O6    C2    A    
C63   H7    S    
C40   F7    S    
C33   C37   A    
C24   C28   A    
C17   O22   S    
C32   C40   A    
C2    C31   S    
C66   H12   S    
C65   H9    S    
C81   H49   S    
C4    O14   A    
C74   H32   S    
C45   C49   A    
C23   H4    S    
C12   C19   A    
C66   H13   S    
C29   C41   A    
C85   H59   S    
C78   H41   S    
C55   C60   A    
C47   C51   A    
C67   C68   S    
O4    V2    S    
C31   C43   A    
C86   H62   S    
O28   C79   S    
C81   C82   S    
