data_mof_unit_39234.cif
_audit_creation_date              2012-12-10T16:56:33-0500
_audit_creation_method            fapswitch 2.2
_symmetry_space_group_name_H-M    P1
_symmetry_Int_Tables_number       1
_space_group_crystal_system       triclinic
_cell_length_a                    7.761914
_cell_length_b                    8.614929
_cell_length_c                    15.697515
_cell_angle_alpha                 90.911703
_cell_angle_beta                  85.882269
_cell_angle_gamma                 93.654302
_cell_volume                      1044.76069008

loop_
_atom_site_label
_atom_site_type_symbol
_atom_type_description
_atom_site_fract_x
_atom_site_fract_y
_atom_site_fract_z
_atom_type_partial_charge
C1    C     C_R   0.544702 0.794143 0.493015 0.882208
C2    C     C_3   0.429259 0.362935 0.028574 0.232180
C3    C     C_1   0.506410 0.499418 0.750791 -0.134748
C4    C     C_1   0.493536 0.500281 0.249292 -0.163127
C5    C     C_3   0.337428 0.477792 0.975457 -0.212367
C6    C     C_3   0.662328 0.521326 0.024725 -0.224324
C7    C     C_3   0.504150 0.499547 0.917131 0.093111
C8    C     C_3   0.495634 0.499608 0.083025 0.096498
C9    C     C_1   0.506948 0.499250 0.826135 0.011811
C10   C     C_1   0.492924 0.500172 0.173978 -0.005285
C11   C     C_3   0.740513 0.018227 0.358264 -0.312159
C12   C     C_R   0.453998 0.206014 0.496953 0.884085
C13   C     C_3   0.180121 0.969080 0.425565 -0.194144
C14   C     C_R   0.502164 0.499989 0.661991 0.912270
C15   C     C_R   0.497831 0.499971 0.338031 0.853287
C16   C     C_2   0.565449 0.955348 0.476048 0.203944
C17   C     C_2   0.426347 0.043431 0.488846 0.173757
C18   C     C_3   0.404250 0.615318 0.031537 -0.207415
C19   C     C_3   0.595522 0.383797 0.968644 -0.196267
C20   C     C_3   0.570511 0.636191 0.971628 0.233110
H1    H     H_    0.326533 0.710117 0.059151 0.187711
H2    H     H_    0.257284 0.900670 0.377473 0.124671
H3    H     H_    0.160479 0.085859 0.400040 0.148000
H4    H     H_    0.051670 0.905881 0.436313 0.230925
H5    H     H_    0.673252 0.288989 0.941056 0.192546
H6    H     H_    0.794913 0.539666 0.046808 0.171067
H7    H     H_    0.204825 0.459450 0.953400 0.174849
H8    H     H_    0.013481 0.381699 0.436769 0.199309
H9    H     H_    0.986508 0.618368 0.563172 0.214098
H10   H     H_    0.640768 0.089931 0.333718 0.156227
H11   H     H_    0.729202 0.898176 0.331053 0.159368
H12   H     H_    0.868836 0.071939 0.335519 0.189241
I1    I     I_    0.683403 0.854093 0.925261 -0.331678
I2    I     I_    0.316594 0.145397 0.075674 -0.387786
N1    N     N_2   0.950320 0.457950 0.477300 -0.160604
N2    N     N_2   0.049680 0.542050 0.522700 -0.160311
O1    O     O_R   0.389250 0.738570 0.505570 -0.584320
O2    O     O_3   0.257297 0.982168 0.504252 -0.578531
O3    O     O_R   0.610750 0.261430 0.494430 -0.573564
O4    O     O_R   0.678390 0.711630 0.491020 -0.609064
O5    O     O_R   0.321610 0.288370 0.508980 -0.599265
O6    O     O_R   0.355460 0.513480 0.630490 -0.598830
O7    O     O_R   0.644540 0.486520 0.369510 -0.619706
O8    O     O_R   0.644600 0.486540 0.615950 -0.615488
O9    O     O_R   0.355400 0.513460 0.384050 -0.637614
O10   O     O_3   0.729606 0.015817 0.448387 -0.592524
Zn1   Zn    Zn3+2 0.306940 0.517990 0.509710 0.988731
Zn2   Zn    Zn3+2 0.693060 0.482010 0.490290 0.986115

loop_
_geom_bond_atom_site_label_1
_geom_bond_atom_site_label_2
_ccdc_geom_bond_type
C12   C17   S    
C11   H12   S    
C12   O5    A    
C3    C9    T    
O1    Zn1   S    
C18   H1    S    
C6    C20   S    
O7    Zn2   S    
C18   C20   S    
N1    N2    D    
C1    O1    A    
C14   O6    A    
C2    I2    S    
C12   O3    A    
O5    Zn1   S    
C11   H11   S    
C1    C16   S    
C6    C19   S    
H9    N2    S    
C13   H3    S    
C13   O2    S    
C6    H6    S    
C3    C14   S    
C4    C15   S    
N1    Zn2   S    
C14   O8    A    
C13   H2    S    
C7    C19   S    
O6    Zn1   S    
O9    Zn1   S    
C19   H5    S    
C2    C8    S    
C2    C5    S    
C20   I1    S    
C15   O7    A    
C7    C9    S    
C17   O2    S    
C13   H4    S    
N2    Zn1   S    
C8    C10   S    
C7    C20   S    
C16   O10   S    
C5    C7    S    
C15   O9    A    
O4    Zn2   S    
C16   C17   D    
C11   O10   S    
C6    C8    S    
C5    C18   S    
C1    O4    A    
C2    C19   S    
C5    H7    S    
H8    N1    S    
C4    C10   T    
C8    C18   S    
O8    Zn2   S    
C11   H10   S    
O3    Zn2   S    
