data_mof_unit_48793.cif
_audit_creation_date              2012-12-10T16:45:23-0500
_audit_creation_method            fapswitch 2.2
_symmetry_space_group_name_H-M    P1
_symmetry_Int_Tables_number       1
_space_group_crystal_system       triclinic
_cell_length_a                    7.447758
_cell_length_b                    8.69154
_cell_length_c                    15.637485
_cell_angle_alpha                 94.185136
_cell_angle_beta                  75.099596
_cell_angle_gamma                 103.20298
_cell_volume                      952.249160774

loop_
_atom_site_label
_atom_site_type_symbol
_atom_type_description
_atom_site_fract_x
_atom_site_fract_y
_atom_site_fract_z
_atom_type_partial_charge
C1    C     C_R   0.545138 0.800145 0.502562 0.883679
C2    C     C_R   0.454937 0.199857 0.497344 0.890922
C3    C     C_R   0.251825 0.465830 0.092363 0.176028
C4    C     C_R   0.665529 0.714329 0.938178 0.178349
C5    C     C_R   0.122782 0.428683 0.038962 0.582642
C6    C     C_R   0.793474 0.759645 0.991427 0.573876
C7    C     C_2   0.570541 0.968081 0.503753 -0.340207
C8    C     C_2   0.429634 0.031914 0.496030 -0.345045
C9    C     C_R   0.383886 0.488749 0.666890 0.806637
C10   C     C_R   0.616183 0.514820 0.333416 0.793797
C11   C     C_R   0.311160 0.482392 0.763799 -0.062704
C12   C     C_R   0.687073 0.555766 0.239531 -0.008785
C13   C     C_R   0.054016 0.410940 0.894467 -0.069653
C14   C     C_R   0.887368 0.738903 0.126901 -0.090241
C15   C     C_R   0.117249 0.427120 0.802918 -0.171184
C16   C     C_R   0.846587 0.677780 0.211363 -0.149343
C17   C     C_R   0.438118 0.530405 0.817899 -0.117956
C18   C     C_R   0.570963 0.495661 0.182171 -0.040399
C19   C     C_R   0.373673 0.531649 0.910598 0.069137
C20   C     C_R   0.589232 0.574191 0.104000 0.058388
C21   C     C_R   0.182564 0.457248 0.948372 -0.020270
C22   C     C_R   0.758651 0.689601 0.073206 -0.032915
C23   C     C_R   0.498026 0.593717 0.966170 -0.135993
C24   C     C_R   0.446766 0.540144 0.055114 -0.122227
Cu1   Cu    Cu3+1 0.322120 0.483240 0.490330 0.990056
Cu2   Cu    Cu3+1 0.677880 0.516760 0.509670 0.989108
H1    H     H_    0.465966 0.387928 0.200370 0.177332
H2    H     H_    0.588869 0.561070 0.787245 0.178963
H3    H     H_    0.937102 0.727919 0.255169 0.172635
H4    H     H_    0.015981 0.389779 0.762646 0.166684
H5    H     H_    0.905035 0.360013 0.922727 0.199200
H6    H     H_    0.014567 0.830454 0.105665 0.203093
H7    H     H_    0.706306 0.039530 0.511029 0.182932
H8    H     H_    0.293880 0.960461 0.488740 0.182092
H9    H     H_    0.004053 0.616358 0.568886 0.233893
H10   H     H_    0.995738 0.383353 0.431292 0.255691
N1    N     N_2   0.945180 0.542040 0.524240 -0.215175
N2    N     N_2   0.054820 0.457960 0.475760 -0.201373
O1    O     O_R   0.384450 0.714270 0.493720 -0.582605
O2    O     O_R   0.615550 0.285730 0.506280 -0.582811
O3    O     O_R   0.684880 0.742590 0.510050 -0.579465
O4    O     O_R   0.315120 0.257410 0.489950 -0.580183
O5    O     O_R   0.265540 0.477900 0.617090 -0.589067
O6    O     O_R   0.734460 0.522100 0.382910 -0.561969
O7    O     O_R   0.565970 0.506210 0.633420 -0.577499
O8    O     O_R   0.434030 0.493790 0.366580 -0.559721
F1    F     F_    0.937918 0.359837 0.075559 -0.640053
F2    F     F_    0.950936 0.876386 0.963998 -0.617053
Br1   Br    Br    0.133659 0.439897 0.217463 -0.513763
Br2   Br    Br    0.705660 0.854287 0.841133 -0.437475

loop_
_geom_bond_atom_site_label_1
_geom_bond_atom_site_label_2
_ccdc_geom_bond_type
Cu1   O4    S    
C10   O8    A    
C19   C23   A    
C23   C24   A    
Cu2   N1    S    
C9    O7    A    
N1    N2    D    
C14   H6    S    
Cu1   N2    S    
C7    H7    S    
Cu1   O5    S    
C11   C15   A    
H10   N2    S    
C3    Br1   S    
C13   C21   A    
C7    C8    D    
Cu1   Cu2   S    
C8    H8    S    
Cu1   O1    S    
C9    C11   S    
Cu2   O2    S    
C3    C24   A    
C6    F2    S    
C2    O4    A    
C10   C12   S    
C1    O3    A    
C19   C21   A    
C20   C22   A    
C18   C20   A    
C13   C15   A    
C14   C22   A    
C14   C16   A    
C9    O5    A    
C1    O1    A    
Cu2   O6    S    
C5    F1    S    
C17   C19   A    
C2    O2    A    
C5    C21   A    
C15   H4    S    
C4    C6    A    
C12   C18   A    
C4    C23   A    
C20   C24   A    
C11   C17   A    
Cu2   O7    S    
H9    N1    S    
C16   H3    S    
C1    C7    S    
C17   H2    S    
C10   O6    A    
Cu1   O8    S    
C13   H5    S    
C2    C8    S    
C18   H1    S    
C12   C16   A    
Cu2   O3    S    
C4    Br2   S    
C3    C5    A    
C6    C22   A    
