data_mof_unit_60566.cif
_audit_creation_date              2013-03-05T15:44:59-0500
_audit_creation_method            fapswitch 2.2
_symmetry_space_group_name_H-M    P1
_symmetry_Int_Tables_number       1
_space_group_crystal_system       triclinic
_cell_length_a                    21.782132
_cell_length_b                    21.785411
_cell_length_c                    22.10379
_cell_angle_alpha                 61.137513
_cell_angle_beta                  119.663725
_cell_angle_gamma                 90.280769
_cell_volume                      7595.4544241

loop_
_atom_site_label
_atom_site_type_symbol
_atom_site_description
_atom_site_fract_x
_atom_site_fract_y
_atom_site_fract_z
_atom_type_partial_charge
O1    O     O_R   0.590210 0.447820 0.500000 -0.560747
O2    O     O_R   0.590150 0.552170 0.500020 -0.575853
C1    C     C_R   0.620096 0.498918 0.502899 0.890323
O3    O     O_R   0.439580 0.508290 0.379070 -0.578025
O4    O     O_R   0.439510 0.612640 0.379090 -0.574250
C2    C     C_R   0.419855 0.579571 0.339933 0.766281
Cu1   Cu    Cu3+1 0.500040 0.438210 0.499990 1.079942
Cu2   Cu    Cu3+1 0.499960 0.561790 0.500010 1.096069
O5    O     O_R   0.409850 0.447830 0.499980 -0.588497
O6    O     O_R   0.409790 0.552180 0.500000 -0.546046
O7    O     O_R   0.560490 0.387360 0.620910 -0.550423
O8    O     O_R   0.560420 0.491710 0.620930 -0.552985
C3    C     C_R   0.381075 0.500338 0.499076 0.860743
C4    C     C_R   0.578947 0.420473 0.659947 0.878755
C5    C     C_3   0.291579 0.751196 0.971996 0.314780
C6    C     C_3   0.300390 0.778530 0.028208 -0.348646
H1    H     H_    0.341725 0.805553 0.050238 0.210599
C7    C     C_1   0.374856 0.623241 0.250437 -0.122903
C8    C     C_1   0.124344 0.871308 0.749373 -0.093749
C9    C     C_3   0.283712 0.678807 0.027720 0.289603
C10   C     C_3   0.291420 0.705241 0.083782 -0.045808
C11   C     C_3   0.199063 0.713999 0.972730 0.120286
C12   C     C_3   0.206530 0.786674 0.915994 -0.085360
C13   C     C_3   0.206447 0.740470 0.028396 0.293320
C14   C     C_3   0.214619 0.812606 0.972666 0.315467
C15   C     C_1   0.337119 0.660140 0.175219 0.150207
C16   C     C_1   0.161474 0.832881 0.824542 0.184849
H2    H     H_    0.645191 0.609451 0.404758 0.179546
C17   C     C_R   0.758874 0.374118 0.641984 0.292999
C18   C     C_R   0.813194 0.305131 0.692039 0.223488
C19   C     C_R   0.862152 0.295639 0.670973 0.367062
C20   C     C_R   0.859006 0.355688 0.602410 0.268867
C21   C     C_R   0.808898 0.426847 0.556968 -0.187022
C22   C     C_R   0.751636 0.432068 0.569043 -0.013725
C23   C     C_R   0.689987 0.496803 0.509230 -0.057511
C24   C     C_R   0.692047 0.559513 0.449317 -0.239780
C25   C     C_R   0.753590 0.559079 0.445516 0.347284
C26   C     C_R   0.812860 0.493102 0.499099 -0.113362
C27   C     C_3   0.720590 0.198918 0.026504 0.153832
C28   C     C_3   0.683115 0.282753 0.972703 0.259664
C29   C     C_1   0.623809 0.376701 0.749238 -0.074635
C30   C     C_1   0.875575 0.125346 0.250824 -0.043921
C31   C     C_3   0.746869 0.208586 0.970182 0.151104
C32   C     C_3   0.708986 0.292862 0.915553 -0.173126
C33   C     C_3   0.819186 0.217418 0.027387 0.148678
C34   C     C_3   0.793239 0.207433 0.084459 -0.177890
C35   C     C_3   0.781737 0.301275 0.973483 0.146895
C36   C     C_3   0.755427 0.291706 0.029773 0.270392
C37   C     C_1   0.662090 0.339163 0.824309 0.220401
C38   C     C_1   0.838389 0.162548 0.175746 0.235667
C39   C     C_R   0.246599 0.510230 0.363113 -0.267073
H3    H     H_    0.292088 0.520302 0.356182 0.142419
C40   C     C_R   0.184969 0.506289 0.301435 0.415456
C41   C     C_R   0.125275 0.492681 0.309034 0.323141
C42   C     C_R   0.126742 0.487396 0.375639 -0.185776
H4    H     H_    0.081532 0.473460 0.381380 0.209393
C43   C     C_R   0.186447 0.496331 0.435143 0.030603
C44   C     C_R   0.249182 0.502558 0.431667 -0.031361
C45   C     C_R   0.313295 0.501247 0.496613 -0.152446
C46   C     C_R   0.314725 0.498329 0.561957 0.394568
C47   C     C_R   0.250181 0.499915 0.561426 0.322609
C48   C     C_R   0.186013 0.497758 0.498829 -0.126336
O9    O     O_R   0.052170 0.909710 0.500000 -0.582530
O10   O     O_R   0.947780 0.909820 0.499990 -0.540281
C49   C     C_R   0.998722 0.882209 0.498012 0.950926
O11   O     O_R   0.112650 0.939420 0.620930 -0.583313
O12   O     O_R   0.008260 0.939530 0.620910 -0.541783
C50   C     C_R   0.079881 0.917691 0.659916 0.843410
Cu3   Cu    Cu3+1 0.061810 0.999860 0.500010 1.087096
Cu4   Cu    Cu3+1 0.938190 0.999990 0.499990 1.163942
O13   O     O_R   0.052220 0.090030 0.500010 -0.584365
O14   O     O_R   0.947830 0.090140 0.500000 -0.531336
O15   O     O_R   0.991740 0.060320 0.379090 -0.557747
O16   O     O_R   0.887350 0.060430 0.379070 -0.553712
C51   C     C_R   0.001056 0.117505 0.502041 0.933340
C52   C     C_R   0.920066 0.080659 0.340083 0.859142
O17   O     O_R   0.964960 0.625150 0.430050 -0.532066
O18   O     O_R   0.034940 0.555150 0.570020 -0.563289
C53   C     C_R   0.001897 0.618741 0.500717 0.860313
O19   O     O_R   0.874830 0.535020 0.430000 -0.531395
O20   O     O_R   0.944810 0.465010 0.569970 -0.564065
C54   C     C_R   0.880708 0.497027 0.499816 0.883230
Cu5   Cu    Cu3+1 0.958570 0.541460 0.417120 1.201517
Cu6   Cu    Cu3+1 0.041430 0.458560 0.582880 1.177730
O21   O     O_R   0.965060 0.444870 0.429980 -0.556365
O22   O     O_R   0.035040 0.374860 0.569950 -0.546064
O23   O     O_R   0.055190 0.535000 0.430030 -0.572319
O24   O     O_R   0.125170 0.465000 0.570000 -0.541933
C55   C     C_R   0.004692 0.381416 0.498966 0.905090
C56   C     C_R   0.119079 0.498513 0.499782 0.818769
C57   C     C_R   0.988627 0.878908 0.361112 0.294104
C58   C     C_R   0.006270 0.872886 0.310070 0.230606
C59   C     C_R   0.032204 0.803155 0.328829 0.298406
C60   C     C_R   0.039785 0.739638 0.397517 0.301985
C61   C     C_R   0.016434 0.745518 0.445015 -0.176600
C62   C     C_R   0.001244 0.814446 0.433847 -0.084979
C63   C     C_R   0.996004 0.817145 0.494090 -0.093438
C64   C     C_R   0.993117 0.755684 0.555606 0.298999
C65   C     C_R   0.995103 0.690455 0.557242 0.246545
C66   C     C_R   0.006720 0.685191 0.502306 -0.189860
C67   C     C_R   0.104743 0.114270 0.655941 0.311383
C68   C     C_R   0.163198 0.115525 0.723536 0.224698
C69   C     C_R   0.183331 0.180270 0.707877 0.361673
C70   C     C_R   0.137511 0.246179 0.628696 0.287095
C71   C     C_R   0.068595 0.248167 0.567234 -0.164986
C72   C     C_R   0.058314 0.180976 0.576137 -0.045942
C73   C     C_R   0.002152 0.183111 0.504479 -0.158842
C74   C     C_R   0.950708 0.250246 0.430128 0.206346
C75   C     C_R   0.952699 0.315615 0.427018 0.278758
C76   C     C_R   0.010350 0.315025 0.496507 -0.143756
O25   O     O_3   0.911679 0.227365 0.713847 -0.613708
H5    H     H_    0.908412 0.190184 0.760106 0.398062
N1    N     N_R   0.896932 0.340994 0.570731 0.131147
O26   O     O_R   0.860956 0.367955 0.491213 -0.356450
O27   O     O_R   0.960132 0.289129 0.621462 -0.289100
N2    N     N_R   0.755136 0.626720 0.386934 0.125630
O28   O     O_R   0.736636 0.639448 0.315299 -0.281864
O29   O     O_R   0.758402 0.680992 0.397050 -0.288483
O30   O     O_3   0.611888 0.317024 0.944323 -0.631261
H6    H     H_    0.612961 0.299737 0.995445 0.370875
N3    N     N_R   0.684962 0.144139 0.052189 0.185690
O31   O     O_R   0.623464 0.144115 0.996011 -0.233695
O32   O     O_R   0.714412 0.094896 0.130923 -0.302713
O33   O     O_3   0.759663 0.335442 0.060799 -0.597037
H7    H     H_    0.729936 0.386208 0.010816 0.371213
N4    N     N_R   0.817317 0.356063 0.947695 0.187058
O34   O     O_R   0.878333 0.356721 0.003815 -0.210564
O35   O     O_R   0.788863 0.404020 0.868896 -0.302183
N5    N     N_R   0.892606 0.182917 0.054010 0.206129
O36   O     O_R   0.906227 0.196595 0.998465 -0.224922
O37   O     O_R   0.944606 0.138181 0.132954 -0.305335
N6    N     N_R   0.744191 0.160761 0.940872 0.203443
O38   O     O_R   0.779019 0.090567 0.994580 -0.227202
O39   O     O_R   0.707751 0.187789 0.861359 -0.305517
O40   O     O_3   0.380260 0.495456 0.624681 -0.694513
H8    H     H_    0.375198 0.489603 0.669104 0.395480
O41   O     O_3   0.335702 0.756064 0.941650 -0.656958
H9    H     H_    0.387218 0.728606 0.991917 0.361278
O42   O     O_3   0.181965 0.515954 0.233364 -0.609530
H10   H     H_    0.227846 0.525702 0.237108 0.345469
N7    N     N_R   0.062368 0.484960 0.249083 0.165529
O43   O     O_R   0.068554 0.464326 0.205534 -0.192474
O44   O     O_R   0.998622 0.496449 0.239352 -0.263221
O45   O     O_3   0.251815 0.503575 0.622865 -0.682333
H11   H     H_    0.203886 0.537226 0.597727 0.322721
O46   O     O_3   0.986974 0.762287 0.611863 -0.685036
H12   H     H_    0.982537 0.716601 0.649751 0.393752
O47   O     O_3   0.952706 0.946531 0.336927 -0.737849
H13   H     H_    0.921980 0.979169 0.275126 0.351379
O48   O     O_3   0.999518 0.934179 0.242099 -0.604093
H14   H     H_    0.006462 0.974035 0.252292 0.370071
N8    N     N_R   0.053343 0.796339 0.279475 0.196486
O49   O     O_R   0.084506 0.841465 0.248750 -0.236860
O50   O     O_R   0.042218 0.744364 0.265589 -0.252293
O51   O     O_3   0.077736 0.673031 0.421847 -0.670329
H15   H     H_    0.108744 0.642114 0.483632 0.283671
O52   O     O_3   0.176892 0.882790 0.942971 -0.668296
H16   H     H_    0.194231 0.883254 0.993470 0.364759
N9    N     N_R   0.983693 0.630074 0.613399 0.121890
O53   O     O_R   0.922139 0.613940 0.584652 -0.310313
O54   O     O_R   0.036504 0.588670 0.692557 -0.287704
N10   N     N_R   0.895951 0.252548 0.356675 0.124500
O55   O     O_R   0.893056 0.291723 0.287982 -0.244454
O56   O     O_R   0.843927 0.222586 0.355603 -0.287020
O57   O     O_3   0.090769 0.049047 0.668036 -0.731813
H17   H     H_    0.138633 0.008948 0.711584 0.329144
O58   O     O_3   0.202701 0.054037 0.804488 -0.693877
H18   H     H_    0.169819 0.023641 0.811472 0.381974
O59   O     O_3   0.247640 0.180901 0.768389 -0.613468
H19   H     H_    0.276889 0.130289 0.818651 0.393231
N11   N     N_R   0.166204 0.307312 0.606520 0.136688
O60   O     O_R   0.157847 0.341833 0.534510 -0.419316
O61   O     O_R   0.210543 0.320858 0.661886 -0.238408
N12   N     N_R   0.894615 0.382081 0.352945 0.172828
O62   O     O_R   0.907573 0.429080 0.299275 -0.232887
O63   O     O_R   0.826352 0.388205 0.331198 -0.222428
O64   O     O_3   0.162041 0.735155 0.058515 -0.638825
H20   H     H_    0.110662 0.763234 0.008128 0.372895
N13   N     N_R   0.145516 0.677218 0.945799 0.168504
O65   O     O_R   0.145750 0.616107 0.001145 -0.218114
O66   O     O_R   0.097420 0.705011 0.866741 -0.298070
O67   O     O_3   0.320770 0.608482 0.057071 -0.642519
H21   H     H_    0.304369 0.608728 0.006350 0.366801
O68   O     O_3   0.716764 0.388197 0.666875 -0.733575
H22   H     H_    0.745829 0.358130 0.728731 0.355348
O69   O     O_3   0.817166 0.245293 0.759072 -0.663890
H23   H     H_    0.767485 0.251030 0.749549 0.374684

loop_
_geom_bond_atom_site_label_1
_geom_bond_atom_site_label_2
_geom_bond_distance
_ccdc_geom_bond_type
C32   C37   1.461299 S    
O11   C50   1.299173 A    
C71   C76   1.425372 A    
O9    C49   1.297777 A    
C51   C73   1.455666 S    
O57   H17   0.990158 S    
C17   O68   1.379628 S    
C65   N9    1.434821 S    
C68   C69   1.405156 A    
O59   H19   0.989743 S    
Cu5   O23   1.974896 S    
C61   C62   1.411186 A    
C7    C15   1.203989 T    
C10   C15   1.463620 S    
C63   C64   1.404200 A    
C43   C48   1.427633 A    
C25   N2    1.431724 S    
C40   C41   1.403938 A    
O68   H22   0.990907 S    
C33   N5    1.456724 S    
N11   O61   1.301359 A    
C68   O58   1.381967 S    
O16   C52   1.297234 A    
Cu5   Cu6   2.653620 S    
C18   O69   1.382656 S    
C24   C25   1.384400 A    
Cu6   O22   1.971612 S    
N10   O55   1.300993 A    
N7    O44   1.301066 A    
C18   C19   1.408329 A    
O7    C4    1.296642 A    
O11   Cu3   1.947014 S    
C72   C73   1.420925 A    
O17   Cu5   1.971393 S    
C5    C6    1.553157 S    
C48   C56   1.468773 S    
C6    C14   1.553124 S    
C74   C75   1.393729 A    
C28   C36   1.542123 S    
C22   C23   1.414664 A    
Cu3   O13   1.976484 S    
O5    C3    1.293976 A    
O67   H21   0.991139 S    
C70   C71   1.423423 A    
C69   C70   1.407089 A    
C59   C60   1.404621 A    
C57   C62   1.420986 A    
N12   O62   1.300508 A    
O52   H16   0.991089 S    
N9    O53   1.301034 A    
N6    O38   1.300243 A    
Cu4   O16   1.947012 S    
C73   C74   1.402984 A    
N9    O54   1.301001 A    
Cu3   O15   1.947128 S    
C12   C16   1.464311 S    
C20   N1    1.437636 S    
C17   C18   1.413912 A    
C8    C16   1.203863 T    
C32   C35   1.549083 S    
C5    C12   1.543400 S    
C45   C46   1.399290 A    
O13   C51   1.297807 A    
C26   C54   1.472595 S    
Cu3   Cu4   2.692506 S    
O19   Cu5   1.975042 S    
C29   C37   1.201909 T    
C57   O47   1.380314 S    
O20   C54   1.289542 A    
N10   O56   1.300699 A    
C33   C35   1.540666 S    
C5    C9    1.537693 S    
C2    C7    1.432523 S    
C34   C36   1.548223 S    
O51   H15   0.989113 S    
O46   H12   0.987813 S    
O12   C50   1.297455 A    
C67   C68   1.417868 A    
O9    Cu3   1.974218 S    
C53   C66   1.466944 S    
O40   H8    0.989306 S    
O47   H13   0.990726 S    
C61   C66   1.425282 A    
O19   C54   1.286577 A    
C57   C58   1.417870 A    
O21   C55   1.286506 A    
C75   N12   1.434181 S    
C6    H1    1.109937 S    
C27   C31   1.540424 S    
C64   O46   1.386519 S    
O3    Cu1   1.950683 S    
C44   C45   1.410088 A    
C33   C34   1.548466 S    
C74   N10   1.437470 S    
C55   C76   1.481341 S    
O22   C55   1.295048 A    
C39   H3    1.081244 S    
N1    O27   1.301273 A    
C46   C47   1.400585 A    
O1    C1    1.299059 A    
C23   C24   1.390594 A    
Cu1   O7    1.943471 S    
C31   C32   1.548585 S    
C25   C26   1.413032 A    
C40   O42   1.381788 S    
C47   O45   1.381496 S    
C35   C36   1.540853 S    
C46   O40   1.386359 S    
C1    C23   1.457022 S    
Cu2   O8    1.950684 S    
C62   C63   1.419772 A    
C28   O30   1.397814 S    
C42   H4    1.077798 S    
C21   C22   1.414268 A    
C60   O51   1.377130 S    
O17   C53   1.285804 A    
C8    C50   1.433188 S    
C39   C44   1.413673 A    
C13   C14   1.537585 S    
O30   H6    0.991138 S    
C67   O57   1.375764 S    
C31   C33   1.541937 S    
N11   O60   1.300406 A    
N3    O31   1.300196 A    
C30   C38   1.201827 T    
C27   C34   1.549075 S    
O3    C2    1.298513 A    
Cu5   O21   1.978471 S    
O24   C56   1.289486 A    
O64   H20   0.991125 S    
C60   C61   1.427038 A    
O10   Cu4   1.976482 S    
C4    C29   1.429256 S    
C58   O48   1.381421 S    
O15   C52   1.297192 A    
C11   C13   1.536444 S    
O23   C56   1.284339 A    
C9    C11   1.536484 S    
O58   H18   0.990661 S    
O20   Cu6   1.974893 S    
C35   N4    1.456532 S    
C9    O67   1.397801 S    
N1    O26   1.301110 A    
O41   H9    0.991138 S    
C67   C72   1.421277 A    
Cu1   O5    1.976576 S    
C41   C42   1.404105 A    
C31   N6    1.456824 S    
N4    O35   1.300173 A    
O25   H5    0.989218 S    
O1    Cu1   1.974105 S    
C19   C20   1.413124 A    
O2    Cu2   1.976576 S    
Cu6   O24   1.975042 S    
N8    O50   1.301626 A    
C11   N13   1.456318 S    
O6    C3    1.292234 A    
C36   O33   1.397867 S    
O4    Cu2   1.943469 S    
O42   H10   0.991838 S    
C6    C10   1.561224 S    
C3    C45   1.450078 S    
C71   C72   1.412044 A    
C34   C38   1.461235 S    
C30   C52   1.428947 S    
C21   C26   1.432687 A    
C27   N3    1.456590 S    
C65   C66   1.410855 A    
O45   H11   0.988019 S    
O12   Cu4   1.947130 S    
C20   C21   1.425325 A    
C42   C43   1.417995 A    
O2    C1    1.292463 A    
N5    O36   1.300285 A    
C49   C63   1.460431 S    
N7    O43   1.301353 A    
O10   C49   1.294193 A    
C14   O52   1.397670 S    
O18   C53   1.285883 A    
O14   C51   1.291906 A    
C43   C44   1.408415 A    
O4    C2    1.297531 A    
N4    O34   1.300194 A    
N6    O39   1.300136 A    
C17   C22   1.415406 A    
C58   C59   1.402558 A    
N2    O29   1.300637 A    
N2    O28   1.300805 A    
C11   C12   1.545441 S    
C12   C14   1.543756 S    
C47   C48   1.420620 A    
N12   O63   1.300905 A    
N3    O32   1.300152 A    
Cu1   Cu2   2.692466 S    
C39   C40   1.403026 A    
N13   O65   1.300237 A    
C27   C28   1.540491 S    
O18   Cu6   1.978469 S    
O8    C4    1.297925 A    
C28   C32   1.548117 S    
C41   N7    1.441369 S    
N13   O66   1.300195 A    
C9    C10   1.541887 S    
H2    C24   1.084772 S    
Cu2   O6    1.974107 S    
C64   C65   1.404284 A    
C10   C13   1.541920 S    
C70   N11   1.438566 S    
C13   O64   1.397886 S    
C69   O59   1.383635 S    
C19   O25   1.384630 S    
O48   H14   0.990657 S    
C59   N8    1.441681 S    
Cu4   O14   1.974222 S    
N8    O49   1.301409 A    
C5    O41   1.397626 S    
O69   H23   0.990694 S    
C75   C76   1.417123 A    
O33   H7    0.991117 S    
N5    O37   1.300120 A    
