data_mof_unit_29433.cif
_audit_creation_date              2012-12-11T17:24:03-0500
_audit_creation_method            fapswitch 2.2
_symmetry_space_group_name_H-M    P1
_symmetry_Int_Tables_number       1
_space_group_crystal_system       triclinic
_cell_length_a                    22.671972
_cell_length_b                    7.203
_cell_length_c                    21.057607
_cell_angle_alpha                 89.997701
_cell_angle_beta                  93.727988
_cell_angle_gamma                 89.999037
_cell_volume                      3431.56141541

loop_
_atom_site_label
_atom_site_type_symbol
_atom_type_description
_atom_site_fract_x
_atom_site_fract_y
_atom_site_fract_z
_atom_type_partial_charge
O1    O     O_R   0.307200 0.614510 0.194080 -0.530400
O2    O     O_R   0.692800 0.385490 0.805920 -0.530345
O3    O     O_R   0.192800 0.114510 0.305920 -0.530349
O4    O     O_R   0.807200 0.885490 0.694080 -0.530261
O5    O     O_R   0.188140 0.283260 0.181690 -0.537816
O6    O     O_R   0.811860 0.716740 0.818310 -0.537739
O7    O     O_R   0.311860 0.783260 0.318310 -0.537858
O8    O     O_R   0.688140 0.216740 0.681690 -0.537801
C1    C     C_R   0.168288 0.453263 0.166319 0.707153
C2    C     C_R   0.831711 0.546741 0.833682 0.707175
C3    C     C_R   0.331716 0.953254 0.333677 0.707143
C4    C     C_R   0.668283 0.046750 0.666324 0.707152
O9    O     O_R   0.306460 0.284700 0.186400 -0.533819
O10   O     O_R   0.693540 0.715300 0.813600 -0.533881
O11   O     O_R   0.193540 0.784700 0.313600 -0.533867
O12   O     O_R   0.806460 0.215300 0.686400 -0.533949
O13   O     O_R   0.311970 0.115840 0.310660 -0.534837
O14   O     O_R   0.688030 0.884160 0.689340 -0.534894
O15   O     O_R   0.188030 0.615840 0.189340 -0.534878
O16   O     O_R   0.811970 0.384160 0.810660 -0.534960
C5    C     C_R   0.325077 0.453407 0.171414 0.711469
C6    C     C_R   0.674923 0.546589 0.828586 0.711438
C7    C     C_R   0.174924 0.953403 0.328587 0.711471
C8    C     C_R   0.825078 0.046592 0.671414 0.711446
O17   O     O_3   0.251670 0.448440 0.290760 -0.373743
O18   O     O_3   0.748330 0.551560 0.709240 -0.373737
O19   O     O_3   0.248330 0.948440 0.209240 -0.373745
O20   O     O_3   0.751670 0.051560 0.790760 -0.373747
V1    V     V_3+5 0.249690 0.173030 0.242440 1.438601
V2    V     V_3+5 0.750310 0.826970 0.757560 1.438638
V3    V     V_3+5 0.250310 0.673030 0.257560 1.438419
V4    V     V_3+5 0.749690 0.326970 0.742440 1.438357
C9    C     C_R   0.986140 0.171892 0.526107 -0.166467
C10   C     C_R   0.013854 0.828085 0.473882 -0.166466
C11   C     C_R   0.514005 0.671970 0.974059 -0.166355
C12   C     C_R   0.485984 0.327994 0.025925 -0.166344
H1    H     H_    0.975887 0.305995 0.545806 0.107771
H2    H     H_    0.024112 0.693987 0.454188 0.107869
H3    H     H_    0.524379 0.806132 0.954498 0.107839
H4    H     H_    0.475606 0.193836 0.045478 0.107894
C13   C     C_R   0.954076 0.013841 0.542286 0.135205
C14   C     C_R   0.045920 0.986127 0.457707 0.135120
C15   C     C_R   0.545918 0.513823 0.957705 0.135134
C16   C     C_R   0.454074 0.486139 0.042285 0.135094
C17   C     C_R   0.968190 0.841929 0.515704 -0.160098
C18   C     C_R   0.031795 0.158053 0.484272 -0.160037
C19   C     C_R   0.531647 0.341819 0.984100 -0.160140
C20   C     C_R   0.468349 0.658149 0.015894 -0.160094
C21   C     C_1   0.907756 0.027111 0.586963 -0.078533
C22   C     C_1   0.092248 0.972835 0.413040 -0.078563
C23   C     C_1   0.592245 0.527103 0.913036 -0.078535
C24   C     C_1   0.407751 0.472853 0.086958 -0.078613
C25   C     C_1   0.130198 0.963050 0.374884 -0.173065
C26   C     C_1   0.869807 0.036918 0.625119 -0.173124
C27   C     C_1   0.369803 0.463065 0.125117 -0.173057
C28   C     C_1   0.630195 0.536912 0.874881 -0.173059
C29   C     C_R   0.441174 0.968296 0.363778 -0.055038
C30   C     C_R   0.558820 0.031929 0.636220 -0.055056
C31   C     C_R   0.058820 0.467633 0.136208 -0.055059
C32   C     C_R   0.941180 0.532703 0.863801 -0.055070
C33   C     C_R   0.382170 0.963077 0.381855 -0.095641
C34   C     C_R   0.617830 0.036944 0.618146 -0.095631
C35   C     C_R   0.117836 0.463108 0.118139 -0.095624
C36   C     C_R   0.882161 0.536923 0.881864 -0.095606
C37   C     C_R   0.370921 0.971861 0.446415 -0.230679
C38   C     C_R   0.629080 0.028081 0.553586 -0.230670
C39   C     C_R   0.129093 0.472599 0.053590 -0.230677
C40   C     C_R   0.870901 0.527321 0.946410 -0.230686
C41   C     C_R   0.417470 0.986511 0.493479 0.108719
C42   C     C_R   0.582529 0.013522 0.506522 0.108720
C43   C     C_R   0.082540 0.487249 0.006530 0.108722
C44   C     C_R   0.917456 0.512809 0.993473 0.108728
C45   C     C_R   0.476522 0.992381 0.476085 0.042578
C46   C     C_R   0.523475 0.007724 0.523914 0.042573
C47   C     C_R   0.023477 0.492397 0.023915 0.042558
C48   C     C_R   0.976521 0.507768 0.976090 0.042558
C49   C     C_R   0.488691 0.983014 0.411047 0.063366
C50   C     C_R   0.511304 0.017150 0.588953 0.063370
C51   C     C_R   0.011300 0.482311 0.088941 0.063367
C52   C     C_R   0.988700 0.517947 0.911065 0.063362
C53   C     C_R   0.405740 0.996063 0.557858 -0.183688
C54   C     C_R   0.594259 0.003959 0.442143 -0.183680
C55   C     C_R   0.094277 0.497505 0.942162 -0.183675
C56   C     C_R   0.905719 0.502551 0.057840 -0.183673
C57   C     C_R   0.451825 0.011201 0.604916 -0.183443
C58   C     C_R   0.548172 0.988898 0.395085 -0.183437
C59   C     C_R   0.048188 0.512659 0.895107 -0.183440
C60   C     C_R   0.951809 0.487520 0.104896 -0.183428
H5    H     H_    0.325575 0.968377 0.459920 0.110208
H6    H     H_    0.674429 0.031467 0.540083 0.110204
H7    H     H_    0.174448 0.469654 0.040093 0.110200
H8    H     H_    0.825545 0.530122 0.959904 0.110196
H9    H     H_    0.360640 0.991894 0.571975 0.125882
H10   H     H_    0.639361 0.008058 0.428027 0.125879
H11   H     H_    0.139386 0.493873 0.928051 0.125877
H12   H     H_    0.860608 0.506092 0.071948 0.125878
H13   H     H_    0.440297 0.018084 0.653925 0.143686
H14   H     H_    0.559702 0.981974 0.346078 0.143687
H15   H     H_    0.059720 0.520066 0.846107 0.143658
H16   H     H_    0.940275 0.480071 0.153894 0.143678
H17   H     H_    0.056049 0.281681 0.472614 0.113575
H18   H     H_    0.943924 0.718310 0.527344 0.113547
H19   H     H_    0.444210 0.781853 0.027688 0.113516
H20   H     H_    0.555796 0.218123 0.972321 0.113522
C61   C     C_R   0.453057 0.957867 0.295670 0.070418
C62   C     C_R   0.459365 0.121199 0.260474 -0.120753
C63   C     C_R   0.475382 0.111398 0.197592 -0.125136
C64   C     C_R   0.484939 0.938921 0.169618 -0.091774
C65   C     C_R   0.478141 0.775833 0.204369 -0.112503
C66   C     C_R   0.462059 0.784941 0.267241 -0.129236
H21   H     H_    0.453024 0.255533 0.282114 0.101656
H22   H     H_    0.481352 0.237576 0.170962 0.113928
H23   H     H_    0.498288 0.931731 0.121319 0.103022
H24   H     H_    0.486253 0.642534 0.182968 0.114708
H25   H     H_    0.457809 0.658024 0.294150 0.104801
C67   C     C_R   0.546929 0.042656 0.704324 0.070394
C68   C     C_R   0.537588 0.215655 0.732577 -0.129528
C69   C     C_R   0.521506 0.224935 0.795451 -0.112423
C70   C     C_R   0.515023 0.061942 0.830364 -0.091753
C71   C     C_R   0.524907 0.889416 0.802560 -0.125251
C72   C     C_R   0.540947 0.879446 0.739687 -0.120422
H26   H     H_    0.541583 0.342468 0.705535 0.104952
H27   H     H_    0.513158 0.358268 0.816729 0.114645
H28   H     H_    0.501666 0.069215 0.878660 0.103104
H29   H     H_    0.519170 0.763305 0.829311 0.113923
H30   H     H_    0.547552 0.745048 0.718185 0.101556
C73   C     C_R   0.046935 0.456854 0.204312 0.070379
C74   C     C_R   0.040742 0.620031 0.239617 -0.120518
C75   C     C_R   0.024744 0.609977 0.302503 -0.125240
C76   C     C_R   0.015091 0.437396 0.330372 -0.091772
C77   C     C_R   0.021764 0.274453 0.295507 -0.112413
C78   C     C_R   0.037828 0.283816 0.232630 -0.129411
H31   H     H_    0.047161 0.754451 0.218060 0.101611
H32   H     H_    0.018868 0.736050 0.329217 0.113827
H33   H     H_    0.001766 0.430020 0.378679 0.103172
H34   H     H_    0.013576 0.141073 0.316825 0.114675
H35   H     H_    0.041989 0.157018 0.205637 0.104880
C79   C     C_R   0.953066 0.543921 0.795706 0.070321
C80   C     C_R   0.962650 0.717047 0.767639 -0.129840
C81   C     C_R   0.978653 0.726688 0.704742 -0.112318
C82   C     C_R   0.984830 0.563933 0.669629 -0.091723
C83   C     C_R   0.974715 0.391299 0.697256 -0.125389
C84   C     C_R   0.958741 0.380968 0.760143 -0.120034
H36   H     H_    0.958883 0.843659 0.794833 0.105120
H37   H     H_    0.987160 0.860102 0.683593 0.114616
H38   H     H_    0.998123 0.571453 0.621313 0.103278
H39   H     H_    0.980212 0.265367 0.670351 0.113852
H40   H     H_    0.951938 0.246470 0.781498 0.101476

loop_
_geom_bond_atom_site_label_1
_geom_bond_atom_site_label_2
_ccdc_geom_bond_type
O17   V3    S    
C29   C61   S    
C61   C66   A    
C47   C48   A    
O1    C5    A    
C54   H10   S    
O19   V1    S    
C68   C69   A    
O13   V1    S    
C45   C46   A    
O3    C7    A    
C76   H33   S    
C10   C14   A    
C44   C48   A    
O15   V3    S    
C74   C75   A    
C38   H6    S    
C70   H28   S    
C64   C65   A    
C37   H5    S    
O5    C1    A    
C36   C40   A    
O9    V1    S    
C52   C59   A    
C79   C84   A    
C56   H12   S    
O4    C8    A    
C37   C41   A    
C62   C63   A    
C31   C73   S    
C21   C26   T    
O1    V3    S    
C53   H9    S    
C67   C68   A    
C12   C19   A    
O2    V4    S    
C23   C28   T    
C14   C18   A    
O3    V1    S    
C73   C78   A    
C69   C70   A    
C1    O15   A    
C3    O13   A    
C2    O16   A    
O2    C6    A    
C63   C64   A    
C41   C45   A    
O14   V2    S    
C11   C15   A    
C65   C66   A    
C43   C55   A    
C24   C27   T    
C40   C44   A    
C16   C24   S    
O11   C7    A    
O12   C8    A    
C10   H2    S    
C30   C67   S    
C9    C18   A    
O10   V2    S    
C42   C54   A    
C11   C20   A    
C13   C21   S    
C51   C60   A    
C7    C25   S    
O5    V1    S    
C62   H21   S    
C84   H40   S    
C18   H17   S    
C35   C39   A    
C22   C25   T    
O7    V3    S    
C67   C72   A    
C34   C38   A    
O8    V4    S    
C29   C49   A    
C12   H4    S    
C41   C53   A    
C81   C82   A    
C77   H34   S    
C17   H18   S    
C31   C51   A    
C5    C27   S    
C71   H29   S    
C6    C28   S    
C78   H35   S    
C54   C58   A    
C20   H19   S    
C9    H1    S    
C56   C60   A    
C64   H23   S    
C11   H3    S    
C68   H26   S    
C42   C46   A    
C4    C34   S    
C80   H36   S    
O7    C3    A    
O8    C4    A    
C55   C59   A    
C55   H11   S    
C39   H7    S    
O9    C5    A    
C10   C17   A    
C60   H16   S    
C70   C71   A    
O11   V3    S    
C44   C56   A    
C30   C34   A    
C14   C22   S    
C82   H38   S    
C50   C57   A    
O6    V2    S    
C49   C58   A    
C12   C16   A    
C77   C78   A    
C71   C72   A    
C75   C76   A    
O16   V4    S    
C32   C52   A    
C45   C49   A    
C19   H20   S    
C1    C35   S    
C83   H39   S    
C2    C36   S    
C48   C52   A    
C15   C19   A    
C3    C33   S    
C81   H37   S    
O6    C2    A    
C80   C81   A    
C29   C33   A    
O18   V4    S    
O12   V4    S    
C61   C62   A    
C31   C35   A    
C32   C36   A    
C9    C13   A    
O10   C6    A    
O20   V2    S    
C76   C77   A    
C72   H30   S    
C16   C20   A    
C74   H31   S    
C43   C47   A    
C15   C23   S    
C38   C42   A    
C47   C51   A    
C65   H24   S    
C40   H8    S    
C39   C43   A    
C69   H27   S    
C58   H14   S    
O4    V2    S    
C57   H13   S    
C79   C80   A    
C30   C50   A    
C75   H32   S    
C59   H15   S    
C33   C37   A    
C46   C50   A    
C4    O14   A    
C13   C17   A    
C83   C84   A    
C63   H22   S    
C82   C83   A    
C8    C26   S    
C66   H25   S    
C53   C57   A    
C73   C74   A    
C32   C79   S    
