data_mof_unit_67917.cif
_audit_creation_date              2013-03-05T16:14:15-0500
_audit_creation_method            fapswitch 2.2
_symmetry_space_group_name_H-M    P1
_symmetry_Int_Tables_number       1
_space_group_crystal_system       triclinic
_cell_length_a                    10.875806
_cell_length_b                    10.546396
_cell_length_c                    10.199423
_cell_angle_alpha                 89.947007
_cell_angle_beta                  90.705384
_cell_angle_gamma                 89.405405
_cell_volume                      1169.72720316

loop_
_atom_site_label
_atom_site_type_symbol
_atom_site_description
_atom_site_fract_x
_atom_site_fract_y
_atom_site_fract_z
_atom_type_partial_charge
O1    O     O_R   0.499990 0.316750 0.614620 -0.600331
O2    O     O_R   0.500010 0.683250 0.385380 -0.600378
O3    O     O_R   0.499990 0.316780 0.385290 -0.563286
O4    O     O_R   0.500010 0.683220 0.614710 -0.563241
C1    C     C_R   0.500794 0.261712 0.499995 0.950917
C2    C     C_R   0.499206 0.738288 0.500005 0.950946
O5    O     O_R   0.316760 0.500000 0.614660 -0.629819
O6    O     O_R   0.683240 0.500000 0.385340 -0.629834
O7    O     O_R   0.316760 0.500020 0.385330 -0.603572
O8    O     O_R   0.683240 0.499980 0.614670 -0.603607
C3    C     C_R   0.260940 0.499351 0.498603 0.867857
C4    C     C_R   0.739061 0.500651 0.501396 0.867890
Zn1   Zn    Zn3+2 0.500000 0.499980 0.653120 1.012245
Zn2   Zn    Zn3+2 0.500000 0.500020 0.346880 1.012230
C5    C     C_R   0.141041 0.683053 0.063118 0.299890
C6    C     C_R   0.859025 0.317023 0.936916 0.299721
C7    C     C_R   0.119485 0.675357 0.197871 0.054676
C8    C     C_R   0.880557 0.324688 0.802160 0.054440
C9    C     C_R   0.109121 0.555909 0.257236 -0.134773
C10   C     C_R   0.890893 0.444122 0.742762 -0.134784
C11   C     C_R   0.136385 0.443904 0.188194 0.280293
C12   C     C_R   0.863643 0.556142 0.811785 0.280345
C13   C     C_R   0.165376 0.450932 0.055092 0.202683
C14   C     C_R   0.834671 0.549145 0.944894 0.202663
C15   C     C_R   0.160844 0.570075 0.990404 -0.182449
C16   C     C_R   0.839207 0.430011 0.009605 -0.182472
C17   C     C_R   0.931855 0.550028 0.396752 -0.156331
C18   C     C_R   0.068149 0.449986 0.603248 -0.156330
H1    H     H_    0.878658 0.588217 0.316979 0.222774
H2    H     H_    0.121346 0.411820 0.683034 0.222784
C19   C     C_R   0.872227 0.502405 0.504624 -0.051467
C20   C     C_R   0.127776 0.497599 0.495372 -0.051470
C21   C     C_R   0.941506 0.455910 0.611417 0.065707
C22   C     C_R   0.058500 0.544097 0.388578 0.065724
C23   C     C_R   0.599833 0.064228 0.443623 -0.005201
C24   C     C_R   0.400168 0.935772 0.556377 -0.005179
C25   C     C_R   0.599151 0.932762 0.443481 0.045136
C26   C     C_R   0.400850 0.067239 0.556519 0.045178
C27   C     C_R   0.499395 0.871257 0.499908 -0.025223
C28   C     C_R   0.500606 0.128743 0.500092 -0.025272
C29   C     C_R   0.482192 0.609348 0.070977 0.097022
C30   C     C_R   0.517821 0.390654 0.929022 0.097322
C31   C     C_R   0.480804 0.609256 0.928666 0.113433
C32   C     C_R   0.519250 0.390756 0.071336 0.113560
N1    N     N_R   0.499970 0.499970 0.857200 -0.105320
N2    N     N_R   0.500030 0.500030 0.142800 -0.105254
N3    N     N_3   0.179795 0.573891 0.851980 -0.393442
H3    H     H_    0.185185 0.666191 0.816182 0.244469
H4    H     H_    0.265232 0.532192 0.836301 0.232878
N4    N     N_3   0.820230 0.426209 0.148024 -0.393455
H5    H     H_    0.814839 0.333920 0.183824 0.244493
H6    H     H_    0.734797 0.467905 0.163686 0.232875
N5    N     N_3   0.453590 0.724434 0.859567 -0.380045
H7    H     H_    0.519177 0.792408 0.883070 0.248969
H8    H     H_    0.368231 0.758876 0.889377 0.160276
N6    N     N_3   0.546569 0.275609 0.140440 -0.380307
H9    H     H_    0.480876 0.207669 0.117189 0.249083
H10   H     H_    0.631825 0.241084 0.110408 0.160444
N7    N     N_R   0.135410 0.805158 0.000354 0.209233
O9    O     O_R   0.046253 0.830695 0.918296 -0.250374
O10   O     O_R   0.200770 0.898361 0.045712 -0.353233
N8    N     N_R   0.864635 0.194928 0.999700 0.209280
O11   O     O_R   0.953833 0.169355 0.081682 -0.250253
O12   O     O_R   0.799175 0.101761 0.954431 -0.353419
N9    N     N_3   0.101997 0.789585 0.272091 -0.331712
H11   H     H_    0.013761 0.790334 0.311460 0.229380
H12   H     H_    0.165855 0.789074 0.349507 0.180209
N10   N     N_3   0.898035 0.210442 0.727966 -0.331713
H13   H     H_    0.986261 0.209688 0.688573 0.229401
H14   H     H_    0.834160 0.210929 0.650565 0.180193
N11   N     N_R   0.131337 0.322796 0.253471 0.261887
O13   O     O_R   0.232921 0.264362 0.286795 -0.335718
O14   O     O_R   0.029172 0.285654 0.305425 -0.385608
N12   N     N_R   0.868698 0.677236 0.746478 0.261923
O15   O     O_R   0.767114 0.735625 0.713060 -0.335768
O16   O     O_R   0.970879 0.714378 0.694563 -0.385607
N13   N     N_R   0.195408 0.336557 0.985061 0.236210
O17   O     O_R   0.135159 0.306304 0.879697 -0.416429
O18   O     O_R   0.271355 0.253410 0.034915 -0.356866
N14   N     N_R   0.804656 0.663538 0.014907 0.236064
O19   O     O_R   0.864858 0.693739 0.120326 -0.416552
O20   O     O_R   0.728837 0.746773 0.964958 -0.356761
N15   N     N_3   0.700863 0.133245 0.390027 -0.453771
H15   H     H_    0.781376 0.107254 0.440583 0.206375
H16   H     H_    0.710691 0.107887 0.291698 0.225092
N16   N     N_3   0.299138 0.866757 0.609974 -0.453802
H17   H     H_    0.218625 0.892749 0.559419 0.206378
H18   H     H_    0.289308 0.892120 0.708301 0.225042
N17   N     N_3   0.699207 0.860481 0.389380 -0.423495
H19   H     H_    0.780402 0.883664 0.439283 0.220871
H20   H     H_    0.708112 0.884396 0.290511 0.233834
N18   N     N_3   0.300797 0.139520 0.610623 -0.423418
H21   H     H_    0.291895 0.115606 0.709493 0.233964
H22   H     H_    0.219600 0.116336 0.560724 0.220813
N19   N     N_3   0.465915 0.725994 0.139869 -0.385734
H23   H     H_    0.380406 0.764969 0.115365 0.197564
H24   H     H_    0.534444 0.789110 0.112582 0.224341
N20   N     N_3   0.534235 0.274038 0.860124 -0.385591
H25   H     H_    0.620046 0.235588 0.884112 0.197509
H26   H     H_    0.466221 0.210568 0.887869 0.224180

loop_
_geom_bond_atom_site_label_1
_geom_bond_atom_site_label_2
_geom_bond_distance
_ccdc_geom_bond_type
C26   C28   1.399397 A    
C17   H1    1.068609 S    
N19   H23   1.040395 S    
Zn2   N2    2.081502 S    
N5    H7    1.042545 S    
O5    C3    1.323703 A    
N12   O16   1.300743 A    
C11   N11   1.441688 S    
O1    C1    1.305842 A    
C9    C11   1.406615 A    
C14   C16   1.418820 A    
C16   N4    1.429902 S    
N16   H18   1.044648 S    
C5    C15   1.419980 A    
C8    N10   1.435621 S    
C26   N18   1.438083 S    
N6    H9    1.042520 S    
O4    Zn1   1.971477 S    
N8    O12   1.301055 A    
C31   N5    1.430261 S    
N15   H15   1.044710 S    
C32   N2    1.379647 A    
N10   H13   1.044762 S    
N9    H12   1.045113 S    
N4    H6    1.038040 S    
C29   N2    1.376144 A    
C19   C21   1.402036 A    
N17   H20   1.045140 S    
C15   N3    1.429916 S    
N13   O18   1.297522 A    
N7    O9    1.299009 A    
C29   C31   1.451390 A    
O2    C2    1.305844 A    
C30   C32   1.451413 A    
C14   N14   1.439143 S    
N5    H8    1.042298 S    
C17   C22   1.381677 A    
C6    C16   1.419963 A    
N7    O10   1.301062 A    
N12   O15   1.300844 A    
C17   C19   1.380798 A    
C18   C20   1.380786 A    
N3    H4    1.038110 S    
N11   O14   1.300758 A    
C23   N15   1.437571 S    
N16   H17   1.044708 S    
C24   N16   1.437571 S    
N13   O17   1.293705 A    
O8    Zn1   2.035833 S    
C30   N1    1.376137 A    
C20   C22   1.402040 A    
O7    Zn2   2.035835 S    
N8    O11   1.298923 A    
O7    C3    1.311760 A    
C32   N6    1.430225 S    
N3    H3    1.041809 S    
O6    C4    1.323704 A    
N18   H22   1.045125 S    
N4    H5    1.041708 S    
C13   N13   1.439118 S    
C31   N1    1.379673 A    
O3    Zn2   1.971476 S    
O8    C4    1.311773 A    
C10   C21   1.460263 S    
O4    C2    1.305558 A    
N15   H16   1.044650 S    
C10   C12   1.406611 A    
C3    C20   1.448544 S    
N9    H11   1.044764 S    
N20   H26   1.044209 S    
C11   C13   1.399536 A    
C4    C19   1.448569 S    
C12   C14   1.399548 A    
O1    Zn1   1.972267 S    
C12   N12   1.441691 S    
C24   C26   1.386597 A    
C5    C7    1.399515 A    
O6    Zn2   2.026375 S    
C23   C25   1.386598 A    
C5    N7    1.437978 S    
C24   C27   1.400031 A    
N14   O19   1.293777 A    
O3    C1    1.305557 A    
C9    C22   1.460296 S    
C18   C21   1.381664 A    
N19   H24   1.044553 S    
C7    N9    1.435615 S    
C25   N17   1.438084 S    
C30   N20   1.427734 S    
C23   C28   1.400029 A    
N11   O13   1.300826 A    
C25   C27   1.399401 A    
Zn1   N1    2.081502 S    
C29   N19   1.427793 S    
C18   H2    1.068621 S    
N18   H21   1.045140 S    
C7    C9    1.403391 A    
N14   O20   1.297652 A    
N6    H10   1.042284 S    
C8    C10   1.403374 A    
C13   C15   1.418806 A    
O2    Zn2   1.972266 S    
O5    Zn1   2.026377 S    
C6    C8    1.399487 A    
N20   H25   1.040006 S    
C1    C28   1.402360 S    
N10   H14   1.045113 S    
C2    C27   1.402362 S    
N17   H19   1.045126 S    
C6    N8    1.437957 S    
