data_mof_unit_61622.cif
_audit_creation_date              2012-12-10T21:24:23-0500
_audit_creation_method            fapswitch 2.2
_symmetry_space_group_name_H-M    P1
_symmetry_Int_Tables_number       1
_space_group_crystal_system       triclinic
_cell_length_a                    16.770934
_cell_length_b                    16.911744
_cell_length_c                    17.595187
_cell_angle_alpha                 89.857414
_cell_angle_beta                  90.815683
_cell_angle_gamma                 93.695229
_cell_volume                      4979.56194802

loop_
_atom_site_label
_atom_site_type_symbol
_atom_type_description
_atom_site_fract_x
_atom_site_fract_y
_atom_site_fract_z
_atom_type_partial_charge
C1    C     C_R   0.500136 0.496640 0.646823 0.940193
C2    C     C_R   0.499889 0.502764 0.353566 0.933145
C3    C     C_R   0.450116 0.452015 0.231029 -0.185868
C4    C     C_R   0.573740 0.511164 0.768157 -0.146067
C5    C     C_R   0.500391 0.506802 0.271361 -0.119067
C6    C     C_R   0.501232 0.490889 0.729725 -0.116643
C7    C     C_R   0.555288 0.559199 0.232520 -0.039753
C8    C     C_R   0.431854 0.467594 0.771853 -0.046069
C9    C     C_R   0.559244 0.553578 0.153583 -0.201340
C10   C     C_R   0.436306 0.470211 0.850894 -0.185205
C11   C     C_R   0.508888 0.498440 0.114653 0.117944
C12   C     C_R   0.508467 0.491983 0.887429 0.125492
C13   C     C_1   0.511270 0.495622 0.034790 -0.037352
C14   C     C_1   0.511261 0.493816 0.967392 -0.034464
C15   C     C_R   0.174984 0.545276 0.560129 -0.302271
C16   C     C_R   0.833560 0.565945 0.464339 -0.278364
C17   C     C_R   0.258439 0.539658 0.557287 0.009035
C18   C     C_R   0.749271 0.559860 0.462959 0.007700
C19   C     C_R   0.244978 0.465614 0.443415 -0.029818
C20   C     C_R   0.747784 0.443772 0.538589 0.052437
C21   C     C_R   0.160642 0.470478 0.443710 0.078155
C22   C     C_R   0.832671 0.447017 0.540340 0.081426
C23   C     C_R   0.490212 0.346658 0.498258 0.932829
C24   C     C_R   0.509534 0.653192 0.499665 1.042766
C25   C     C_R   0.124887 0.510447 0.503290 0.096210
C26   C     C_R   0.876419 0.509816 0.503784 0.080802
C27   C     C_1   0.037481 0.514651 0.505775 -0.031399
C28   C     C_1   0.964469 0.514686 0.504998 -0.033897
C29   C     C_R   0.486423 0.261881 0.483077 -0.169895
C30   C     C_R   0.511847 0.738952 0.500603 -0.199160
C31   C     C_R   0.542827 0.232686 0.432594 0.200355
C32   C     C_R   0.459431 0.776566 0.450590 0.111832
C33   C     C_R   0.546889 0.151022 0.423266 0.137902
C34   C     C_R   0.451186 0.858129 0.457506 0.174807
C35   C     C_R   0.494230 0.099389 0.463059 0.224362
C36   C     C_R   0.499108 0.901427 0.511483 0.232986
C37   C     C_R   0.435552 0.128415 0.509563 -0.239024
C38   C     C_R   0.552217 0.864394 0.558819 -0.268535
C39   C     C_R   0.430775 0.209249 0.519876 -0.114777
C40   C     C_R   0.559196 0.783069 0.554689 -0.122242
C41   C     C_R   0.454118 0.448008 0.152717 -0.132709
C42   C     C_R   0.577286 0.511699 0.846746 -0.157226
H1    H     H_    0.295949 0.567836 0.601197 0.156214
H2    H     H_    0.717385 0.603997 0.432628 0.164054
H3    H     H_    0.393688 0.087464 0.538376 0.173630
H4    H     H_    0.587446 0.899613 0.600113 0.194936
H5    H     H_    0.415196 0.405171 0.121949 0.153195
H6    H     H_    0.633357 0.528146 0.875721 0.148515
H7    H     H_    0.410105 0.409982 0.260307 0.208430
H8    H     H_    0.627846 0.527644 0.737558 0.190597
H9    H     H_    0.600176 0.593233 0.122117 0.172274
H10   H     H_    0.383975 0.453339 0.884271 0.169396
H11   H     H_    0.149793 0.576793 0.606622 0.168152
H12   H     H_    0.865058 0.614429 0.434715 0.167337
N1    N     N_2   0.501710 0.017662 0.456535 -0.152306
N2    N     N_2   0.495268 0.983455 0.518927 -0.164981
N3    N     N_R   0.292770 0.500020 0.499970 -0.135081
N4    N     N_R   0.707230 0.499980 0.500030 -0.151464
O1    O     O_R   0.433430 0.500000 0.610870 -0.620216
O2    O     O_R   0.566570 0.500000 0.389130 -0.610936
O3    O     O_R   0.566520 0.499990 0.610900 -0.585918
O4    O     O_R   0.433480 0.500010 0.389100 -0.626715
O5    O     O_R   0.426030 0.383870 0.500690 -0.551812
O6    O     O_R   0.573970 0.616130 0.499310 -0.607388
O7    O     O_R   0.559120 0.383870 0.500710 -0.603740
O8    O     O_R   0.440880 0.616130 0.499290 -0.618320
Zn1   Zn    Zn3+2 0.411140 0.500000 0.499980 1.006666
Zn2   Zn    Zn3+2 0.588860 0.500000 0.500020 1.004446
N5    N     N_2   0.417102 0.731864 0.392379 -0.278222
H13   H     H_    0.428745 0.750688 0.337641 0.231353
C43   C     C_3   0.333727 0.709289 0.406212 -0.708495
H14   H     H_    0.294888 0.749046 0.374462 0.214018
H15   H     H_    0.319791 0.711501 0.467761 0.242904
H16   H     H_    0.320043 0.647734 0.385965 0.240122
N6    N     N_2   0.593540 0.286005 0.389306 -0.266114
H17   H     H_    0.651757 0.270524 0.385321 0.259651
C44   C     C_3   0.559822 0.306616 0.316500 -0.749672
H18   H     H_    0.556431 0.254435 0.278061 0.243369
H19   H     H_    0.598001 0.354994 0.290195 0.244849
H20   H     H_    0.498989 0.327278 0.323910 0.232299
C45   C     C_2   0.280490 0.423312 0.380578 1.017078
O9    O     O_2   0.305999 0.358305 0.391642 -0.550513
O10   O     O_R   0.282295 0.455440 0.307407 -0.800755
H21   H     H_    0.267678 0.512599 0.306134 0.292142
C46   C     C_2   0.703892 0.380579 0.581473 0.999818
O11   O     O_2   0.694602 0.313970 0.554628 -0.651780
O12   O     O_R   0.676926 0.395938 0.654318 -0.808250
H22   H     H_    0.648057 0.347826 0.678299 0.341684
N7    N     N_2   0.112500 0.430733 0.386306 -0.300813
H23   H     H_    0.067962 0.392604 0.407974 0.234963
C47   C     C_3   0.082814 0.481460 0.327339 -0.729049
H24   H     H_    0.037107 0.519333 0.350125 0.233862
H25   H     H_    0.054862 0.444270 0.281055 0.250253
H26   H     H_    0.132010 0.519946 0.302935 0.241005
N8    N     N_2   0.873006 0.387928 0.580754 -0.304871
H27   H     H_    0.920346 0.410272 0.613964 0.240178
C48   C     C_3   0.894046 0.322162 0.534292 -0.725171
H28   H     H_    0.939269 0.342408 0.491725 0.224946
H29   H     H_    0.840430 0.294872 0.504355 0.264704
H30   H     H_    0.919600 0.276365 0.570972 0.245480
N9    N     N_2   0.394511 0.897018 0.411793 -0.291473
H31   H     H_    0.383277 0.873590 0.358454 0.227296
C49   C     C_3   0.322552 0.915462 0.450697 -0.741230
H32   H     H_    0.337157 0.951969 0.501930 0.250453
H33   H     H_    0.284590 0.949599 0.412114 0.241169
H34   H     H_    0.288222 0.860194 0.468025 0.232511
N10   N     N_2   0.604741 0.121143 0.374292 -0.317809
H35   H     H_    0.582562 0.074756 0.340578 0.242241
C50   C     C_3   0.678875 0.104115 0.412159 -0.744634
H36   H     H_    0.668715 0.054155 0.452767 0.254514
H37   H     H_    0.722652 0.087337 0.369279 0.241013
H38   H     H_    0.704639 0.157008 0.443373 0.255866
C51   C     C_2   0.368886 0.235395 0.571488 0.987776
O13   O     O_2   0.368533 0.213454 0.637752 -0.599776
O14   O     O_R   0.308252 0.280838 0.543443 -0.730582
H39   H     H_    0.268047 0.292855 0.583615 0.356283
C52   C     C_2   0.613484 0.746646 0.610088 0.942495
O15   O     O_2   0.677575 0.781190 0.627069 -0.617266
O16   O     O_R   0.590478 0.674881 0.645347 -0.816595
H40   H     H_    0.632513 0.657528 0.682648 0.337585
C53   C     C_2   0.606654 0.621780 0.271711 0.897552
O17   O     O_2   0.672326 0.642301 0.246354 -0.629836
O18   O     O_R   0.579092 0.659395 0.335900 -0.827957
H41   H     H_    0.619097 0.701733 0.356610 0.334985
C54   C     C_2   0.355169 0.436773 0.737003 0.923570
O19   O     O_2   0.354514 0.386759 0.686958 -0.600569
O20   O     O_R   0.283230 0.462284 0.764150 -0.810474
H42   H     H_    0.234904 0.436721 0.736319 0.343726

loop_
_geom_bond_atom_site_label_1
_geom_bond_atom_site_label_2
_ccdc_geom_bond_type
C38   C40   A    
O12   H22   S    
N9    H31   S    
C22   N8    S    
N8    H27   S    
C33   N10   S    
N1    N2    D    
C10   H10   S    
C52   O16   S    
C48   H28   S    
C3    H7    S    
O18   H41   S    
C21   N7    S    
C44   H18   S    
C19   N3    A    
O4    Zn1   S    
C23   C29   S    
C35   C37   A    
C7    C53   S    
C50   H37   S    
C2    O2    A    
C23   O5    A    
C15   C25   A    
O14   H39   S    
C15   C17   A    
N5    C43   S    
C12   C42   A    
C48   H29   S    
C18   N4    A    
C39   C51   S    
C9    H9    S    
N10   H35   S    
C31   C33   A    
C11   C41   A    
N7    C47   S    
C24   O8    A    
O1    Zn1   S    
C46   O12   S    
O8    Zn1   S    
C24   O6    A    
C13   C14   T    
N10   C50   S    
N3    Zn1   S    
C45   O10   S    
C45   O9    D    
C24   C30   S    
C44   H19   S    
C16   C26   A    
C37   C39   A    
O5    Zn1   S    
C34   N9    S    
C53   O18   S    
C35   N1    S    
C1    C6    S    
C4    C6    A    
C50   H38   S    
C47   H24   S    
C5    C7    A    
C6    C8    A    
C46   O11   D    
C4    H8    S    
C32   C34   A    
N6    H17   S    
C17   H1    S    
C36   N2    S    
C18   H2    S    
C47   H25   S    
N6    C44   S    
C31   N6    S    
O10   H21   S    
O7    Zn2   S    
C20   C46   S    
C29   C39   A    
C41   H5    S    
C30   C40   A    
C49   H33   S    
C16   C18   A    
C42   H6    S    
C9    C11   A    
C53   O17   D    
C10   C12   A    
N4    Zn2   S    
C12   C14   S    
C54   O19   D    
C2    C5    S    
C37   H3    S    
O20   H42   S    
O6    Zn2   S    
C15   H11   S    
C49   H32   S    
C48   H30   S    
C43   H15   S    
C51   O13   D    
C44   H20   S    
C7    C9    A    
C21   C25   A    
C3    C41   A    
C19   C21   A    
C8    C10   A    
C20   C22   A    
C3    C5    A    
C1    O3    A    
C43   H16   S    
O16   H40   S    
N8    C48   S    
C32   N5    S    
C25   C27   S    
C26   C28   S    
C23   O7    A    
C1    O1    A    
C43   H14   S    
C29   C31   A    
C19   C45   S    
C52   O15   D    
C47   H26   S    
C30   C32   A    
C11   C13   S    
O3    Zn2   S    
C4    C42   A    
C36   C38   A    
C33   C35   A    
C40   C52   S    
C49   H34   S    
C34   C36   A    
N5    H13   S    
C16   H12   S    
C38   H4    S    
C8    C54   S    
O2    Zn2   S    
N9    C49   S    
C22   C26   A    
C27   C28   T    
C54   O20   S    
N7    H23   S    
C50   H36   S    
C20   N4    A    
C2    O4    A    
C17   N3    A    
C51   O14   S    
