data_mof_unit_32299.cif
_audit_creation_date              2012-12-11T14:13:25-0500
_audit_creation_method            fapswitch 2.2
_symmetry_space_group_name_H-M    P1
_symmetry_Int_Tables_number       1
_space_group_crystal_system       monoclinic
_cell_length_a                    17.187889
_cell_length_b                    17.50654
_cell_length_c                    17.308949
_cell_angle_alpha                 89.999984
_cell_angle_beta                  90.0
_cell_angle_gamma                 90.0
_cell_volume                      5208.27082516

loop_
_atom_site_label
_atom_site_type_symbol
_atom_type_description
_atom_site_fract_x
_atom_site_fract_y
_atom_site_fract_z
_atom_type_partial_charge
C1    C     C_R   0.581268 0.327588 0.141495 0.488239
C2    C     C_R   0.195361 0.104936 0.608489 0.459331
C3    C     C_R   0.918732 0.172412 0.641495 0.488237
C4    C     C_R   0.804639 0.895064 0.608489 0.459332
C5    C     C_R   0.081268 0.172412 0.358505 0.488239
C6    C     C_R   0.195361 0.895064 0.391511 0.459332
C7    C     C_R   0.918732 0.827588 0.358505 0.488239
C8    C     C_R   0.804639 0.104936 0.391511 0.459331
C9    C     C_R   0.604548 0.694357 0.105945 -0.107142
C10   C     C_R   0.338413 0.573338 0.147920 -0.087461
C11   C     C_R   0.395452 0.305642 0.105945 -0.107142
C12   C     C_R   0.695361 0.604936 0.108489 0.459342
C13   C     C_R   0.661587 0.426662 0.147920 -0.087462
C14   C     C_R   0.604548 0.305642 0.894055 -0.107143
C15   C     C_R   0.338413 0.426662 0.852080 -0.087460
C16   C     C_R   0.395452 0.694357 0.894055 -0.107143
C17   C     C_R   0.661587 0.573338 0.852080 -0.087456
C18   C     C_R   0.104548 0.194358 0.605945 -0.107140
C19   C     C_R   0.838413 0.073338 0.647920 -0.087461
C20   C     C_R   0.895452 0.805643 0.605946 -0.107142
C21   C     C_R   0.161587 0.926662 0.647920 -0.087460
C22   C     C_R   0.104548 0.805642 0.394055 -0.107141
C23   C     C_R   0.418732 0.672412 0.141495 0.488238
C24   C     C_R   0.838413 0.926662 0.352080 -0.087460
C25   C     C_R   0.895452 0.194357 0.394055 -0.107143
C26   C     C_R   0.161587 0.073338 0.352080 -0.087460
C27   C     C_R   0.632817 0.365674 0.189199 -0.079226
C28   C     C_R   0.679531 0.679651 0.128193 -0.072366
C29   C     C_R   0.367183 0.634325 0.189199 -0.079224
C30   C     C_R   0.320469 0.320349 0.128193 -0.072363
C31   C     C_R   0.632817 0.634326 0.810801 -0.079226
C32   C     C_R   0.679531 0.320349 0.871807 -0.072367
C33   C     C_R   0.367183 0.365675 0.810801 -0.079225
C34   C     C_R   0.304639 0.395064 0.108489 0.459333
C35   C     C_R   0.320469 0.679651 0.871807 -0.072362
C36   C     C_R   0.132817 0.865675 0.689199 -0.079224
C37   C     C_R   0.179531 0.179651 0.628193 -0.072362
C38   C     C_R   0.867183 0.134326 0.689199 -0.079226
C39   C     C_R   0.820469 0.820349 0.628194 -0.072363
C40   C     C_R   0.132817 0.134326 0.310801 -0.079225
C41   C     C_R   0.179531 0.820349 0.371807 -0.072362
C42   C     C_R   0.867183 0.865674 0.310801 -0.079225
C43   C     C_R   0.820469 0.179651 0.371807 -0.072362
C44   C     C_2   0.729566 0.639421 0.707506 -0.101389
C45   C     C_R   0.581268 0.672412 0.858505 0.488238
C46   C     C_2   0.275006 0.810038 0.843007 -0.093310
C47   C     C_2   0.270433 0.360579 0.707507 -0.101386
C48   C     C_2   0.724994 0.189962 0.843007 -0.093314
C49   C     C_2   0.729566 0.360579 0.292493 -0.101387
C50   C     C_2   0.275006 0.189962 0.156993 -0.093310
C51   C     C_2   0.270433 0.639421 0.292493 -0.101385
C52   C     C_2   0.724994 0.810038 0.156993 -0.093310
C53   C     C_2   0.229566 0.139421 0.207507 -0.101385
C54   C     C_2   0.775006 0.310038 0.343007 -0.093313
C55   C     C_2   0.770434 0.860579 0.207507 -0.101387
C56   C     C_R   0.695361 0.395064 0.891511 0.459332
C57   C     C_2   0.224994 0.689962 0.343007 -0.093310
C58   C     C_2   0.229567 0.860579 0.792493 -0.101387
C59   C     C_2   0.775005 0.689963 0.656992 -0.093310
C60   C     C_2   0.770433 0.139421 0.792493 -0.101389
C61   C     C_2   0.224994 0.310038 0.656993 -0.093310
C62   C     C_2   0.659921 0.660479 0.735309 -0.083351
C63   C     C_2   0.264830 0.734097 0.840229 -0.022267
C64   C     C_2   0.340079 0.339522 0.735309 -0.083348
C65   C     C_2   0.735170 0.265903 0.840229 -0.022251
C66   C     C_2   0.659921 0.339522 0.264691 -0.083349
C67   C     C_R   0.418732 0.327588 0.858505 0.488238
C68   C     C_2   0.264830 0.265903 0.159771 -0.022267
C69   C     C_2   0.340079 0.660478 0.264691 -0.083350
C70   C     C_2   0.735170 0.734097 0.159771 -0.022266
C71   C     C_2   0.159921 0.160478 0.235309 -0.083350
C72   C     C_2   0.764830 0.234097 0.340229 -0.022267
C73   C     C_2   0.840079 0.839522 0.235309 -0.083349
C74   C     C_2   0.235170 0.765903 0.340229 -0.022268
C75   C     C_2   0.159921 0.839522 0.764691 -0.083349
C76   C     C_2   0.764831 0.765903 0.659773 -0.022271
C77   C     C_2   0.840079 0.160478 0.764691 -0.083345
C78   C     C_R   0.304639 0.604936 0.891511 0.459332
C79   C     C_2   0.235170 0.234097 0.659771 -0.022267
C80   C     C_R   0.081268 0.827588 0.641495 0.488237
H1    H     H_    0.579868 0.750146 0.099305 0.225357
H2    H     H_    0.801541 0.030198 0.671802 0.160955
H3    H     H_    0.920132 0.749854 0.599305 0.225357
H4    H     H_    0.198459 0.969802 0.671802 0.160954
H5    H     H_    0.079868 0.749854 0.400695 0.225357
H6    H     H_    0.801541 0.969802 0.328198 0.160954
H7    H     H_    0.920132 0.250146 0.400695 0.225357
H8    H     H_    0.198459 0.030198 0.328198 0.160955
H9    H     H_    0.760503 0.590868 0.731357 0.176132
H10   H     H_    0.324449 0.834631 0.872926 0.172296
H11   H     H_    0.239496 0.409131 0.731359 0.176132
H12   H     H_    0.301541 0.530198 0.171802 0.160955
H13   H     H_    0.675551 0.165369 0.872926 0.172296
H14   H     H_    0.760504 0.409131 0.268641 0.176132
H15   H     H_    0.324449 0.165369 0.127074 0.172295
H16   H     H_    0.239496 0.590869 0.268641 0.176132
H17   H     H_    0.675551 0.834631 0.127074 0.172296
H18   H     H_    0.260504 0.090869 0.231358 0.176132
H19   H     H_    0.824449 0.334631 0.372926 0.172296
H20   H     H_    0.739496 0.909131 0.231359 0.176132
H21   H     H_    0.175551 0.665369 0.372925 0.172296
H22   H     H_    0.260504 0.909131 0.768640 0.176133
H23   H     H_    0.420132 0.249854 0.099305 0.225357
H24   H     H_    0.824446 0.665369 0.627071 0.172296
H25   H     H_    0.739496 0.090869 0.768641 0.176132
H26   H     H_    0.175551 0.334631 0.627074 0.172297
H27   H     H_    0.627349 0.706379 0.708342 0.186217
H28   H     H_    0.217444 0.709459 0.807734 0.205885
H29   H     H_    0.372652 0.293622 0.708341 0.186217
H30   H     H_    0.782556 0.290541 0.807735 0.205889
H31   H     H_    0.627348 0.293622 0.291659 0.186216
H32   H     H_    0.217444 0.290541 0.192266 0.205883
H33   H     H_    0.372652 0.706377 0.291659 0.186215
H34   H     H_    0.698458 0.469802 0.171802 0.160956
H35   H     H_    0.782556 0.709459 0.192266 0.205885
H36   H     H_    0.127348 0.206378 0.208341 0.186215
H37   H     H_    0.717444 0.209459 0.307734 0.205885
H38   H     H_    0.872651 0.793622 0.208341 0.186216
H39   H     H_    0.282556 0.790541 0.307735 0.205884
H40   H     H_    0.127348 0.793623 0.791659 0.186216
H41   H     H_    0.717447 0.790541 0.692269 0.205885
H42   H     H_    0.872652 0.206377 0.791659 0.186221
H43   H     H_    0.282556 0.209459 0.692265 0.205888
H44   H     H_    0.649033 0.132604 0.165719 0.402858
H45   H     H_    0.579868 0.249854 0.900696 0.225358
H46   H     H_    0.896274 0.606318 0.042763 0.397249
H47   H     H_    0.350968 0.867395 0.165722 0.402859
H48   H     H_    0.103726 0.393681 0.042763 0.397252
H49   H     H_    0.649033 0.867396 0.834283 0.402858
H50   H     H_    0.896266 0.393704 0.957265 0.397265
H51   H     H_    0.350965 0.132604 0.834289 0.402857
H52   H     H_    0.103726 0.606320 0.957236 0.397251
H53   H     H_    0.149033 0.632604 0.665718 0.402858
H54   H     H_    0.396274 0.106319 0.542764 0.397253
H55   H     H_    0.850965 0.367396 0.665711 0.402857
H56   H     H_    0.301541 0.469802 0.828198 0.160955
H57   H     H_    0.603726 0.893676 0.542767 0.397252
H58   H     H_    0.149032 0.367396 0.334275 0.402860
H59   H     H_    0.396274 0.893680 0.457236 0.397252
H60   H     H_    0.850967 0.632604 0.334282 0.402858
H61   H     H_    0.603727 0.106319 0.457237 0.397253
H62   H     H_    0.420132 0.750146 0.900695 0.225357
H63   H     H_    0.698459 0.530198 0.828198 0.160954
H64   H     H_    0.079868 0.250146 0.599304 0.225357
N1    N     N_R   0.574080 0.369570 0.076720 -0.109344
N2    N     N_R   0.130430 0.074080 0.576720 -0.123120
N3    N     N_R   0.925920 0.130430 0.576720 -0.109344
N4    N     N_R   0.869570 0.925920 0.576720 -0.123119
N5    N     N_R   0.074080 0.130430 0.423280 -0.109344
N6    N     N_R   0.130430 0.925920 0.423280 -0.123120
N7    N     N_R   0.925920 0.869570 0.423280 -0.109344
N8    N     N_R   0.869570 0.074080 0.423280 -0.123120
N9    N     N_R   0.574050 0.630410 0.076720 -0.104127
N10   N     N_R   0.369590 0.574050 0.076720 -0.062034
N11   N     N_R   0.425950 0.369590 0.076720 -0.104126
N12   N     N_R   0.630430 0.574080 0.076720 -0.123119
N13   N     N_R   0.630410 0.425950 0.076720 -0.062034
N14   N     N_R   0.574050 0.369590 0.923280 -0.104126
N15   N     N_R   0.369590 0.425950 0.923280 -0.062034
N16   N     N_R   0.425950 0.630410 0.923280 -0.104126
N17   N     N_R   0.630410 0.574050 0.923280 -0.062033
N18   N     N_R   0.074050 0.130410 0.576720 -0.104126
N19   N     N_R   0.869590 0.074050 0.576720 -0.062034
N20   N     N_R   0.925950 0.869590 0.576720 -0.104126
N21   N     N_R   0.130410 0.925950 0.576720 -0.062034
N22   N     N_R   0.074050 0.869590 0.423280 -0.104126
N23   N     N_R   0.425920 0.630430 0.076720 -0.109344
N24   N     N_R   0.869590 0.925950 0.423280 -0.062034
N25   N     N_R   0.925950 0.130410 0.423280 -0.104126
N26   N     N_R   0.130410 0.074050 0.423280 -0.062034
N27   N     N_R   0.369570 0.425920 0.076720 -0.123120
N28   N     N_R   0.574080 0.630430 0.923280 -0.109344
N29   N     N_R   0.630430 0.425920 0.923280 -0.123119
N30   N     N_R   0.425920 0.369570 0.923280 -0.109344
N31   N     N_R   0.369570 0.574080 0.923280 -0.123120
N32   N     N_R   0.074080 0.869570 0.576720 -0.109344
Ni1   Ni    Ni4+2 0.500000 0.370760 0.000000 0.282818
Ni2   Ni    Ni4+2 0.629240 0.500000 0.000000 0.328173
Ni3   Ni    Ni4+2 0.500000 0.629240 0.000000 0.282818
Ni4   Ni    Ni4+2 0.370760 0.500000 0.000000 0.328175
Ni5   Ni    Ni4+2 1.000000 0.870760 0.500000 0.282818
Ni6   Ni    Ni4+2 0.129240 0.000000 0.500000 0.328175
Ni7   Ni    Ni4+2 0.000000 0.129240 0.500000 0.282818
Ni8   Ni    Ni4+2 0.870760 0.000000 0.500000 0.328176
O1    O     O_2   0.512554 0.204738 0.203468 -0.291363
O2    O     O_2   0.170819 0.427109 0.179926 -0.306357
O3    O     O_2   0.205270 0.511463 0.073314 -0.227890
O4    O     O_3   0.157792 0.374184 0.040755 -0.475480
O5    O     O_2   0.512555 0.795263 0.796532 -0.291363
O6    O     O_2   0.547737 0.801907 0.934491 -0.268822
O7    O     O_3   0.657894 0.811504 0.833146 -0.519379
O8    O     O_2   0.829181 0.427110 0.820074 -0.306320
O9    O     O_2   0.794729 0.511463 0.926686 -0.227912
O10   O     O_3   0.842209 0.374184 0.959244 -0.475490
O11   O     O_2   0.487447 0.204738 0.796532 -0.291358
O12   O     O_2   0.547738 0.198092 0.065509 -0.268822
O13   O     O_2   0.452262 0.198092 0.934491 -0.268827
O14   O     O_3   0.342106 0.188496 0.833144 -0.519378
O15   O     O_2   0.170819 0.572891 0.820074 -0.306350
O16   O     O_2   0.205270 0.488537 0.926685 -0.227889
O17   O     O_3   0.157792 0.625816 0.959245 -0.475482
O18   O     O_2   0.012554 0.704738 0.703468 -0.291362
O19   O     O_2   0.047738 0.698092 0.565509 -0.268822
O20   O     O_3   0.157894 0.688496 0.666855 -0.519378
O21   O     O_2   0.329180 0.072891 0.679927 -0.306344
O22   O     O_2   0.294730 0.988537 0.573315 -0.227889
O23   O     O_3   0.657894 0.188496 0.166855 -0.519379
O24   O     O_3   0.342208 0.125816 0.540755 -0.475482
O25   O     O_2   0.987447 0.295262 0.703468 -0.291351
O26   O     O_2   0.952262 0.301908 0.565509 -0.268828
O27   O     O_3   0.842106 0.311504 0.666856 -0.519380
O28   O     O_2   0.670819 0.927108 0.679926 -0.306353
O29   O     O_2   0.705270 0.011463 0.573315 -0.227887
O30   O     O_3   0.657792 0.874183 0.540755 -0.475481
O31   O     O_2   0.012554 0.295262 0.296532 -0.291368
O32   O     O_2   0.047738 0.301908 0.434491 -0.268817
O33   O     O_3   0.157894 0.311504 0.333145 -0.519379
O34   O     O_2   0.829181 0.572891 0.179926 -0.306350
O35   O     O_2   0.329181 0.927109 0.320074 -0.306354
O36   O     O_2   0.294729 0.011463 0.426686 -0.227889
O37   O     O_3   0.342208 0.874184 0.459245 -0.475482
O38   O     O_2   0.987446 0.704738 0.296532 -0.291363
O39   O     O_2   0.952262 0.698092 0.434491 -0.268822
O40   O     O_3   0.842106 0.688496 0.333145 -0.519378
O41   O     O_2   0.670819 0.072891 0.320074 -0.306350
O42   O     O_2   0.705270 0.988537 0.426686 -0.227886
O43   O     O_3   0.657792 0.125816 0.459245 -0.475483
O44   O     O_2   0.794729 0.488537 0.073315 -0.227917
O45   O     O_3   0.842208 0.625816 0.040755 -0.475480
O46   O     O_2   0.487446 0.795262 0.203468 -0.291365
O47   O     O_2   0.452262 0.801908 0.065509 -0.268819
O48   O     O_3   0.342106 0.811504 0.166855 -0.519379
S1    S     S_3+6 0.571550 0.227305 0.143566 -0.033367
S2    S     S_3+6 0.291865 0.069448 0.601481 -0.012237
S3    S     S_3+6 0.928450 0.272695 0.643566 -0.033365
S4    S     S_3+6 0.708135 0.930552 0.601481 -0.012238
S5    S     S_3+6 0.071551 0.272695 0.356434 -0.033368
S6    S     S_3+6 0.291865 0.930552 0.398520 -0.012239
S7    S     S_3+6 0.928450 0.727305 0.356434 -0.033368
S8    S     S_3+6 0.708135 0.069448 0.398520 -0.012238
S9    S     S_3+6 0.791865 0.569448 0.101481 -0.012247
S10   S     S_3+6 0.428449 0.772695 0.143566 -0.033367
S11   S     S_3+6 0.208135 0.430552 0.101480 -0.012240
S12   S     S_3+6 0.571551 0.772695 0.856435 -0.033368
S13   S     S_3+6 0.791865 0.430552 0.898520 -0.012239
S14   S     S_3+6 0.428450 0.227305 0.856434 -0.033367
S15   S     S_3+6 0.208135 0.569448 0.898520 -0.012238
S16   S     S_3+6 0.071551 0.727305 0.643566 -0.033367

loop_
_geom_bond_atom_site_label_1
_geom_bond_atom_site_label_2
_ccdc_geom_bond_type
H61   O43   S    
H55   O27   S    
N9    Ni3   S    
C3    N3    A    
C43   C72   S    
O17   S15   S    
C40   C71   S    
N10   Ni4   S    
H57   O30   S    
C16   N16   A    
C24   C42   A    
C52   H17   S    
O1    S1    D    
C10   C29   A    
C8    C43   A    
N15   Ni4   S    
C25   C43   A    
O25   S3    D    
C64   H29   S    
C5    N5    A    
N6    Ni6   S    
C21   C36   A    
N21   N32   A    
O6    S12   D    
C74   H39   S    
N2    N18   A    
C69   H33   S    
H52   O17   S    
C14   H45   S    
C5    S5    S    
C14   N14   A    
O48   S10   S    
C59   H24   S    
C23   C29   A    
O35   S6    D    
O21   S2    D    
C24   N24   A    
C18   C37   A    
C61   C79   D    
C16   C35   A    
O2    S11   D    
C67   S14   S    
C50   H15   S    
C22   H5    S    
C22   C41   A    
O12   S1    D    
O43   S8    S    
C67   N30   A    
N3    Ni7   S    
N7    N24   A    
N6    N22   A    
O38   S7    D    
C25   H7    S    
C21   N21   A    
C20   N20   A    
C68   H32   S    
O34   S9    D    
N25   Ni7   S    
N20   Ni5   S    
C3    S3    S    
C41   C74   S    
C53   H18   S    
N17   N28   A    
C1    N1    A    
C2    S2    S    
O19   S16   D    
C3    C38   A    
C1    S1    S    
N24   Ni8   S    
N15   N30   A    
C55   H20   S    
C80   S16   S    
N7    Ni5   S    
O31   S5    D    
C49   H14   S    
N8    Ni8   S    
C19   H2    S    
O22   S2    D    
C28   C70   S    
C13   H34   S    
C52   C55   S    
O15   S15   D    
C51   H16   S    
N8    N25   A    
H59   O37   S    
H53   O20   S    
N19   Ni8   S    
C10   H12   S    
C49   C54   S    
H48   O4    S    
C46   C58   S    
C32   C56   A    
C4    S4    S    
C31   C62   S    
O36   S6    D    
N22   Ni5   S    
N12   Ni2   S    
C12   N12   A    
O16   S15   D    
C13   N13   A    
O28   S4    D    
C11   N11   A    
C58   C75   D    
C48   C60   S    
C29   C69   S    
C8    S8    S    
N32   Ni5   S    
C65   H30   S    
O11   S14   D    
O30   S4    S    
C60   C77   D    
C50   C53   S    
O42   S8    D    
C49   C66   D    
C30   C34   A    
N5    N26   A    
N4    N20   A    
C44   H9    S    
O47   S10   D    
C80   N32   A    
O3    S11   D    
C36   C80   A    
C47   C64   D    
C20   C39   A    
N2    Ni6   S    
H60   O40   S    
C62   H27   S    
C44   C62   D    
C39   C76   S    
C79   H43   S    
C6    C41   A    
O8    S13   D    
O44   S9    D    
N9    N12   A    
C55   C73   D    
C57   C74   D    
C72   H37   S    
C16   H62   S    
C7    C42   A    
N16   Ni3   S    
C15   N15   A    
O13   S14   D    
O46   S10   D    
C36   C75   S    
N3    N19   A    
C6    S6    S    
N14   N29   A    
H54   O24   S    
N30   Ni1   S    
C21   H4    S    
N4    Ni8   S    
H51   O14   S    
O5    S12   D    
N1    N13   A    
C78   S15   S    
C15   H56   S    
C19   N19   A    
O26   S3    D    
C23   S10   S    
C61   H26   S    
C45   S12   S    
O20   S16   S    
C17   N17   A    
H58   O33   S    
C7    N7    A    
N28   Ni3   S    
C59   C76   D    
C12   C28   A    
N23   Ni3   S    
H44   O23   S    
C76   H41   S    
C78   N31   A    
C48   C65   D    
N16   N31   A    
C23   N23   A    
N27   Ni4   S    
C20   H3    S    
O7    S12   S    
C66   H31   S    
C53   C71   D    
C45   N28   A    
O33   S5    S    
C57   H21   S    
C33   C67   A    
O29   S4    D    
N5    Ni7   S    
C7    S7    S    
C25   N25   A    
C42   C73   S    
C73   H38   S    
C8    N8    A    
C34   S11   S    
C77   H42   S    
C47   H11   S    
N14   Ni1   S    
N21   Ni6   S    
C75   H40   S    
N10   N23   A    
C14   C32   A    
H50   O10   S    
C47   C61   S    
C11   H23   S    
N31   Ni4   S    
C46   H10   S    
C38   C77   S    
C37   C79   S    
C70   H35   S    
C2    N2    A    
O18   S16   D    
C56   S13   S    
C56   N29   A    
C35   C78   A    
C6    N6    A    
C4    C39   A    
O37   S6    S    
C17   H63   S    
C18   H64   S    
N17   Ni2   S    
N18   Ni7   S    
C44   C59   S    
C27   C66   S    
O39   S7    D    
C11   C30   A    
C10   N10   A    
C18   N18   A    
C2    C37   A    
C26   C40   A    
O45   S9    S    
C46   C63   D    
C24   H6    S    
N29   Ni2   S    
O14   S14   S    
C33   C64   S    
C17   C31   A    
C58   H22   S    
H49   O7    S    
H47   O48   S    
O10   S13   S    
O27   S3    S    
C71   H36   S    
N13   Ni2   S    
O23   S1    S    
C54   H19   S    
O40   S7    S    
C30   C68   S    
C48   H13   S    
C52   C70   D    
C34   N27   A    
C9    N9    A    
C22   N22   A    
N11   N27   A    
C51   C57   S    
C19   C38   A    
C54   C72   D    
C26   N26   A    
C26   H8    S    
C12   S9    S    
C31   C45   A    
C5    C40   A    
N1    Ni1   S    
C1    C27   A    
O41   S8    D    
O9    S13   D    
H46   O45   S    
C13   C27   A    
O4    S11   S    
C35   C63   S    
C51   C69   D    
C63   H28   S    
O24   S2    S    
C50   C68   D    
O32   S5    D    
C15   C33   A    
N26   Ni6   S    
C60   H25   S    
N11   Ni1   S    
C9    C28   A    
C9    H1    S    
C32   C65   S    
C4    N4    A    
