data_mof_unit_52833.cif
_audit_creation_date              2012-12-10T18:11:44-0500
_audit_creation_method            fapswitch 2.2
_symmetry_space_group_name_H-M    P1
_symmetry_Int_Tables_number       1
_space_group_crystal_system       triclinic
_cell_length_a                    10.488556
_cell_length_b                    12.62174
_cell_length_c                    13.130673
_cell_angle_alpha                 82.210313
_cell_angle_beta                  90.643245
_cell_angle_gamma                 102.766804
_cell_volume                      1679.35464834

loop_
_atom_site_label
_atom_site_type_symbol
_atom_type_description
_atom_site_fract_x
_atom_site_fract_y
_atom_site_fract_z
_atom_type_partial_charge
C1    C     C_R   0.480279 0.438729 0.691159 0.846027
C2    C     C_3   0.063202 0.579147 0.427323 -0.176529
C3    C     C_3   0.987746 0.599061 0.520608 -0.131989
C4    C     C_3   0.878266 0.502515 0.500481 0.024473
C5    C     C_R   0.404690 0.699727 0.064130 -0.203741
C6    C     C_R   0.501455 0.596571 0.200066 -0.047118
C7    C     C_R   0.501555 0.300843 0.838384 -0.197051
C8    C     C_R   0.514604 0.272792 0.943224 -0.151090
C9    C     C_R   0.500951 0.345979 0.010428 -0.194986
C10   C     C_R   0.467351 0.447043 0.973551 0.083953
C11   C     C_R   0.434224 0.466758 0.869600 0.085871
C12   C     C_R   0.742440 0.501001 0.500263 0.861235
C13   C     C_R   0.465467 0.529242 0.036279 0.077604
C14   C     C_R   0.410713 0.620390 0.000099 0.175840
C15   C     C_R   0.360840 0.629821 0.901393 -0.255507
C16   C     C_R   0.372455 0.554024 0.836721 -0.205275
C17   C     C_R   0.518837 0.524057 0.133720 -0.260554
C18   C     C_R   0.447806 0.686716 0.164900 -0.209896
C19   C     C_R   0.465763 0.399393 0.800852 -0.111820
C20   C     C_R   0.320635 0.088390 0.345463 -0.310699
C21   C     C_R   0.653068 0.799411 0.630682 0.021590
C22   C     C_R   0.684465 0.903670 0.659726 -0.253068
C23   C     C_R   0.512991 0.561093 0.308783 0.855653
C24   C     C_R   0.626331 0.985162 0.610425 -0.198845
C25   C     C_R   0.536144 0.962462 0.531140 0.016180
C26   C     C_R   0.507742 0.854719 0.504317 0.237476
C27   C     C_R   0.473239 0.041794 0.477668 -0.015987
C28   C     C_R   0.383589 0.011686 0.399015 0.198071
C29   C     C_R   0.357851 0.905476 0.374214 -0.299635
C30   C     C_R   0.419376 0.828413 0.426005 -0.213235
C31   C     C_R   0.495524 0.150574 0.498522 -0.051262
C32   C     C_R   0.347058 0.194358 0.369818 0.005311
C33   C     C_R   0.257611 0.499049 0.499719 0.842549
C34   C     C_3   0.937081 0.421198 0.572608 -0.178766
C35   C     C_3   0.049202 0.517664 0.592719 -0.176544
C36   C     C_3   0.121937 0.497773 0.499445 0.033914
C37   C     C_3   0.012487 0.401272 0.479315 -0.136239
C38   C     C_3   0.951063 0.482681 0.407200 -0.176750
H1    H     H_    0.093877 0.531528 0.668204 0.127607
H2    H     H_    0.570201 0.461056 0.161920 0.146726
H3    H     H_    0.523653 0.247229 0.786481 0.149929
H4    H     H_    0.513945 0.320163 0.090874 0.134852
H5    H     H_    0.331126 0.563747 0.761069 0.166418
H6    H     H_    0.299733 0.255022 0.329012 0.135494
H7    H     H_    0.252107 0.066658 0.285300 0.143615
H8    H     H_    0.561901 0.181214 0.556303 0.123105
H9    H     H_    0.697640 0.735629 0.668899 0.139072
H10   H     H_    0.880996 0.357229 0.631846 0.129752
H11   H     H_    0.653833 0.064515 0.636021 0.132291
H12   H     H_    0.396124 0.748662 0.402872 0.207876
H13   H     H_    0.026572 0.320709 0.462476 0.144012
H14   H     H_    0.906399 0.468830 0.331711 0.133609
H15   H     H_    0.119464 0.643136 0.368165 0.126773
H16   H     H_    0.973711 0.679641 0.537437 0.144088
H17   H     H_    0.433179 0.743403 0.216224 0.146832
H18   H     H_    0.314887 0.696863 0.873486 0.148642
H19   H     H_    0.361914 0.769015 0.037660 0.134321
N1    N     N_R   0.432930 0.222190 0.444670 -0.101209
N2    N     N_R   0.566370 0.776980 0.554790 -0.130765
O1    O     O_R   0.467970 0.366730 0.627150 -0.615090
O2    O     O_R   0.510820 0.544830 0.662520 -0.615988
O3    O     O_R   0.664630 0.410960 0.482340 -0.619112
O4    O     O_R   0.707470 0.589060 0.517710 -0.624125
O5    O     O_R   0.489180 0.455170 0.337480 -0.614634
O6    O     O_R   0.532030 0.633270 0.372850 -0.633833
O7    O     O_R   0.292530 0.410940 0.482290 -0.620711
O8    O     O_R   0.335370 0.589040 0.517660 -0.641491
Zn1   Zn    Zn3+2 0.471390 0.381080 0.476380 0.932761
Zn2   Zn    Zn3+2 0.528610 0.618920 0.523620 0.922360
H20   H     H_    0.540944 0.196167 0.972168 0.141509
H21   H     H_    0.289934 0.881760 0.314159 0.147589
H22   H     H_    0.753473 0.921265 0.720403 0.148569

loop_
_geom_bond_atom_site_label_1
_geom_bond_atom_site_label_2
_ccdc_geom_bond_type
O7    Zn1   S    
C34   C37   S    
C35   C36   S    
C32   N1    A    
C7    C8    A    
C11   C19   A    
C9    H4    S    
C29   C30   A    
O5    Zn1   S    
C31   N1    A    
C28   C29   A    
C21   N2    A    
C37   H13   S    
C3    H16   S    
C38   H14   S    
C2    C36   S    
C15   C16   A    
C33   C36   S    
C34   C35   S    
O4    Zn2   S    
C8    C9    A    
C31   H8    S    
C4    C12   S    
C9    C10   A    
C20   H7    S    
C30   H12   S    
C21   C22   A    
C22   H22   S    
C33   O7    A    
C6    C18   A    
C4    C34   S    
C1    C19   S    
C27   C31   A    
C24   C25   A    
C1    O1    A    
C12   O4    A    
C5    C18   A    
C20   C28   A    
C25   C26   A    
C2    H15   S    
O8    Zn2   S    
C17   H2    S    
C35   H1    S    
C37   C38   S    
C12   O3    A    
C11   C16   A    
C2    C38   S    
C3    C35   S    
C32   H6    S    
C16   H5    S    
C5    C14   A    
C18   H17   S    
N2    Zn2   S    
N1    Zn1   S    
C23   O5    A    
C4    C38   S    
C26   C30   A    
C7    C19   A    
C22   C24   A    
C34   H10   S    
C3    C4    S    
C33   O8    A    
C20   C32   A    
O2    Zn2   S    
C24   H11   S    
C6    C17   A    
C36   C37   S    
C5    H19   S    
C10   C13   A    
C1    O2    A    
O3    Zn1   S    
C25   C27   A    
C8    H20   S    
C13   C17   A    
C15   H18   S    
C23   O6    A    
C2    C3    S    
O6    Zn2   S    
C6    C23   S    
C7    H3    S    
C10   C11   A    
O1    Zn1   S    
C27   C28   A    
C14   C15   A    
C26   N2    A    
C21   H9    S    
C13   C14   A    
C29   H21   S    
