data_mof_unit_38790.cif
_audit_creation_date              2012-10-26T18:50:03-0400
_audit_creation_method            fapswitch 2.2
_symmetry_space_group_name_H-M    P1
_symmetry_Int_Tables_number       1
_space_group_crystal_system       triclinic
_cell_length_a                    10.869819
_cell_length_b                    12.997975
_cell_length_c                    11.661016
_cell_angle_alpha                 100.566333
_cell_angle_beta                  91.553948
_cell_angle_gamma                 93.598439
_cell_volume                      1615.15085512

loop_
_atom_site_label
_atom_site_type_symbol
_atom_type_description
_atom_site_fract_x
_atom_site_fract_y
_atom_site_fract_z
_atom_type_partial_charge
C1    C     C_R   0.512240 0.300404 0.477249 0.512827
C2    C     C_R   0.525270 0.860620 0.434689 -0.109775
C3    C     C_R   0.496513 0.031389 0.548719 0.059270
C4    C     C_R   0.524929 0.969150 0.440896 0.045579
C5    C     C_R   0.392667 0.388865 0.023370 -0.021879
C6    C     C_R   0.606662 0.614193 0.976098 -0.025018
C7    C     C_R   0.404568 0.400658 0.145531 0.056271
C8    C     C_R   0.597872 0.597742 0.853431 0.067922
C9    C     C_R   0.539171 0.552837 0.157992 0.023574
C10   C     C_R   0.455611 0.451378 0.843301 0.050208
C11   C     C_R   0.536657 0.543981 0.034598 -0.003907
C12   C     C_R   0.510437 0.701685 0.522139 0.545464
C13   C     C_R   0.460867 0.460499 0.966444 0.012532
C14   C     C_R   0.262127 0.492814 0.501465 0.532143
C15   C     C_R   0.737505 0.496572 0.496540 0.529135
C16   C     C_R   0.102184 0.306096 0.558454 0.010894
C17   C     C_R   0.899950 0.593518 0.334600 0.039531
C18   C     C_R   0.031818 0.241029 0.619240 -0.144707
C19   C     C_R   0.957808 0.689730 0.319965 -0.143120
C20   C     C_R   0.909809 0.258938 0.643361 0.009283
C21   C     C_R   0.071073 0.726012 0.377862 0.015588
C22   C     C_R   0.855499 0.338881 0.599662 -0.085770
C23   C     C_R   0.521727 0.817070 0.535727 -0.007881
C24   C     C_R   0.130240 0.660019 0.441236 -0.063852
C25   C     C_R   0.926224 0.409917 0.544754 -0.035843
C26   C     C_R   0.068171 0.565792 0.459893 -0.033047
C27   C     C_R   0.055345 0.401575 0.537152 0.015130
C28   C     C_R   0.943451 0.547013 0.426921 0.009854
C29   C     C_R   0.869808 0.482573 0.487069 -0.031896
C30   C     C_R   0.127565 0.487301 0.504208 -0.021487
C31   C     C_2   0.131520 0.827089 0.361426 0.196590
C32   C     C_2   0.837496 0.187554 0.705512 0.200994
C33   C     C_3   0.308278 0.298817 0.957950 -0.309448
C34   C     C_R   0.523678 0.187013 0.462352 -0.008999
C35   C     C_3   0.184841 0.336242 0.922638 -0.439785
C36   C     C_3   0.688074 0.709228 0.036738 -0.309167
C37   C     C_3   0.821975 0.704320 0.999726 -0.451066
C38   C     C_3   0.212616 0.259704 0.499816 -0.269757
C39   C     C_3   0.194268 0.237099 0.366836 -0.418614
C40   C     C_3   0.846074 0.522442 0.224633 -0.255206
C41   C     C_3   0.948408 0.479641 0.145713 -0.454897
C42   C     C_3   0.588434 0.855681 0.752751 -0.276515
C43   C     C_3   0.689608 0.938201 0.809538 -0.450670
C44   C     C_3   0.654181 0.181177 0.281491 -0.270268
C45   C     C_R   0.554211 0.016791 0.343299 0.041962
C46   C     C_3   0.787170 0.149171 0.286677 -0.456220
C47   C     C_3   0.567102 0.950396 0.222291 -0.284923
C48   C     C_3   0.441209 0.904886 0.167790 -0.434899
C49   C     C_3   0.428878 0.041948 0.761157 -0.278259
C50   C     C_3   0.290320 0.049400 0.742322 -0.450063
C51   C     C_R   0.484830 0.986021 0.650247 0.077688
C52   C     C_R   0.572316 0.127818 0.361375 0.018077
C53   C     C_R   0.525124 0.884593 0.645858 0.022814
C54   C     C_R   0.486344 0.138192 0.553867 -0.116876
Cu1   Cu    Cu3+1 0.509250 0.507730 0.615930 0.920849
Cu2   Cu    Cu3+1 0.490750 0.492270 0.384070 0.901790
H1    H     H_    0.069642 0.171755 0.641596 0.088833
H2    H     H_    0.354712 0.346075 0.190173 0.120107
H3    H     H_    0.088268 0.872657 0.304282 0.091638
H4    H     H_    0.880674 0.122785 0.733518 0.088593
H5    H     H_    0.137809 0.373067 0.001525 0.153420
H6    H     H_    0.197543 0.393969 0.863939 0.159185
H7    H     H_    0.124972 0.268186 0.876124 0.137983
H8    H     H_    0.353582 0.258250 0.880122 0.139195
H9    H     H_    0.289456 0.238785 0.013189 0.127882
H10   H     H_    0.856903 0.627135 0.005855 0.165028
H11   H     H_    0.830328 0.717368 0.908771 0.141447
H12   H     H_    0.921650 0.730136 0.254358 0.087375
H13   H     H_    0.880825 0.766950 0.057211 0.127817
H14   H     H_    0.651235 0.780785 0.013320 0.139072
H15   H     H_    0.689070 0.720744 0.132647 0.121288
H16   H     H_    0.113071 0.180570 0.340456 0.144114
H17   H     H_    0.179500 0.309703 0.332628 0.155430
H18   H     H_    0.276995 0.201923 0.326710 0.146646
H19   H     H_    0.293320 0.312056 0.529106 0.182457
H20   H     H_    0.231432 0.184286 0.526188 0.132250
H21   H     H_    0.006895 0.544528 0.120701 0.156445
H22   H     H_    0.007399 0.431635 0.191231 0.154000
H23   H     H_    0.757096 0.341671 0.605946 0.193127
H24   H     H_    0.906841 0.429297 0.064923 0.142407
H25   H     H_    0.791247 0.453030 0.242604 0.178837
H26   H     H_    0.786670 0.566685 0.176070 0.140975
H27   H     H_    0.755981 0.954463 0.743258 0.162337
H28   H     H_    0.651709 0.012572 0.850755 0.170694
H29   H     H_    0.740583 0.907935 0.878799 0.123065
H30   H     H_    0.520151 0.839697 0.817520 0.139029
H31   H     H_    0.639570 0.785263 0.726186 0.160815
H32   H     H_    0.826109 0.170615 0.377640 0.166299
H33   H     H_    0.793208 0.063800 0.256197 0.144800
H34   H     H_    0.223466 0.682389 0.475957 0.169193
H35   H     H_    0.844600 0.191433 0.230381 0.133545
H36   H     H_    0.615298 0.165035 0.190532 0.133653
H37   H     H_    0.662899 0.267400 0.307368 0.180249
H38   H     H_    0.393905 0.853595 0.221487 0.191287
H39   H     H_    0.381625 0.969487 0.158454 0.151414
H40   H     H_    0.453081 0.857703 0.079767 0.124610
H41   H     H_    0.608903 0.995123 0.159629 0.143620
H42   H     H_    0.630345 0.887614 0.227027 0.116263
H43   H     H_    0.271814 0.103313 0.681809 0.139132
H44   H     H_    0.244954 0.970685 0.706181 0.181412
H45   H     H_    0.534331 0.808829 0.352265 0.125442
H46   H     H_    0.248851 0.079412 0.826834 0.124961
H47   H     H_    0.438517 0.998535 0.833885 0.140138
H48   H     H_    0.476693 0.120420 0.792307 0.156651
H49   H     H_    0.455764 0.186082 0.632144 0.136281
H50   H     H_    0.397634 0.390592 0.788157 0.124019
H51   H     H_    0.591319 0.615593 0.215120 0.116031
H52   H     H_    0.651307 0.648123 0.807276 0.122773
N1    N     N_R   0.523180 0.519350 0.790130 -0.243270
N2    N     N_R   0.476820 0.480650 0.209870 -0.244147
O1    O     O_R   0.506570 0.354460 0.582000 -0.517472
O2    O     O_2   0.729695 0.200582 0.727232 -0.538913
O3    O     O_R   0.493430 0.645540 0.418000 -0.502347
O4    O     O_R   0.490940 0.341410 0.386200 -0.523496
O5    O     O_R   0.509060 0.658590 0.613800 -0.511280
O6    O     O_R   0.327470 0.506520 0.597900 -0.501402
O7    O     O_R   0.672530 0.493480 0.402100 -0.521925
O8    O     O_R   0.311840 0.493460 0.402100 -0.495817
O9    O     O_R   0.688160 0.506540 0.597900 -0.507831
O10   O     O_2   0.229331 0.861349 0.412334 -0.537524

loop_
_geom_bond_atom_site_label_1
_geom_bond_atom_site_label_2
_ccdc_geom_bond_type
Cu1   Cu2   S    
C48   H39   S    
C37   H13   S    
C43   H27   S    
Cu2   O7    S    
C49   H48   S    
C33   H9    S    
C46   H33   S    
C38   H20   S    
C21   C31   S    
C12   C23   S    
C50   H43   S    
C47   H42   S    
C48   H38   S    
C36   C37   S    
C19   C21   A    
C24   C26   A    
C22   H23   S    
C42   C53   S    
C41   H21   S    
C38   C39   S    
C3    C54   A    
Cu1   O6    S    
C10   N1    A    
C39   H18   S    
C31   H3    S    
C44   H37   S    
C17   C19   A    
C44   C46   S    
C49   C51   S    
C22   C25   A    
C5    C33   S    
Cu2   O3    S    
C15   O9    A    
C23   C53   A    
C42   H30   S    
C48   H40   S    
C7    H2    S    
C5    C13   A    
C44   H36   S    
C36   H15   S    
C4    C45   A    
C12   O5    A    
C44   C52   S    
C16   C27   A    
Cu1   N1    S    
C27   C30   A    
C43   H28   S    
C14   C30   S    
C8    H52   S    
Cu2   N2    S    
C36   H14   S    
C1    C34   S    
C15   C29   S    
C46   H32   S    
C38   H19   S    
C45   C47   S    
C25   C29   A    
C31   O10   D    
C43   H29   S    
C40   H26   S    
C6    C11   A    
C5    C7    A    
C3    C51   A    
C6    C8    A    
C46   H35   S    
C45   C52   A    
C14   O8    A    
C15   O7    A    
C51   C53   A    
C17   C40   S    
C2    C4    A    
C18   H1    S    
C47   C48   S    
C39   H16   S    
C37   H10   S    
C19   H12   S    
C35   H5    S    
C9    C11   A    
C40   C41   S    
C20   C22   A    
C34   C54   A    
C10   H50   S    
C9    H51   S    
C1    O4    A    
C32   H4    S    
C3    C4    A    
C34   C52   A    
C41   H22   S    
C12   O3    A    
C20   C32   S    
C9    N2    A    
C28   C29   A    
C32   O2    D    
C54   H49   S    
Cu1   O1    S    
C17   C28   A    
Cu2   O8    S    
C40   H25   S    
C10   C13   A    
C24   H34   S    
C49   H47   S    
C50   H46   S    
C25   C27   A    
C26   C28   A    
C2    H45   S    
C7    N2    A    
C47   H41   S    
C8    N1    A    
C1    O1    A    
C11   C13   A    
Cu1   O5    S    
C33   H8    S    
C14   O6    A    
C37   H11   S    
C33   C35   S    
C6    C36   S    
C35   H6    S    
C18   C20   A    
C39   H17   S    
C50   H44   S    
Cu1   O9    S    
C16   C18   A    
C49   C50   S    
C42   C43   S    
C21   C24   A    
C2    C23   A    
Cu2   O4    S    
C41   H24   S    
C35   H7    S    
C42   H31   S    
C16   C38   S    
C26   C30   A    
