data_mof_unit_19910.cif
_audit_creation_date              2012-12-10T17:12:38-0500
_audit_creation_method            fapswitch 2.2
_symmetry_space_group_name_H-M    P1
_symmetry_Int_Tables_number       1
_space_group_crystal_system       triclinic
_cell_length_a                    23.451985
_cell_length_b                    10.609065
_cell_length_c                    10.09601
_cell_angle_alpha                 85.204452
_cell_angle_beta                  90.39349
_cell_angle_gamma                 90.425136
_cell_volume                      2503.01252323

loop_
_atom_site_label
_atom_site_type_symbol
_atom_type_description
_atom_site_fract_x
_atom_site_fract_y
_atom_site_fract_z
_atom_type_partial_charge
C1    C     C_R   0.496482 0.262727 0.505829 1.027727
C2    C     C_R   0.969279 0.281031 0.562539 -0.189481
C3    C     C_R   0.028375 0.272939 0.551709 0.365545
C4    C     C_R   0.060112 0.383698 0.507391 -0.155235
C5    C     C_R   0.030314 0.496614 0.464909 -0.045561
C6    C     C_R   0.060320 0.605876 0.415153 -0.027713
C7    C     C_R   0.031112 0.717409 0.375458 -0.123536
C8    C     C_R   0.971975 0.724163 0.385969 -0.049458
C9    C     C_R   0.120270 0.389275 0.506555 0.629511
C10   C     C_R   0.119594 0.603109 0.410957 0.616715
C11   C     C_R   0.233400 0.553132 0.574690 -0.201192
C12   C     C_R   0.389409 0.503773 0.499034 0.972341
C13   C     C_R   0.292484 0.558725 0.589211 0.322570
C14   C     C_R   0.326906 0.506611 0.492873 -0.190257
C15   C     C_R   0.300942 0.457235 0.381889 -0.201365
C16   C     C_R   0.242080 0.454817 0.366843 0.394830
C17   C     C_R   0.208409 0.501570 0.465395 0.118737
C18   C     C_R   0.762161 0.429233 0.417355 -0.175118
C19   C     C_R   0.703227 0.421175 0.421758 0.362792
C20   C     C_R   0.673120 0.500090 0.502965 -0.284661
C21   C     C_R   0.703577 0.579862 0.585958 -0.201141
C22   C     C_R   0.763748 0.579085 0.587615 0.352522
C23   C     C_R   0.501790 0.737625 0.493852 0.892813
C24   C     C_R   0.792279 0.506072 0.498820 0.099672
C25   C     C_2   0.452237 0.929269 0.485583 -0.201884
C26   C     C_2   0.502214 0.871372 0.472010 -0.275078
C27   C     C_2   0.448280 0.065696 0.470896 0.495542
C28   C     C_2   0.490737 0.129599 0.524187 -0.380962
C29   C     C_2   0.505844 0.598166 0.920473 -0.053096
C30   C     C_2   0.489744 0.597641 0.062955 0.400090
C31   C     C_R   0.610551 0.500137 0.500652 0.924310
C32   C     C_R   0.880607 0.609463 0.432870 0.645858
C33   C     C_R   0.881304 0.398898 0.536882 0.560106
C34   C     C_R   0.940365 0.393177 0.524907 -0.081573
C35   C     C_R   0.970443 0.501233 0.473264 0.007725
C36   C     C_R   0.940672 0.613848 0.431057 -0.073931
H1    H     H_    0.945309 0.197890 0.599117 0.242158
H2    H     H_    0.413954 0.875363 0.512881 0.227082
H3    H     H_    0.522730 0.080975 0.587761 0.120700
H4    H     H_    0.518365 0.687786 0.869029 0.134973
H5    H     H_    0.529081 0.437309 0.115873 0.224662
H6    H     H_    0.054676 0.802236 0.341447 0.216964
H7    H     H_    0.205975 0.589393 0.648357 0.209266
H8    H     H_    0.326728 0.418599 0.306746 0.253818
H9    H     H_    0.785721 0.372414 0.352504 0.209077
N1    N     N_R   0.852972 0.505799 0.491344 -0.331282
N2    N     N_R   0.147836 0.496708 0.457306 -0.345228
N3    N     N_2   0.500610 0.501330 0.852150 0.046009
N4    N     N_2   0.500630 0.501360 0.147810 -0.183387
O1    O     O_R   0.499990 0.319060 0.613040 -0.579869
O2    O     O_2   0.852060 0.298366 0.593227 -0.511946
O3    O     O_2   0.151688 0.291237 0.558107 -0.427346
O4    O     O_2   0.149212 0.706538 0.363124 -0.472078
O5    O     O_R   0.500010 0.319100 0.386900 -0.527232
O6    O     O_R   0.416150 0.499940 0.613100 -0.515790
O7    O     O_R   0.416160 0.499980 0.386960 -0.583664
O8    O     O_R   0.499990 0.680900 0.613100 -0.625363
O9    O     O_R   0.500010 0.680940 0.386960 -0.569445
O10   O     O_R   0.583840 0.500020 0.613040 -0.610136
O11   O     O_R   0.583850 0.500060 0.386900 -0.565801
O12   O     O_2   0.849640 0.705327 0.374102 -0.476841
Zn1   Zn    Zn3+2 0.499990 0.499970 0.650990 1.142488
Zn2   Zn    Zn3+2 0.500010 0.500030 0.349010 1.157539
S1    S     S_3+6 0.669729 0.303975 0.331850 0.081927
O13   O     O_2   0.641724 0.365714 0.209019 -0.226136
O14   O     O_2   0.712567 0.210097 0.290953 -0.233575
O15   O     O_3   0.620143 0.226780 0.427234 -0.567374
H10   H     H_    0.641348 0.188474 0.505515 0.361036
C37   C     C_2   0.673292 0.669022 0.665990 1.044267
O16   O     O_2   0.648958 0.629977 0.768201 -0.578687
O17   O     O_R   0.675543 0.798563 0.627905 -0.699985
H11   H     H_    0.654128 0.850307 0.691117 0.354672
S2    S     S_3+6 0.803135 0.667854 0.700786 0.122416
O18   O     O_2   0.809641 0.801389 0.640300 -0.133111
O19   O     O_2   0.772099 0.670075 0.830368 -0.243588
O20   O     O_3   0.868383 0.607739 0.733238 -0.515662
H12   H     H_    0.861483 0.526472 0.786605 0.372158
C38   C     C_2   0.552089 0.930054 0.397982 0.980091
O21   O     O_2   0.599655 0.885900 0.418126 -0.578168
O22   O     O_R   0.544310 0.029970 0.300082 -0.685865
H13   H     H_    0.581152 0.057696 0.254080 0.407470
S3    S     S_3+6 0.386309 0.136411 0.398190 0.077035
O23   O     O_2   0.357824 0.210914 0.498858 -0.343373
O24   O     O_2   0.401886 0.222736 0.278123 -0.225924
O25   O     O_3   0.341220 0.023766 0.352280 -0.472832
H14   H     H_    0.307908 0.070480 0.313088 0.399971
S4    S     S_3+6 0.461879 0.367157 0.914969 0.175742
O26   O     O_2   0.502687 0.269501 0.975227 -0.272479
O27   O     O_2   0.418767 0.397166 0.017163 -0.224176
O28   O     O_3   0.425099 0.302737 0.794069 -0.467464
H15   H     H_    0.409422 0.222280 0.836178 0.390012
S5    S     S_3+6 0.451501 0.731341 0.104679 0.130302
O29   O     O_2   0.408875 0.697674 0.212123 -0.201264
O30   O     O_2   0.492532 0.828676 0.149528 -0.289870
O31   O     O_3   0.416131 0.793881 0.969429 -0.431678
H16   H     H_    0.443979 0.850138 0.919929 0.359925
S6    S     S_3+6 0.058431 0.120211 0.589188 0.125044
O32   O     O_2   0.092251 0.119266 0.716251 -0.137462
O33   O     O_2   0.012686 0.020249 0.606675 -0.274441
O34   O     O_3   0.101562 0.084188 0.465595 -0.440875
H17   H     H_    0.076711 0.086784 0.385688 0.367432
C39   C     C_2   0.946142 0.851072 0.360253 1.040652
O35   O     O_2   0.958395 0.917375 0.259377 -0.578966
O36   O     O_R   0.910380 0.897632 0.454858 -0.666334
H18   H     H_    0.896514 0.986343 0.427396 0.371488
S7    S     S_3+6 0.319831 0.634090 0.726795 0.127934
O37   O     O_2   0.369910 0.716942 0.685916 -0.272838
O38   O     O_2   0.274894 0.714332 0.783082 -0.199933
O39   O     O_3   0.340656 0.523397 0.845263 -0.413783
H19   H     H_    0.306489 0.469548 0.863842 0.386000
S8    S     S_3+6 0.211552 0.391614 0.225570 0.105942
O40   O     O_2   0.167584 0.481130 0.164117 -0.210416
O41   O     O_2   0.256395 0.371391 0.123904 -0.241494
O42   O     O_3   0.179688 0.252573 0.271539 -0.473307
H20   H     H_    0.209871 0.200449 0.317573 0.382048

loop_
_geom_bond_atom_site_label_1
_geom_bond_atom_site_label_2
_ccdc_geom_bond_type
C23   O9    A    
S4    O26   D    
N4    Zn2   S    
O31   H16   S    
S2    O18   D    
C19   C20   A    
S6    O32   D    
C7    C8    A    
O25   H14   S    
C26   C38   S    
O11   Zn2   S    
C18   C24   A    
C32   C36   A    
C15   H8    S    
C34   C35   A    
C5    C6    A    
C38   O22   S    
C23   C26   S    
O5    Zn2   S    
C15   C16   A    
O6    Zn1   S    
C18   C19   A    
C8    C36   A    
C7    H6    S    
C31   O10   A    
C37   O17   S    
C10   O4    S    
S5    O29   D    
S8    O40   D    
C16   C17   A    
C1    C28   S    
C11   H7    S    
C1    O1    A    
C2    C34   A    
C21   C22   A    
C33   N1    A    
S2    O19   D    
C37   O16   D    
C9    O3    S    
H5    N4    S    
O36   H18   S    
S6    O33   D    
O42   H20   S    
O7    Zn2   S    
C29   N3    D    
O15   H10   S    
S1    O15   S    
O8    Zn1   S    
O20   H12   S    
C30   S5    S    
C38   O21   D    
O22   H13   S    
C28   H3    S    
C25   C26   D    
S5    O31   S    
C21   C37   S    
C35   C36   A    
S1    O14   D    
C31   O11   A    
C1    O5    A    
C6    C10   A    
C29   C30   S    
C25   H2    S    
C3    S6    S    
N3    Zn1   S    
C19   S1    S    
S5    O30   D    
C33   C34   A    
N3    S4    S    
S8    O41   D    
C39   O36   S    
C12   O7    A    
C30   N4    D    
C12   C14   S    
C9    N2    A    
S3    O24   D    
S4    O27   D    
O1    Zn1   S    
S2    O20   S    
C22   C24   A    
C33   O2    S    
C3    C4    A    
C18   H9    S    
C10   N2    A    
S6    O34   S    
O9    Zn2   S    
C23   O8    A    
C11   C17   A    
O10   Zn1   S    
C32   N1    A    
C27   S3    S    
C17   N2    S    
C13   S7    S    
C32   O12   S    
C6    C7    A    
C25   C27   S    
S3    O25   S    
C24   N1    S    
S1    O13   D    
C2    C3    A    
O17   H11   S    
O39   H19   S    
C11   C13   A    
C2    H1    S    
O28   H15   S    
S7    O38   D    
C5    C35   A    
C29   H4    S    
O34   H17   S    
S8    O42   S    
C39   O35   D    
C12   O6    A    
C4    C5    A    
C20   C21   A    
S3    O23   D    
S7    O37   D    
S4    O28   S    
C27   C28   D    
C14   C15   A    
C22   S2    S    
C4    C9    A    
C13   C14   A    
C8    C39   S    
C20   C31   S    
C16   S8    S    
S7    O39   S    
