data_mof_unit_35474.cif
_audit_creation_date              2013-03-05T15:50:46-0500
_audit_creation_method            fapswitch 2.2
_symmetry_space_group_name_H-M    P1
_symmetry_Int_Tables_number       1
_space_group_crystal_system       triclinic
_cell_length_a                    14.252667
_cell_length_b                    14.820893
_cell_length_c                    33.323727
_cell_angle_alpha                 97.703496
_cell_angle_beta                  90.470831
_cell_angle_gamma                 118.728181
_cell_volume                      6095.63276886

loop_
_atom_site_label
_atom_site_type_symbol
_atom_site_description
_atom_site_fract_x
_atom_site_fract_y
_atom_site_fract_z
_atom_type_partial_charge
O1    O     O_R   0.318160 0.824460 0.443680 -0.516279
O2    O     O_R   0.525040 0.857250 0.449830 -0.499084
C1    C     C_R   0.616089 0.911654 0.436473 0.545090
O3    O     O_R   0.684760 0.998800 0.456360 -0.523961
O4    O     O_R   0.647540 0.166310 0.470260 -0.468380
C2    C     C_R   0.593764 0.204771 0.456364 0.568077
O5    O     O_R   0.500960 0.181750 0.467450 -0.526894
O6    O     O_R   0.331100 0.981120 0.457080 -0.501661
C3    C     C_R   0.296171 0.893244 0.434314 0.544928
O7    O     O_R   0.315560 0.821140 0.532010 -0.523278
O8    O     O_R   0.522630 0.854180 0.531710 -0.498148
C4    C     C_R   0.613766 0.905902 0.551908 0.545520
O9    O     O_R   0.682160 0.995480 0.544690 -0.509507
O10   O     O_R   0.645130 0.163230 0.552140 -0.505073
C5    C     C_R   0.590865 0.201412 0.570275 0.555912
O11   O     O_R   0.498360 0.178430 0.555780 -0.472253
O12   O     O_R   0.328690 0.978040 0.538950 -0.437491
C6    C     C_R   0.289020 0.887036 0.548728 0.561922
Cr1   Cr    Cr6+3 0.424820 0.846020 0.489780 1.023124
Cr2   Cr    Cr6+3 0.657880 0.078580 0.505700 1.040396
Cr3   Cr    Cr6+3 0.417280 0.075360 0.504550 1.102986
O13   O     O_3   0.499990 0.999990 0.500010 -0.261078
C7    C     C_R   0.737488 0.444646 0.104326 -0.060755
C8    C     C_R   0.693948 0.477135 0.137373 0.181449
C9    C     C_R   0.693458 0.443936 0.174679 0.236344
C10   C     C_R   0.739182 0.380181 0.179782 -0.036642
C11   C     C_R   0.782496 0.346251 0.146987 0.197664
C12   C     C_R   0.784813 0.381705 0.109505 0.218290
C13   C     C_R   0.669601 0.248759 0.228078 0.231383
C14   C     C_R   0.659679 0.231967 0.268548 -0.069551
C15   C     C_R   0.715157 0.314717 0.300501 -0.012810
C16   C     C_R   0.790379 0.412608 0.292150 -0.135360
C17   C     C_R   0.802832 0.430191 0.252156 -0.089597
C18   C     C_R   0.739564 0.350515 0.220109 0.076565
C19   C     C_R   0.578901 0.262033 0.351421 0.260085
C20   C     C_R   0.551084 0.239120 0.390194 -0.148940
C21   C     C_R   0.738550 0.302499 0.412232 0.258558
C22   C     C_R   0.766431 0.326836 0.373234 -0.160469
C23   C     C_R   0.686581 0.300919 0.342311 -0.022423
C24   C     C_R   0.629462 0.255888 0.420351 -0.008128
H1    H     H_    0.849783 0.362525 0.366575 0.120743
H2    H     H_    0.603276 0.155651 0.275347 0.172389
H3    H     H_    0.834481 0.476925 0.316566 0.125467
H4    H     H_    0.857174 0.508012 0.246196 0.136808
H5    H     H_    0.466848 0.202045 0.395776 0.165066
H6    H     H_    0.187181 0.732765 0.101979 0.152702
H7    H     H_    0.199351 0.730802 0.300579 0.120525
H8    H     H_    0.237369 0.730866 0.372172 0.140890
C25   C     C_R   0.248479 0.880881 0.393031 -0.020076
C26   C     C_R   0.239317 0.963818 0.380789 -0.112341
C27   C     C_R   0.220854 0.966383 0.339613 0.230180
C28   C     C_R   0.208061 0.881897 0.310423 0.019953
C29   C     C_R   0.210007 0.796148 0.322838 -0.161710
C30   C     C_R   0.230371 0.795614 0.363765 -0.137105
C31   C     C_R   0.194260 0.805102 0.163010 0.260868
C32   C     C_R   0.168170 0.786009 0.121050 -0.099845
C33   C     C_R   0.089642 0.899637 0.129255 -0.114096
C34   C     C_R   0.114974 0.920068 0.171436 0.183470
C35   C     C_R   0.165555 0.870172 0.188388 0.030543
C36   C     C_1   0.182304 0.878398 0.231632 0.124088
C37   C     C_1   0.193977 0.880970 0.267620 0.088212
C38   C     C_R   0.110678 0.828470 0.104232 -0.055698
H9    H     H_    0.253709 0.030377 0.403065 0.165021
H10   H     H_    0.044766 0.932356 0.116532 0.169556
H11   H     H_    0.873352 0.947837 0.125568 0.171739
H12   H     H_    0.835522 0.974905 0.196193 0.193390
H13   H     H_    0.794269 0.015634 0.396708 0.139202
C39   C     C_R   0.632893 0.885400 0.393657 -0.025499
C40   C     C_R   0.547694 0.804842 0.367283 -0.143406
C41   C     C_R   0.554322 0.796253 0.325239 -0.161782
C42   C     C_R   0.645532 0.868516 0.308999 0.041240
C43   C     C_R   0.732616 0.947325 0.334996 0.293829
C44   C     C_R   0.727011 0.953522 0.377142 -0.099550
C45   C     C_R   0.771073 0.917133 0.174290 -0.080678
C46   C     C_R   0.792390 0.902064 0.133906 -0.086639
C47   C     C_R   0.608249 0.764727 0.117488 -0.018101
C48   C     C_R   0.586229 0.778894 0.158070 0.333684
C49   C     C_R   0.669504 0.853988 0.186835 0.060753
C50   C     C_1   0.656153 0.860051 0.229634 0.049946
C51   C     C_1   0.649333 0.863333 0.265708 0.033347
C52   C     C_R   0.712527 0.822609 0.105553 -0.006009
H14   H     H_    0.473773 0.751677 0.378952 0.141594
H15   H     H_    0.545081 0.704470 0.095803 0.159089
H16   H     H_    0.486838 0.735312 0.305347 0.116770
H17   H     H_    0.886053 0.514655 0.896134 0.136448
H18   H     H_    0.752820 0.219535 0.619912 0.152818
C53   C     C_R   0.628826 0.261448 0.611288 -0.067658
C54   C     C_R   0.574569 0.311465 0.629922 -0.092072
C55   C     C_R   0.591953 0.347601 0.671757 0.183373
C56   C     C_R   0.667600 0.334974 0.694648 0.013792
C57   C     C_R   0.730642 0.295544 0.675297 0.241086
C58   C     C_R   0.709727 0.257435 0.633815 -0.120328
C59   C     C_R   0.797694 0.441889 0.838249 0.269294
C60   C     C_R   0.806974 0.468708 0.880394 -0.110998
C61   C     C_R   0.612950 0.381932 0.880802 -0.140493
C62   C     C_R   0.603339 0.354364 0.838736 -0.153653
C63   C     C_R   0.695383 0.387522 0.817495 0.042209
C64   C     C_1   0.685060 0.369543 0.774272 0.071222
C65   C     C_1   0.677571 0.355396 0.737966 0.100372
C66   C     C_R   0.715134 0.440456 0.901849 -0.018146
H19   H     H_    0.513371 0.316359 0.612330 0.203540
H20   H     H_    0.524210 0.310879 0.822611 0.152061
H21   H     H_    0.540797 0.359430 0.896604 0.159403
C67   C     C_R   0.078002 0.760449 0.910396 0.004976
C68   C     C_R   0.098930 0.853521 0.895832 0.203734
C69   C     C_R   0.115324 0.860091 0.854836 -0.093459
C70   C     C_R   0.117566 0.778770 0.828987 -0.002239
C71   C     C_R   0.112077 0.693812 0.844806 -0.075677
C72   C     C_R   0.092004 0.684444 0.885228 -0.136308
C73   C     C_R   0.196763 0.763325 0.763984 -0.078470
C74   C     C_R   0.204213 0.772328 0.722984 -0.091479
C75   C     C_R   0.136270 0.799013 0.702910 0.054530
C76   C     C_R   0.057910 0.812593 0.723700 -0.064875
C77   C     C_R   0.051138 0.804585 0.764810 -0.102197
C78   C     C_R   0.121766 0.781674 0.785274 0.039919
C79   C     C_R   0.181136 0.917215 0.650381 0.217872
C80   C     C_R   0.214608 0.938119 0.611374 0.198144
C81   C     C_R   0.184238 0.760723 0.593784 -0.163595
C82   C     C_R   0.149974 0.739930 0.631883 -0.177853
C83   C     C_R   0.153101 0.818656 0.660925 -0.030430
C84   C     C_R   0.223525 0.861243 0.583923 -0.029502
H22   H     H_    0.080309 0.614173 0.895900 0.142319
H23   H     H_    0.126273 0.663428 0.639517 0.128901
H24   H     H_    0.265365 0.761956 0.707207 0.123145
H25   H     H_    0.251720 0.745560 0.779366 0.160175
H26   H     H_    0.126311 0.928816 0.842950 0.161266
H27   H     H_    0.004159 0.831904 0.708365 0.130702
H28   H     H_    0.991530 0.817201 0.780793 0.088141
H29   H     H_    0.116552 0.631647 0.825295 0.142054
H30   H     H_    0.186827 0.699311 0.572996 0.159272
C85   C     C_R   0.661229 0.744455 0.911730 -0.069084
C86   C     C_R   0.572600 0.656340 0.889977 -0.144389
C87   C     C_R   0.540052 0.656877 0.849818 0.290392
C88   C     C_R   0.596600 0.747720 0.832143 0.111854
C89   C     C_R   0.681419 0.837989 0.854908 0.247628
C90   C     C_R   0.711445 0.836163 0.894569 -0.099574
C91   C     C_R   0.547219 0.817283 0.775467 0.206944
C92   C     C_R   0.560041 0.836439 0.735259 -0.127705
C93   C     C_R   0.597026 0.783423 0.707520 -0.076929
C94   C     C_R   0.616475 0.706578 0.719320 -0.082616
C95   C     C_R   0.609673 0.689696 0.759812 0.274989
C96   C     C_R   0.577046 0.746641 0.788360 0.072522
C97   C     C_R   0.560493 0.735018 0.632207 -0.105035
C98   C     C_R   0.566382 0.764760 0.593856 -0.119781
C99   C     C_R   0.692406 0.943239 0.622959 -0.103334
C100  C     C_R   0.684801 0.913826 0.661345 -0.099592
C101  C     C_R   0.616226 0.810287 0.666347 0.022473
C102  C     C_R   0.629663 0.869783 0.589161 0.021597
H31   H     H_    0.531019 0.586956 0.903881 0.133659
H32   H     H_    0.777718 0.906228 0.911274 0.184928
H33   H     H_    0.729126 0.972642 0.687451 0.144371
H34   H     H_    0.540842 0.892776 0.725315 0.168569
H35   H     H_    0.641929 0.663129 0.697600 0.162025
H36   H     H_    0.507494 0.654702 0.635606 0.151038
H37   H     H_    0.517030 0.706767 0.568264 0.129203
H38   H     H_    0.740957 0.024821 0.620339 0.145393
O14   O     O_R   0.828710 0.851830 0.052170 -0.503176
O15   O     O_R   0.005980 0.823990 0.047210 -0.477661
C103  C     C_R   0.052429 0.781226 0.063682 0.560792
O16   O     O_R   0.031900 0.688850 0.050170 -0.527383
O17   O     O_R   0.830940 0.518420 0.048680 -0.481383
C104  C     C_R   0.744230 0.486617 0.066115 0.619306
O18   O     O_R   0.668160 0.499860 0.053480 -0.442928
O19   O     O_R   0.689170 0.693840 0.050110 -0.477209
C105  C     C_R   0.742413 0.789420 0.066215 0.554421
O20   O     O_R   0.803860 0.812940 0.962540 -0.492146
O21   O     O_R   0.982950 0.787950 0.964120 -0.445803
C106  C     C_R   0.024298 0.733818 0.948072 0.549752
O22   O     O_R   0.007050 0.649970 0.960540 -0.541297
O23   O     O_R   0.807910 0.482370 0.965590 -0.481793
C107  C     C_R   0.728928 0.480961 0.945326 0.554937
O24   O     O_R   0.643310 0.460980 0.963840 -0.499501
O25   O     O_R   0.666140 0.657800 0.967020 -0.521219
C108  C     C_R   0.710625 0.739286 0.949928 0.536623
Cr4   Cr    Cr6+3 0.903360 0.812540 0.006510 1.114773
Cr5   Cr    Cr6+3 0.914630 0.587050 0.006280 1.039360
Cr6   Cr    Cr6+3 0.673560 0.582680 0.008540 1.079386
O26   O     O_3   0.830520 0.660760 0.007110 -0.295610
N1    N     N_R   0.660046 0.552818 0.134743 0.090804
O27   O     O_R   0.563448 0.523539 0.119668 -0.353135
O28   O     O_R   0.719939 0.648049 0.152890 -0.362774
N2    N     N_R   0.823667 0.276122 0.151393 0.101734
O29   O     O_R   0.884624 0.290693 0.183568 -0.356681
O30   O     O_R   0.803472 0.199311 0.122483 -0.237940
O31   O     O_3   0.816756 0.328260 0.443268 -0.548969
C109  C     C_3   0.874279 0.274089 0.433340 -0.085418
H39   H     H_    0.819763 0.189697 0.422491 0.123804
H40   H     H_    0.921443 0.280174 0.461188 0.150555
H41   H     H_    0.932135 0.309503 0.410551 0.110221
O32   O     O_3   0.249169 0.761015 0.179364 -0.517622
C110  C     C_3   0.176528 0.655484 0.181093 -0.097393
H42   H     H_    0.146534 0.609322 0.150139 0.106936
H43   H     H_    0.108000 0.647106 0.199068 0.096386
H44   H     H_    0.219364 0.622343 0.196564 0.161494
N3    N     N_R   0.084009 0.987148 0.196314 0.091068
O33   O     O_R   0.078017 0.061297 0.181495 -0.321805
O34   O     O_R   0.049772 0.967561 0.231882 -0.283206
O35   O     O_3   0.831422 0.353517 0.077402 -0.498092
C111  C     C_3   0.944338 0.414471 0.084256 -0.051992
H45   H     H_    0.971271 0.499121 0.092833 0.096986
H46   H     H_    0.980266 0.404925 0.055686 0.152302
H47   H     H_    0.976261 0.387929 0.107911 0.157230
N4    N     N_R   0.218985 0.056191 0.328329 0.104534
O36   O     O_R   0.195290 0.114239 0.354426 -0.329978
O37   O     O_R   0.250597 0.086533 0.293664 -0.266659
O38   O     O_3   0.824282 0.017602 0.319364 -0.527093
C112  C     C_3   0.815495 0.107191 0.316032 -0.088699
H48   H     H_    0.810520 0.146097 0.346256 0.086323
H49   H     H_    0.745139 0.088300 0.295038 0.125630
H50   H     H_    0.888510 0.163482 0.303201 0.180114
O39   O     O_3   0.482165 0.721093 0.168417 -0.534039
C113  C     C_3   0.474225 0.643271 0.190715 -0.082422
H51   H     H_    0.461721 0.663779 0.222741 0.112814
H52   H     H_    0.544717 0.629735 0.190334 0.180651
H53   H     H_    0.402603 0.568516 0.177894 0.153476
O40   O     O_3   0.888493 0.477153 0.817069 -0.596912
C114  C     C_3   0.929830 0.407903 0.817467 -0.119908
H54   H     H_    0.869886 0.327339 0.803265 0.161684
H55   H     H_    0.957382 0.408391 0.848883 0.126904
H56   H     H_    0.000498 0.433864 0.799272 0.135289
O41   O     O_3   0.804462 0.282777 0.697591 -0.559104
C115  C     C_3   0.904678 0.373939 0.699880 -0.111963
H57   H     H_    0.901516 0.443049 0.716119 0.129693
H58   H     H_    0.933122 0.387964 0.669135 0.119113
H59   H     H_    0.964503 0.363836 0.717451 0.155328
N5    N     N_R   0.529859 0.393037 0.690151 0.107821
O42   O     O_R   0.492227 0.437391 0.668610 -0.334398
O43   O     O_R   0.502471 0.382905 0.727106 -0.299699
N6    N     N_R   0.103603 0.941264 0.921966 0.092648
O44   O     O_R   0.070205 0.999676 0.907983 -0.352596
O45   O     O_R   0.156000 0.972205 0.957677 -0.289738
N7    N     N_R   0.181255 0.997781 0.679650 0.097320
O46   O     O_R   0.128660 0.044984 0.670855 -0.273273
O47   O     O_R   0.239271 0.028635 0.714132 -0.290535
N8    N     N_R   0.245969 0.039179 0.601078 0.116066
O48   O     O_R   0.194518 0.048407 0.570844 -0.306641
O49   O     O_R   0.320173 0.122493 0.623683 -0.265686
N9    N     N_R   0.604173 0.163749 0.196279 0.100887
O50   O     O_R   0.575677 0.068449 0.201019 -0.298229
O51   O     O_R   0.563130 0.179187 0.164595 -0.314606
N10   N     N_R   0.506272 0.871284 0.802913 0.101914
O52   O     O_R   0.510793 0.957075 0.795266 -0.304370
O53   O     O_R   0.454799 0.830051 0.833430 -0.316666
O54   O     O_3   0.449836 0.573215 0.827926 -0.532924
C116  C     C_3   0.451425 0.478964 0.828407 -0.059455
H60   H     H_    0.420507 0.446912 0.856674 0.100076
H61   H     H_    0.532778 0.488106 0.824463 0.156250
H62   H     H_    0.397132 0.421183 0.802524 0.199839
O55   O     O_3   0.631654 0.614905 0.771182 -0.528786
C117  C     C_3   0.743791 0.656213 0.776853 -0.128241
H63   H     H_    0.777820 0.716890 0.804299 0.091112
H64   H     H_    0.785011 0.687470 0.749679 0.102744
H65   H     H_    0.760519 0.592857 0.782118 0.167706
O56   O     O_3   0.732430 0.930106 0.839084 -0.529378
C118  C     C_3   0.828749 0.940899 0.823881 -0.110469
H66   H     H_    0.811643 0.885897 0.795212 0.093164
H67   H     H_    0.879542 0.930529 0.846427 0.137222
H68   H     H_    0.875977 0.020853 0.816565 0.173372
O57   O     O_3   0.655774 0.481359 0.207406 -0.545401
C119  C     C_3   0.545089 0.412712 0.208127 -0.079731
H69   H     H_    0.529960 0.334785 0.213781 0.156089
H70   H     H_    0.498964 0.404931 0.179586 0.170227
H71   H     H_    0.514505 0.444923 0.233496 0.118741
O58   O     O_3   0.498819 0.238098 0.321660 -0.531656
C120  C     C_3   0.487155 0.327068 0.320963 -0.065203
H72   H     H_    0.562406 0.393599 0.313431 0.111221
H73   H     H_    0.461659 0.349755 0.350357 0.131545
H74   H     H_    0.423538 0.308405 0.296874 0.180262

loop_
_geom_bond_atom_site_label_1
_geom_bond_atom_site_label_2
_geom_bond_distance
_ccdc_geom_bond_type
O24   Cr6   2.044411 S    
N4    O36   1.301547 A    
C118  H67   1.114092 S    
O32   C110  1.410678 S    
C86   H31   1.081554 S    
C62   H20   1.083747 S    
C111  H46   1.109151 S    
C95   O55   1.383797 S    
C56   C65   1.426090 S    
C61   C62   1.392904 A    
C55   N5    1.443447 S    
C31   C32   1.399213 A    
C112  H49   1.113284 S    
C82   H23   1.083951 S    
O17   C104  1.269761 A    
C33   C34   1.403662 A    
C89   C90   1.393581 A    
O4    Cr2   1.923562 S    
O23   Cr5   1.921652 S    
C29   C30   1.393897 A    
C79   C80   1.410418 A    
C114  H56   1.109121 S    
H8    C30   1.083008 S    
C4    O9    1.271244 A    
N4    O37   1.301012 A    
O58   C120  1.409174 S    
C93   C101  1.471002 S    
O55   C117  1.410076 S    
N6    O44   1.301488 A    
C16   H3    1.083258 S    
O21   Cr4   1.923739 S    
O19   C105  1.275419 A    
C1    C39   1.480148 S    
O54   C116  1.410116 S    
C104  O18   1.269063 A    
C21   C24   1.411494 A    
C31   C35   1.406750 A    
C28   C37   1.436072 S    
C87   O54   1.390116 S    
O4    C2    1.269535 A    
C64   C65   1.194750 T    
C72   H22   1.082734 S    
C88   C96   1.479673 S    
C69   C70   1.398140 A    
C80   N8    1.434443 S    
C117  H64   1.113279 S    
C5    O11   1.265449 A    
H12   C45   1.083971 S    
C111  H47   1.110148 S    
C63   C64   1.422391 S    
C34   N3    1.441275 S    
C71   C72   1.390625 A    
N10   O52   1.301606 A    
C97   C98   1.397088 A    
C80   C84   1.418732 A    
N2    O29   1.301265 A    
C67   C68   1.419030 A    
C40   H14   1.083006 S    
C73   C74   1.390495 A    
C99   H38   1.083249 S    
C95   C96   1.415234 A    
C10   C18   1.469662 S    
C109  H41   1.110517 S    
C21   O31   1.387063 S    
C74   C75   1.403589 A    
C61   H21   1.082756 S    
C86   C87   1.415058 A    
O18   Cr6   2.039410 S    
C112  H50   1.109139 S    
N8    O48   1.301050 A    
O15   C103  1.277465 A    
O16   Cr5   2.037927 S    
C41   C42   1.399430 A    
H13   C44   1.082584 S    
O25   Cr6   1.920631 S    
C57   O41   1.382349 S    
C41   H16   1.083593 S    
C120  H72   1.113443 S    
C45   C49   1.399527 A    
C56   C57   1.406376 A    
C98   C102  1.406690 A    
C94   H35   1.083563 S    
H7    C29   1.084143 S    
C7    C104  1.474598 S    
C91   N10   1.441928 S    
C117  H65   1.108160 S    
Cr5   O26   1.970457 S    
C74   H24   1.083683 S    
C118  H68   1.109094 S    
C35   C36   1.437984 S    
C113  H51   1.109675 S    
C25   C30   1.402392 A    
O25   C108  1.280308 A    
C116  H60   1.110264 S    
C81   C82   1.384077 A    
C59   O40   1.381948 S    
C26   H9    1.083010 S    
N8    O49   1.301088 A    
C76   C77   1.391020 A    
C40   C41   1.397882 A    
C119  H71   1.109269 S    
C38   C103  1.474634 S    
C47   H15   1.083378 S    
C42   C51   1.437197 S    
C27   N4    1.442866 S    
C99   C100  1.394425 A    
Cr4   O26   1.976333 S    
C47   C48   1.402000 A    
C97   C101  1.400981 A    
C22   C23   1.399652 A    
O7    C6    1.272788 A    
N9    O51   1.301019 A    
O19   Cr6   1.927024 S    
O1    Cr1   2.033744 S    
C91   C96   1.416650 A    
O20   C108  1.267858 A    
C45   C46   1.394502 A    
C27   C28   1.413644 A    
C31   O32   1.384334 S    
O10   Cr2   1.924895 S    
C20   C24   1.402611 A    
Cr1   O13   1.976521 S    
C3    C25   1.478324 S    
C94   C95   1.400721 A    
C22   H1    1.082624 S    
C119  H70   1.112435 S    
C85   C90   1.402381 A    
O14   C105  1.272521 A    
C57   C58   1.393130 A    
C75   C83   1.465403 S    
O17   Cr5   1.923647 S    
O38   C112  1.410753 S    
O6    C3    1.274845 A    
C97   H36   1.083303 S    
C43   O38   1.382618 S    
C73   H25   1.083235 S    
C115  H59   1.109206 S    
C33   C38   1.403597 A    
C39   C44   1.407422 A    
C48   C49   1.411257 A    
C13   C18   1.416090 A    
C12   O35   1.385240 S    
C1    O3    1.268842 A    
C112  H48   1.112064 S    
C36   C37   1.202373 T    
N10   O53   1.301443 A    
C19   C20   1.392315 A    
C68   N6    1.437407 S    
C19   O58   1.382029 S    
C21   C22   1.404728 A    
C19   C23   1.408542 A    
N3    O34   1.301073 A    
C110  H43   1.114051 S    
O39   C113  1.414523 S    
C13   C14   1.399992 A    
C81   H30   1.083212 S    
C67   C106  1.475177 S    
O41   C115  1.409567 S    
C77   H28   1.083444 S    
H17   C60   1.079759 S    
C103  O16   1.268959 A    
C113  H53   1.109413 S    
C60   C66   1.403083 A    
O7    Cr1   2.040710 S    
C7    C8    1.409250 A    
O40   C114  1.409078 S    
O8    Cr1   1.915976 S    
C62   C63   1.397255 A    
C8    N1    1.430408 S    
N7    O47   1.301235 A    
O12   C6    1.277806 A    
O20   Cr4   2.033312 S    
O1    C3    1.275040 A    
C20   H5    1.083894 S    
C26   C27   1.403985 A    
C59   C60   1.394482 A    
C7    C12   1.414598 A    
C8    C9    1.395886 A    
C82   C83   1.395201 A    
C115  H58   1.113611 S    
C120  H73   1.113340 S    
C107  O24   1.292837 A    
C70   C78   1.463923 S    
C71   H29   1.082699 S    
O35   C111  1.413983 S    
O14   Cr4   2.042283 S    
C106  O22   1.274287 A    
C114  H54   1.113909 S    
Cr2   O13   1.967428 S    
N5    O42   1.301605 A    
N5    O43   1.301000 A    
C116  H61   1.111914 S    
C10   C11   1.410844 A    
C87   C88   1.409434 A    
C32   C38   1.401516 A    
C50   C51   1.203217 T    
C34   C35   1.415444 A    
C109  H39   1.112987 S    
C70   C71   1.397659 A    
C109  H40   1.109156 S    
C118  H66   1.110402 S    
C59   C63   1.399457 A    
C13   N9    1.440921 S    
O21   C106  1.273426 A    
C99   C102  1.404356 A    
C53   C58   1.400098 A    
C28   C29   1.400624 A    
C33   H10   1.082983 S    
C5    C53   1.466756 S    
C100  C101  1.402602 A    
C91   C92   1.401933 A    
C110  H42   1.112306 S    
N9    O50   1.301631 A    
O9    Cr2   2.038659 S    
O2    Cr1   1.924179 S    
C61   C66   1.403959 A    
C17   H4    1.083876 S    
Cr6   O26   1.968228 S    
C39   C40   1.407099 A    
C15   C16   1.396308 A    
C54   H19   1.083302 S    
C2    C24   1.468426 S    
C113  H52   1.114944 S    
C43   C44   1.400557 A    
O6    Cr3   1.920520 S    
C47   C52   1.406610 A    
C90   H32   1.083457 S    
C93   C94   1.396546 A    
O11   Cr3   2.038344 S    
C77   C78   1.404638 A    
C2    O5    1.269024 A    
C76   H27   1.083287 S    
O3    Cr2   2.042757 S    
C46   C52   1.403763 A    
N1    O27   1.300784 A    
C114  H55   1.113004 S    
C100  H33   1.083530 S    
C68   C69   1.396207 A    
C69   H26   1.083852 S    
C85   C108  1.478178 S    
H11   C46   1.082705 S    
C92   H34   1.083589 S    
C16   C17   1.388582 A    
C4    C102  1.472789 S    
O56   C118  1.410283 S    
O2    C1    1.277540 A    
C9    C10   1.407010 A    
C11   N2    1.439453 S    
C42   C43   1.404542 A    
N6    O45   1.301537 A    
H18   C58   1.083485 S    
C85   C86   1.404260 A    
C119  H69   1.111544 S    
O5    Cr3   2.043577 S    
C49   C50   1.436971 S    
C14   C15   1.402500 A    
O31   C109  1.411461 S    
C67   C72   1.406315 A    
C98   H37   1.083179 S    
N7    O46   1.301065 A    
O22   Cr5   2.039901 S    
C17   C18   1.403740 A    
C75   C76   1.399710 A    
C89   O56   1.384078 S    
C115  H57   1.113625 S    
C88   C89   1.408855 A    
C120  H74   1.109252 S    
N2    O30   1.301303 A    
C117  H63   1.110557 S    
C92   C93   1.400427 A    
C48   O39   1.385193 S    
C6    C84   1.479258 S    
N3    O33   1.301498 A    
C9    O57   1.385390 S    
C79   C83   1.412684 A    
O15   Cr4   1.916924 S    
C111  H45   1.114515 S    
C54   C55   1.399397 A    
C53   C54   1.403104 A    
C25   C26   1.407937 A    
O23   C107  1.297988 A    
C116  H62   1.109097 S    
H6    C32   1.083487 S    
C11   C12   1.413229 A    
C15   C23   1.467803 S    
C52   C105  1.476318 S    
O10   C5    1.272923 A    
C14   H2    1.083752 S    
N1    O28   1.300354 A    
C55   C56   1.413538 A    
Cr3   O13   1.970749 S    
C73   C78   1.400019 A    
C81   C84   1.404765 A    
C79   N7    1.436257 S    
C110  H44   1.109408 S    
O57   C119  1.410201 S    
O8    C4    1.272009 A    
C66   C107  1.465187 S    
O12   Cr3   1.924870 S    
