data_mof_unit_25021.cif
_audit_creation_date              2012-12-10T18:04:49-0500
_audit_creation_method            fapswitch 2.2
_symmetry_space_group_name_H-M    P1
_symmetry_Int_Tables_number       1
_space_group_crystal_system       triclinic
_cell_length_a                    10.871633
_cell_length_b                    9.4756
_cell_length_c                    17.917151
_cell_angle_alpha                 90.567942
_cell_angle_beta                  90.586473
_cell_angle_gamma                 89.958561
_cell_volume                      1845.55199079

loop_
_atom_site_label
_atom_site_type_symbol
_atom_type_description
_atom_site_fract_x
_atom_site_fract_y
_atom_site_fract_z
_atom_type_partial_charge
C1    C     C_R   0.262436 0.500932 0.509800 0.807610
C2    C     C_R   0.737633 0.500399 0.511029 0.822853
C3    C     C_1   0.505491 0.490985 0.967339 -0.025837
C4    C     C_1   0.514514 0.491051 0.034279 -0.025677
C5    C     C_R   0.067182 0.378884 0.551982 0.075111
C6    C     C_R   0.935105 0.633508 0.542344 0.105942
C7    C     C_R   0.936391 0.377296 0.552345 0.137302
C8    C     C_R   0.065498 0.635290 0.540587 0.118875
C9    C     C_R   0.510127 0.499308 0.355529 0.898608
C10   C     C_R   0.494187 0.500503 0.644989 0.820579
C11   C     C_R   0.871688 0.502819 0.532636 -0.167162
C12   C     C_R   0.129474 0.504567 0.531388 -0.173579
C13   C     C_R   0.491911 0.625023 0.850300 0.106089
C14   C     C_R   0.525763 0.364767 0.153815 0.098384
C15   C     C_R   0.538245 0.623070 0.153214 0.098690
C16   C     C_R   0.484215 0.366617 0.846144 0.100627
C17   C     C_R   0.490983 0.628210 0.771499 0.200065
C18   C     C_R   0.534139 0.367021 0.232419 0.194549
C19   C     C_R   0.539897 0.625193 0.232057 0.206304
C20   C     C_R   0.471136 0.370639 0.767716 0.195111
C21   C     C_R   0.485421 0.500288 0.728808 -0.236261
C22   C     C_R   0.527504 0.497328 0.272524 -0.244656
C23   C     C_R   0.435221 0.073561 0.447082 0.039876
C24   C     C_R   0.563136 0.926957 0.553189 0.031994
C25   C     C_R   0.562632 0.075482 0.553498 0.017245
C26   C     C_R   0.434296 0.924477 0.447485 0.020271
C27   C     C_R   0.494451 0.494051 0.886971 -0.021348
C28   C     C_R   0.525267 0.493089 0.114696 -0.016754
Cu1   Cu    Cu3+1 0.500000 0.640660 0.500000 0.975131
Cu2   Cu    Cu3+1 0.500000 0.359340 0.500000 0.985110
H1    H     H_    0.383049 0.129133 0.404916 0.146073
H2    H     H_    0.614149 0.872672 0.595655 0.162254
H3    H     H_    0.611640 0.132088 0.596846 0.161608
H4    H     H_    0.380918 0.867415 0.405857 0.148413
N1    N     N_R   0.500000 0.852070 0.500000 -0.166661
N2    N     N_R   0.500000 0.147930 0.500000 -0.161237
O1    O     O_R   0.319640 0.618740 0.499990 -0.586267
O2    O     O_R   0.680360 0.381260 0.500010 -0.575783
O3    O     O_R   0.680360 0.618740 0.500010 -0.579467
O4    O     O_R   0.319640 0.381260 0.499990 -0.581404
O5    O     O_R   0.500000 0.618830 0.391250 -0.542490
O6    O     O_R   0.500000 0.381170 0.608750 -0.556440
O7    O     O_R   0.500000 0.618830 0.608750 -0.558167
O8    O     O_R   0.500000 0.381170 0.391250 -0.541434
C29   C     C_3   0.491268 0.762350 0.895503 -0.342552
C30   C     C_3   0.621132 0.821474 0.905600 -0.811772
H5    H     H_    0.681700 0.742668 0.933055 0.242134
H6    H     H_    0.661281 0.849280 0.851025 0.285506
H7    H     H_    0.617919 0.918241 0.940940 0.227236
H8    H     H_    0.430565 0.842566 0.869534 0.244195
H9    H     H_    0.449599 0.747020 0.950847 0.194660
C31   C     C_3   0.517901 0.224885 0.111450 -0.354529
C32   C     C_3   0.644683 0.175789 0.086054 -0.783709
H10   H     H_    0.687117 0.255643 0.049426 0.240152
H11   H     H_    0.706114 0.158056 0.134928 0.289877
H12   H     H_    0.635632 0.075114 0.054325 0.224521
H13   H     H_    0.475045 0.141738 0.145619 0.242454
H14   H     H_    0.455628 0.233923 0.062419 0.192815
C33   C     C_3   0.548048 0.760297 0.110066 -0.343736
C34   C     C_3   0.422640 0.831583 0.102426 -0.816716
H15   H     H_    0.430421 0.925254 0.066073 0.229578
H16   H     H_    0.388823 0.866342 0.157891 0.285188
H17   H     H_    0.354786 0.757592 0.076817 0.243634
H18   H     H_    0.615084 0.834159 0.136245 0.246526
H19   H     H_    0.586376 0.741412 0.054027 0.196312
C35   C     C_3   0.487050 0.225795 0.886540 -0.344380
C36   C     C_3   0.359357 0.184168 0.913334 -0.792428
H20   H     H_    0.365509 0.083570 0.944430 0.225783
H21   H     H_    0.295469 0.169073 0.865221 0.286565
H22   H     H_    0.321500 0.266938 0.950918 0.240462
H23   H     H_    0.524702 0.140346 0.850664 0.251121
H24   H     H_    0.551557 0.230464 0.934803 0.190828
Br1   Br    Br    0.492023 0.812416 0.725987 -0.586946
Br2   Br    Br    0.573432 0.190959 0.281649 -0.498295
Br3   Br    Br    0.573024 0.804236 0.281827 -0.508386
Br4   Br    Br    0.417848 0.198294 0.717630 -0.566198
C37   C     C_3   0.139985 0.252551 0.580588 -0.313040
C38   C     C_3   0.152284 0.139171 0.519878 -0.816055
H25   H     H_    0.062475 0.088988 0.507459 0.224491
H26   H     H_    0.184968 0.184378 0.466873 0.261741
H27   H     H_    0.219092 0.058363 0.538720 0.244571
H28   H     H_    0.231641 0.283931 0.602255 0.245429
H29   H     H_    0.099787 0.208367 0.631892 0.195542
C39   C     C_3   0.865834 0.767176 0.564470 -0.375075
C40   C     C_3   0.847857 0.866710 0.497985 -0.765930
H30   H     H_    0.781532 0.823998 0.456330 0.300083
H31   H     H_    0.812559 0.969370 0.518213 0.208622
H32   H     H_    0.935099 0.885282 0.468210 0.230966
H33   H     H_    0.778381 0.741789 0.591779 0.206762
H34   H     H_    0.912379 0.822781 0.611588 0.183114
C41   C     C_3   0.867303 0.250618 0.583907 -0.395931
C42   C     C_3   0.811018 0.287787 0.659463 -0.823658
H35   H     H_    0.883837 0.325769 0.698683 0.248837
H36   H     H_    0.740175 0.371194 0.653608 0.251338
H37   H     H_    0.767843 0.192895 0.683850 0.247003
H38   H     H_    0.798579 0.208645 0.544260 0.219634
H39   H     H_    0.924191 0.156109 0.592658 0.199471
C43   C     C_3   0.134999 0.774005 0.555626 -0.411648
C44   C     C_3   0.202772 0.771891 0.630735 -0.701967
H40   H     H_    0.264890 0.679728 0.635366 0.264824
H41   H     H_    0.257767 0.869918 0.637542 0.279152
H42   H     H_    0.135283 0.767114 0.676762 0.228275
H43   H     H_    0.194832 0.803394 0.508855 0.217784
H44   H     H_    0.076314 0.867646 0.558010 0.201722

loop_
_geom_bond_atom_site_label_1
_geom_bond_atom_site_label_2
_ccdc_geom_bond_type
C24   C25   A    
C10   O6    A    
C14   C18   A    
C32   H10   S    
C15   C19   A    
C30   H7    S    
Cu2   O2    S    
C33   H18   S    
C34   H17   S    
C37   H28   S    
C16   C20   A    
C40   H30   S    
C38   H26   S    
C9    C22   S    
C40   H32   S    
C37   H29   S    
C43   H43   S    
C20   Br4   S    
C34   H16   S    
C23   C26   A    
C8    C43   S    
C1    O4    A    
C41   H38   S    
C2    O3    A    
C26   H4    S    
C14   C31   S    
C44   H40   S    
C35   H24   S    
C1    O1    A    
C16   C27   A    
C40   H31   S    
C35   C36   S    
C33   C34   S    
C18   Br2   S    
Cu1   O7    S    
C17   Br1   S    
Cu2   O8    S    
C1    C12   S    
C39   H34   S    
C2    C11   S    
C4    C28   S    
C32   H11   S    
C10   C21   S    
C30   H6    S    
C24   N1    A    
C6    C39   S    
C36   H20   S    
C19   C22   A    
C39   C40   S    
C5    C12   A    
C6    C11   A    
C5    C7    A    
C38   H25   S    
C6    C8    A    
C37   C38   S    
C42   H37   S    
C17   C21   A    
C34   H15   S    
C36   H21   S    
C23   H1    S    
C7    C11   A    
C24   H2    S    
Cu1   Cu2   S    
C2    O2    A    
C35   H23   S    
C8    C12   A    
C7    C41   S    
Cu1   O3    S    
C42   H36   S    
Cu2   O4    S    
C41   H39   S    
C31   H14   S    
C44   H41   S    
C43   C44   S    
C16   C35   S    
C39   H33   S    
C5    C37   S    
C3    C4    T    
C41   C42   S    
C31   C32   S    
C32   H12   S    
C30   H5    S    
C9    O8    A    
Cu1   O5    S    
C10   O7    A    
C18   C22   A    
C15   C33   S    
Cu2   O6    S    
Cu2   N2    S    
Cu1   N1    S    
C9    O5    A    
C13   C17   A    
C36   H22   S    
C3    C27   S    
C33   H19   S    
C13   C29   S    
C38   H27   S    
C15   C28   A    
C29   H8    S    
C43   H44   S    
C19   Br3   S    
C42   H35   S    
C31   H13   S    
C25   N2    A    
C29   C30   S    
C26   N1    A    
C44   H42   S    
C20   C21   A    
C23   N2    A    
Cu1   O1    S    
C29   H9    S    
C13   C27   A    
C14   C28   A    
C25   H3    S    
