data_mof_unit_35223.cif
_audit_creation_date              2012-10-26T18:27:26-0400
_audit_creation_method            fapswitch 2.2
_symmetry_space_group_name_H-M    P1
_symmetry_Int_Tables_number       1
_space_group_crystal_system       triclinic
_cell_length_a                    10.769862
_cell_length_b                    10.910254
_cell_length_c                    9.838175
_cell_angle_alpha                 110.332644
_cell_angle_beta                  98.652997
_cell_angle_gamma                 90.737294
_cell_volume                      1068.98767389

loop_
_atom_site_label
_atom_site_type_symbol
_atom_type_description
_atom_site_fract_x
_atom_site_fract_y
_atom_site_fract_z
_atom_type_partial_charge
Br1   Br    Br    0.310310 0.322972 0.024344 -0.341661
Br2   Br    Br    0.313164 0.155947 0.623459 -0.421621
Br3   Br    Br    0.552697 0.008361 0.783257 -0.439939
C1    C     C_R   0.487811 0.253791 0.441790 0.582219
C2    C     C_2   0.441790 0.925213 0.477024 -0.103083
C3    C     C_2   0.509615 0.509175 0.078326 0.062688
C4    C     C_R   0.262852 0.503539 0.501546 0.540868
C5    C     C_2   0.486718 0.490884 0.917392 0.039087
C6    C     C_R   0.504891 0.746555 0.558244 0.527316
C7    C     C_R   0.737448 0.504297 0.500193 0.527627
C8    C     C_R   0.158942 0.735486 0.691406 -0.089493
C9    C     C_R   0.107718 0.845040 0.781262 -0.089935
C10   C     C_R   0.978362 0.845652 0.779820 -0.103130
C11   C     C_R   0.899402 0.736787 0.688373 -0.096542
C12   C     C_R   0.080866 0.623261 0.599147 0.022167
C13   C     C_R   0.949363 0.623964 0.597471 0.024871
C14   C     C_R   0.129619 0.511780 0.504301 0.015212
C15   C     C_R   0.049871 0.406543 0.405676 -0.115227
C16   C     C_R   0.921588 0.407279 0.403947 -0.133807
C17   C     C_R   0.871370 0.513223 0.500932 0.007111
C18   C     C_2   0.481564 0.113568 0.412522 -0.085263
C19   C     C_2   0.426751 0.062340 0.496043 0.172190
C20   C     C_2   0.493257 0.886538 0.587506 0.149248
Cu1   Cu    Cu3+1 0.521920 0.521810 0.644910 1.000612
Cu2   Cu    Cu3+1 0.478080 0.478190 0.355090 1.046968
H1    H     H_    0.087559 0.322238 0.331482 0.156365
H2    H     H_    0.861319 0.323298 0.329037 0.142096
H3    H     H_    0.414623 0.854711 0.366174 0.113634
H4    H     H_    0.530171 0.052028 0.326948 0.081313
H5    H     H_    0.411422 0.422909 0.843485 0.230861
H6    H     H_    0.584723 0.579906 0.149385 0.102382
H7    H     H_    0.627332 0.618199 0.933432 0.209960
H8    H     H_    0.259487 0.740981 0.693361 0.150200
H9    H     H_    0.168540 0.930384 0.851069 0.171855
H10   H     H_    0.938822 0.931462 0.848549 0.150744
H11   H     H_    0.799254 0.743276 0.687770 0.148287
N1    N     N_2   0.445130 0.445430 0.137370 -0.092479
N2    N     N_2   0.554930 0.554500 0.862630 -0.366227
O1    O     O_R   0.511700 0.332330 0.577400 -0.450889
O2    O     O_R   0.474680 0.295500 0.332650 -0.456709
O3    O     O_R   0.338160 0.518420 0.622400 -0.501340
O4    O     O_R   0.301140 0.481590 0.377650 -0.467391
O5    O     O_R   0.525320 0.704500 0.667350 -0.477139
O6    O     O_R   0.488300 0.667670 0.422600 -0.538202
O7    O     O_R   0.698860 0.518410 0.622350 -0.495005
O8    O     O_R   0.661840 0.481580 0.377600 -0.510798

loop_
_geom_bond_atom_site_label_1
_geom_bond_atom_site_label_2
_ccdc_geom_bond_type
Cu2   O4    S    
C7    O8    A    
Cu1   N2    S    
C8    C9    A    
Br2   C19   S    
C1    C18   S    
H7    N2    S    
C2    H3    S    
C16   H2    S    
Br3   C20   S    
C16   C17   A    
C2    C20   D    
C1    O1    A    
Br1   N1    S    
C13   C17   A    
C5    H5    S    
C7    O7    A    
C14   C15   A    
C3    N1    D    
C18   C19   D    
C9    C10   A    
Cu1   O3    S    
C5    N2    D    
C3    C5    S    
Cu1   O7    S    
Cu2   O6    S    
C10   H10   S    
C4    O3    A    
Cu2   O2    S    
C11   H11   S    
C11   C13   A    
C6    O5    A    
C9    H9    S    
C12   C13   A    
C8    H8    S    
Cu1   O1    S    
Cu1   Cu2   S    
C15   C16   A    
C4    O4    A    
C12   C14   A    
Cu1   O5    S    
C6    C20   S    
C6    O6    A    
C3    H6    S    
Cu2   N1    S    
C10   C11   A    
C8    C12   A    
Cu2   O8    S    
C18   H4    S    
C2    C19   S    
C1    O2    A    
C7    C17   S    
C4    C14   S    
C15   H1    S    
