data_mof_unit_48845.cif
_audit_creation_date              2012-12-10T18:51:37-0500
_audit_creation_method            fapswitch 2.2
_symmetry_space_group_name_H-M    P1
_symmetry_Int_Tables_number       1
_space_group_crystal_system       triclinic
_cell_length_a                    10.69368
_cell_length_b                    9.851374
_cell_length_c                    10.551574
_cell_angle_alpha                 90.755709
_cell_angle_beta                  90.132004
_cell_angle_gamma                 90.016792
_cell_volume                      1111.48162545

loop_
_atom_site_label
_atom_site_type_symbol
_atom_type_description
_atom_site_fract_x
_atom_site_fract_y
_atom_site_fract_z
_atom_type_partial_charge
C1    C     C_R   0.872479 0.500039 0.500112 -0.021215
C2    C     C_R   0.127520 0.499961 0.499888 -0.021215
C3    C     C_R   0.259951 0.499983 0.499908 0.871082
C4    C     C_R   0.740049 0.500017 0.500092 0.871082
C5    C     C_R   0.500090 0.498918 0.257717 0.899444
C6    C     C_R   0.499910 0.501081 0.742283 0.899444
C7    C     C_3   0.397373 0.562829 0.043514 -0.059797
C8    C     C_3   0.602627 0.437171 0.956486 -0.059797
C9    C     C_3   0.499602 0.629982 0.963422 -0.038880
C10   C     C_3   0.500398 0.370018 0.036577 -0.038880
C11   C     C_3   0.397606 0.436406 0.956232 -0.063809
C12   C     C_3   0.602394 0.563594 0.043768 -0.063809
C13   C     C_3   0.499839 0.503342 0.876541 -0.141533
C14   C     C_3   0.500161 0.496658 0.123459 -0.141533
C15   C     C_R   0.579902 0.073024 0.576598 -0.053149
C16   C     C_R   0.420098 0.926976 0.423402 -0.053149
C17   C     C_R   0.420038 0.070807 0.423486 -0.050669
C18   C     C_R   0.579962 0.929193 0.576513 -0.050668
C19   C     C_R   0.064122 0.383932 0.539036 -0.171615
C20   C     C_R   0.935878 0.616068 0.460964 -0.171615
C21   C     C_R   0.935999 0.383978 0.539172 -0.167615
C22   C     C_R   0.064001 0.616022 0.460828 -0.167615
H1    H     H_    0.643763 0.128345 0.637932 0.137196
H2    H     H_    0.356237 0.871654 0.362068 0.137196
H3    H     H_    0.356096 0.124370 0.362274 0.137010
H4    H     H_    0.643903 0.875630 0.637726 0.137010
H5    H     H_    0.113262 0.294222 0.570500 0.168042
H6    H     H_    0.886738 0.705778 0.429500 0.168042
H7    H     H_    0.886957 0.294299 0.570736 0.162011
H8    H     H_    0.113043 0.705701 0.429264 0.162011
N1    N     N_R   0.500000 0.857200 0.500000 -0.088337
N2    N     N_R   0.500000 0.142800 0.500000 -0.088337
O1    O     O_R   0.316770 0.614620 0.499990 -0.627103
O2    O     O_R   0.683230 0.385380 0.500010 -0.627104
O3    O     O_R   0.683230 0.614620 0.500010 -0.629125
O4    O     O_R   0.316770 0.385380 0.499990 -0.629125
O5    O     O_R   0.499970 0.614650 0.313950 -0.616047
O6    O     O_R   0.500030 0.385350 0.686050 -0.616047
O7    O     O_R   0.500030 0.614650 0.686050 -0.621177
O8    O     O_R   0.499970 0.385350 0.313950 -0.621177
Zn1   Zn    Zn3+2 0.500000 0.653120 0.500000 0.965243
Zn2   Zn    Zn3+2 0.500000 0.346880 0.500000 0.965243
C23   C     C_1   0.285867 0.368307 0.904718 0.191583
N3    N     N_1   0.197932 0.314789 0.863996 -0.190623
C24   C     C_1   0.714133 0.631693 0.095282 0.191583
N4    N     N_1   0.802068 0.685211 0.136004 -0.190623
C25   C     C_1   0.285505 0.630263 0.094930 0.179718
N5    N     N_1   0.197510 0.683283 0.135608 -0.201165
C26   C     C_1   0.714495 0.369737 0.905070 0.179718
N6    N     N_1   0.802490 0.316717 0.864392 -0.201165
C27   C     C_1   0.498905 0.772168 0.922993 0.226287
N7    N     N_1   0.498271 0.884047 0.891017 -0.195758
C28   C     C_1   0.501095 0.227832 0.077007 0.226287
N8    N     N_1   0.501729 0.115953 0.108983 -0.195758

loop_
_geom_bond_atom_site_label_1
_geom_bond_atom_site_label_2
_ccdc_geom_bond_type
C2    C22   A    
C15   C18   A    
C23   N3    T    
C6    O6    A    
C1    C21   A    
C8    C13   S    
C5    O5    A    
C19   H5    S    
O4    Zn2   S    
C25   N5    T    
C18   H4    S    
C8    C12   S    
C1    C4    S    
C17   H3    S    
C15   H1    S    
C2    C3    S    
C4    O3    A    
O1    Zn1   S    
C15   N2    A    
C16   H2    S    
N1    Zn1   S    
C24   N4    T    
C16   N1    A    
C7    C11   S    
C11   C13   S    
C5    C14   S    
C16   C17   A    
C3    O4    A    
O8    Zn2   S    
C19   C21   A    
C12   C14   S    
O6    Zn2   S    
C7    C14   S    
O5    Zn1   S    
O3    Zn1   S    
C9    C12   S    
C4    O2    A    
C11   C23   S    
C10   C11   S    
C3    O1    A    
C27   N7    T    
C20   H6    S    
O7    Zn1   S    
C26   N6    T    
C10   C14   S    
C5    O8    A    
C17   N2    A    
C7    C9    S    
C10   C28   S    
C9    C13   S    
C6    O7    A    
C12   C24   S    
C1    C20   A    
N2    Zn2   S    
C18   N1    A    
C22   H8    S    
C2    C19   A    
C28   N8    T    
C21   H7    S    
C8    C26   S    
C8    C10   S    
C7    C25   S    
C20   C22   A    
O2    Zn2   S    
C6    C13   S    
C9    C27   S    
