data_mof_unit_8373.cif
_audit_creation_date              2013-03-05T16:05:30-0500
_audit_creation_method            fapswitch 2.2
_symmetry_space_group_name_H-M    P1
_symmetry_Int_Tables_number       1
_space_group_crystal_system       triclinic
_cell_length_a                    10.902968
_cell_length_b                    9.660411
_cell_length_c                    10.678188
_cell_angle_alpha                 89.635218
_cell_angle_beta                  94.164142
_cell_angle_gamma                 89.209087
_cell_volume                      1121.59655338

loop_
_atom_site_label
_atom_site_type_symbol
_atom_site_description
_atom_site_fract_x
_atom_site_fract_y
_atom_site_fract_z
_atom_type_partial_charge
O1    O     O_R   0.319640 0.618740 0.499990 -0.588853
O2    O     O_R   0.680360 0.381260 0.500010 -0.588921
O3    O     O_R   0.680360 0.618740 0.500010 -0.587607
O4    O     O_R   0.319640 0.381260 0.499990 -0.586851
C1    C     C_R   0.871644 0.496799 0.480709 -0.114983
C2    C     C_R   0.128986 0.503005 0.521858 -0.129328
C3    C     C_R   0.263318 0.501022 0.510373 0.834118
C4    C     C_R   0.736922 0.498932 0.490406 0.843861
O5    O     O_R   0.499970 0.618770 0.316850 -0.598336
O6    O     O_R   0.500030 0.381230 0.683150 -0.596845
O7    O     O_R   0.500030 0.618770 0.683150 -0.578222
O8    O     O_R   0.499970 0.381230 0.316850 -0.577203
C5    C     C_R   0.504355 0.500160 0.260378 0.844677
C6    C     C_R   0.494772 0.499877 0.739475 0.840835
Cu1   Cu    Cu3+1 0.500000 0.640660 0.500000 0.947095
Cu2   Cu    Cu3+1 0.500000 0.359340 0.500000 0.943238
N1    N     N_R   0.500000 0.852070 0.500000 -0.190376
N2    N     N_R   0.500000 0.147930 0.500000 -0.191835
C7    C     C_3   0.386887 0.525183 0.038442 -0.077009
C8    C     C_3   0.611126 0.475200 0.961337 -0.077900
C9    C     C_3   0.457673 0.624458 0.956623 -0.051141
C10   C     C_3   0.540232 0.375832 0.042933 -0.051631
C11   C     C_3   0.421854 0.401141 0.957132 0.087791
C12   C     C_3   0.576013 0.599385 0.042528 0.075962
C13   C     C_3   0.492972 0.500184 0.875896 -0.184994
C14   C     C_3   0.505114 0.500055 0.123840 -0.182839
C15   C     C_R   0.425321 0.075687 0.413517 0.227719
C16   C     C_R   0.574622 0.924286 0.586567 0.224188
C17   C     C_R   0.572626 0.072772 0.588219 0.201581
C18   C     C_R   0.427062 0.927227 0.412057 0.207028
C19   C     C_R   0.066604 0.376407 0.532522 0.138074
C20   C     C_R   0.934229 0.623474 0.470646 0.140653
C21   C     C_R   0.940338 0.371256 0.497967 0.133330
C22   C     C_R   0.060362 0.628485 0.505814 0.127260
C23   C     C_3   0.335780 0.148996 0.318657 -0.705753
H1    H     H_    0.329942 0.260566 0.323100 0.297882
H2    H     H_    0.358340 0.123185 0.221837 0.239840
H3    H     H_    0.240548 0.116820 0.332664 0.179274
C24   C     C_3   0.663942 0.850903 0.681634 -0.708270
H4    H     H_    0.670417 0.739313 0.676922 0.294643
H5    H     H_    0.759122 0.883860 0.668426 0.182542
H6    H     H_    0.640669 0.876069 0.778342 0.237331
C25   C     C_3   0.643568 0.145123 0.696377 -0.730891
H7    H     H_    0.673211 0.248826 0.673577 0.271935
H8    H     H_    0.587100 0.148822 0.778729 0.241556
H9    H     H_    0.732372 0.094473 0.726282 0.195344
C26   C     C_3   0.354670 0.855083 0.304705 -0.720491
H10   H     H_    0.327215 0.750357 0.326503 0.270125
H11   H     H_    0.264492 0.904576 0.278319 0.194505
H12   H     H_    0.408844 0.854083 0.220595 0.248061
C27   C     C_3   0.330520 0.292643 0.909444 -0.757794
H13   H     H_    0.373532 0.222604 0.842831 0.232033
H14   H     H_    0.300711 0.231201 0.989678 0.261682
H15   H     H_    0.248819 0.345410 0.862027 0.220673
C28   C     C_3   0.666683 0.708626 0.090147 -0.717684
H16   H     H_    0.747776 0.656601 0.139418 0.212592
H17   H     H_    0.697616 0.768747 0.009649 0.263755
H18   H     H_    0.622651 0.779920 0.155044 0.247426
C29   C     C_2   0.262557 0.549117 0.087472 0.839936
O9    O     O_2   0.205806 0.657101 0.063501 -0.570331
O10   O     O_R   0.213052 0.447508 0.161760 -0.787222
H19   H     H_    0.130008 0.475741 0.191134 0.335805
C30   C     C_2   0.735522 0.451107 0.912458 0.841715
O11   O     O_2   0.780559 0.541273 0.850203 -0.612355
O12   O     O_R   0.798463 0.325811 0.936650 -0.742827
H20   H     H_    0.880308 0.321854 0.897298 0.336531
C31   C     C_2   0.407007 0.760148 0.905289 0.910253
O13   O     O_2   0.313020 0.762168 0.835646 -0.588616
O14   O     O_R   0.466770 0.883100 0.936862 -0.749028
H21   H     H_    0.424715 0.966542 0.893596 0.343374
C32   C     C_2   0.589872 0.239008 0.092520 0.930839
O15   O     O_2   0.535823 0.132541 0.064708 -0.606497
O16   O     O_R   0.698579 0.234171 0.169954 -0.744093
H22   H     H_    0.723484 0.136070 0.196112 0.326333
C33   C     C_3   0.129488 0.249119 0.593727 -0.791633
H23   H     H_    0.208838 0.276957 0.658525 0.237423
H24   H     H_    0.066017 0.193867 0.653001 0.227258
H25   H     H_    0.160201 0.177197 0.521611 0.237159
C34   C     C_3   0.871977 0.750954 0.409216 -0.803082
H26   H     H_    0.793903 0.723128 0.342701 0.236303
H27   H     H_    0.839668 0.822099 0.481100 0.238558
H28   H     H_    0.936410 0.807162 0.351744 0.229586
C35   C     C_3   0.884176 0.230857 0.470048 -0.790803
H29   H     H_    0.813773 0.237729 0.390246 0.273104
H30   H     H_    0.953152 0.155332 0.439042 0.221174
H31   H     H_    0.844966 0.188475 0.554632 0.230687
C36   C     C_3   0.116574 0.768324 0.536324 -0.753108
H32   H     H_    0.186449 0.759893 0.616791 0.283924
H33   H     H_    0.156851 0.812074 0.452855 0.225117
H34   H     H_    0.047204 0.843370 0.567386 0.221662

loop_
_geom_bond_atom_site_label_1
_geom_bond_atom_site_label_2
_geom_bond_distance
_ccdc_geom_bond_type
C28   H16   1.108124 S    
C30   O12   1.396457 S    
O16   H22   1.014098 S    
C23   H1    1.080359 S    
C25   H7    1.088401 S    
C26   H11   1.104425 S    
C12   C28   1.520570 S    
C35   H29   1.105728 S    
C16   C17   1.434541 A    
C7    C9    1.544795 S    
C12   C14   1.542582 S    
O7    C6    1.297009 A    
C8    C13   1.538865 S    
Cu1   Cu2   2.717667 S    
C7    C14   1.539448 S    
O5    C5    1.300109 A    
O7    Cu1   1.965747 S    
C11   C27   1.520367 S    
O8    Cu2   1.965748 S    
C1    C21   1.420503 A    
C19   C21   1.400794 A    
O1    Cu1   1.980724 S    
C24   H6    1.108797 S    
O2    Cu2   1.980723 S    
C1    C20   1.416589 A    
C2    C19   1.415522 A    
C29   O9    1.221623 D    
C9    C31   1.500252 S    
C15   C18   1.434245 A    
N1    C18   1.381423 A    
O10   H19   1.013949 S    
O4    C3    1.311424 A    
C33   H25   1.107119 S    
C26   H12   1.110241 S    
C29   O10   1.396782 S    
C31   O13   1.221509 D    
C8    C12   1.544731 S    
C18   C26   1.522079 S    
C23   H3    1.108125 S    
C34   H26   1.105561 S    
C24   H5    1.108140 S    
O3    C4    1.312017 A    
O6    C6    1.300282 A    
C24   H4    1.081070 S    
C32   O16   1.395100 S    
C16   C24   1.519762 S    
C15   C23   1.519487 S    
C2    C22   1.418545 A    
C31   O14   1.394131 S    
C20   C22   1.400600 A    
O4    Cu2   1.974912 S    
C7    C11   1.543964 S    
C33   H23   1.105187 S    
C1    C4    1.479858 S    
C21   C35   1.518212 S    
C19   C33   1.520092 S    
C26   H10   1.087564 S    
N2    C17   1.381540 A    
C33   H24   1.110814 S    
C35   H30   1.109772 S    
C8    C10   1.544582 S    
C28   H17   1.109540 S    
C5    C14   1.458608 S    
C36   H34   1.109959 S    
C10   C32   1.500036 S    
O3    Cu1   1.974911 S    
C34   H27   1.106780 S    
Cu1   N1    2.042307 S    
C9    C13   1.543079 S    
C23   H2    1.109083 S    
O1    C3    1.307731 A    
N1    C16   1.384841 A    
O2    C4    1.307711 A    
N2    C15   1.384754 A    
C34   H28   1.110805 S    
C2    C3    1.478469 S    
C27   H15   1.108326 S    
C7    C29   1.503691 S    
C8    C30   1.503909 S    
C36   H33   1.105909 S    
O5    Cu1   1.968426 S    
C27   H13   1.108815 S    
C25   H8    1.109973 S    
O6    Cu2   1.968425 S    
C20   C34   1.519721 S    
C28   H18   1.109205 S    
C22   C36   1.518606 S    
C11   C13   1.541676 S    
C6    C13   1.458305 S    
O14   H21   1.013776 S    
C25   H9    1.104030 S    
C30   O11   1.222118 D    
C32   O15   1.220051 D    
C35   H31   1.105616 S    
O8    C5    1.297230 A    
C36   H32   1.107998 S    
Cu2   N2    2.042308 S    
O12   H20   1.013923 S    
C10   C14   1.543262 S    
C9    C12   1.543228 S    
C10   C11   1.543276 S    
C27   H14   1.109624 S    
C17   C25   1.521880 S    
