data_mof_unit_15749.cif
_audit_creation_date              2012-10-26T19:46:07-0400
_audit_creation_method            fapswitch 2.2
_symmetry_space_group_name_H-M    P1
_symmetry_Int_Tables_number       1
_space_group_crystal_system       triclinic
_cell_length_a                    10.831188
_cell_length_b                    9.580134
_cell_length_c                    15.87641
_cell_angle_alpha                 90.355369
_cell_angle_beta                  91.567258
_cell_angle_gamma                 90.650552
_cell_volume                      1646.64611113

loop_
_atom_site_label
_atom_site_type_symbol
_atom_type_description
_atom_site_fract_x
_atom_site_fract_y
_atom_site_fract_z
_atom_type_partial_charge
C1    C     C_R   0.262941 0.498556 0.508677 0.588286
C2    C     C_R   0.937199 0.620327 0.533372 -0.124495
C3    C     C_R   0.871738 0.500737 0.507039 -0.031944
C4    C     C_R   0.128900 0.493654 0.522900 -0.018707
C5    C     C_R   0.438778 0.072454 0.437230 0.157479
C6    C     C_R   0.435268 0.924085 0.438954 0.159589
C7    C     C_R   0.499398 0.499610 0.340355 0.568031
C8    C     C_R   0.563482 0.927324 0.560949 0.019691
C9    C     C_R   0.562243 0.075534 0.561532 0.024208
C10   C     C_R   0.737772 0.500700 0.501035 0.539780
C11   C     C_R   0.499878 0.500368 0.659634 0.556811
C12   C     C_3   0.620883 0.514269 0.953534 -0.262701
C13   C     C_3   0.425394 0.632064 0.050336 -0.219879
C14   C     C_3   0.417865 0.369611 0.048622 -0.211197
C15   C     C_3   0.430886 0.353860 0.949993 0.054734
C16   C     C_3   0.408679 0.628847 0.951228 0.047463
C17   C     C_1   0.496053 0.500988 0.749014 0.124094
C18   C     C_3   0.490360 0.499011 0.083029 -0.032320
C19   C     C_3   0.485591 0.499446 0.916838 -0.032432
C20   C     C_2   0.272499 0.615154 0.923445 0.593777
C21   C     C_2   0.306254 0.312264 0.907627 0.611673
C22   C     C_2   0.518214 0.233571 0.929098 0.586991
C23   C     C_3   0.623269 0.497995 0.050201 -0.235295
C24   C     C_2   0.451268 0.771491 0.918240 0.583297
C25   C     C_2   0.111553 0.225504 0.510476 0.630984
C26   C     C_2   0.125973 0.736644 0.590644 0.620739
C27   C     C_2   0.381227 0.142121 0.363481 0.619911
C28   C     C_2   0.356531 0.849892 0.375258 0.622071
C29   C     C_1   0.491384 0.500545 0.824368 0.098393
C30   C     C_1   0.493987 0.498617 0.175237 -0.041727
C31   C     C_1   0.496825 0.498774 0.250761 0.030973
C32   C     C_R   0.059740 0.368096 0.507948 0.031276
C33   C     C_R   0.065283 0.616843 0.545302 0.035067
C34   C     C_R   0.932910 0.375214 0.496302 -0.130689
Cu1   Cu    Cu3+1 0.500020 0.640660 0.500000 1.060015
Cu2   Cu    Cu3+1 0.500020 0.359340 0.500000 1.063022
H1    H     H_    0.614949 0.873136 0.609810 0.134900
H2    H     H_    0.682618 0.435554 0.925499 0.154604
H3    H     H_    0.880865 0.280190 0.482033 0.180502
H4    H     H_    0.887465 0.714085 0.549105 0.177477
H5    H     H_    0.094518 0.585793 0.954565 0.360790
H6    H     H_    0.209296 0.273409 0.799237 0.363878
H7    H     H_    0.632304 0.081175 0.969786 0.356905
H8    H     H_    0.558106 0.883853 0.840650 0.364908
H9    H     H_    0.112804 0.032844 0.458420 0.384596
H10   H     H_    0.119678 0.940050 0.623050 0.374469
H11   H     H_    0.387965 0.180433 0.238861 0.339588
H12   H     H_    0.612700 0.131966 0.610893 0.141202
H13   H     H_    0.335103 0.784177 0.254700 0.338083
H14   H     H_    0.336741 0.646007 0.082697 0.183955
H15   H     H_    0.320187 0.384215 0.066165 0.182494
H16   H     H_    0.446562 0.274493 0.083245 0.188319
H17   H     H_    0.483118 0.723510 0.071452 0.158691
H18   H     H_    0.679123 0.584590 0.079559 0.147484
H19   H     H_    0.668992 0.398566 0.067926 0.187631
H20   H     H_    0.662254 0.616977 0.937897 0.180477
N1    N     N_R   0.500030 0.852070 0.500020 -0.265221
N2    N     N_R   0.500030 0.147930 0.500020 -0.259711
O1    O     O_R   0.319660 0.618740 0.500000 -0.451662
O2    O     O_R   0.179989 0.593528 0.981976 -0.690562
O3    O     O_2   0.217041 0.281195 0.949623 -0.484929
O4    O     O_R   0.295192 0.302988 0.819720 -0.636504
O5    O     O_2   0.537266 0.204340 0.855441 -0.493627
O6    O     O_R   0.577638 0.156893 0.992757 -0.691365
O7    O     O_2   0.403645 0.877539 0.945191 -0.453103
O8    O     O_R   0.540640 0.783392 0.856635 -0.716900
O9    O     O_2   0.184203 0.192704 0.567079 -0.489731
O10   O     O_R   0.069934 0.125613 0.451329 -0.645118
O11   O     O_2   0.217163 0.718286 0.636223 -0.449374
O12   O     O_R   0.319660 0.381260 0.500000 -0.444253
O13   O     O_R   0.073288 0.868969 0.586343 -0.696146
O14   O     O_2   0.285688 0.206848 0.370133 -0.474984
O15   O     O_R   0.435690 0.129791 0.284980 -0.656225
O16   O     O_2   0.251524 0.814356 0.392342 -0.507342
O17   O     O_R   0.398406 0.832610 0.293346 -0.653583
O18   O     O_R   0.500020 0.618840 0.379440 -0.478080
O19   O     O_R   0.500020 0.381160 0.379440 -0.482647
O20   O     O_R   0.680370 0.618830 0.500010 -0.514100
O21   O     O_R   0.680370 0.381170 0.500010 -0.520236
O22   O     O_R   0.500010 0.618730 0.620560 -0.487616
O23   O     O_R   0.500010 0.381270 0.620560 -0.492329
O24   O     O_2   0.243663 0.623278 0.848538 -0.452576

loop_
_geom_bond_atom_site_label_1
_geom_bond_atom_site_label_2
_ccdc_geom_bond_type
C20   O24   D    
C17   C29   T    
C14   C18   S    
H8    O8    S    
Cu1   Cu2   S    
C25   O9    D    
C28   O16   D    
C10   O20   A    
C11   O23   A    
C15   C19   S    
C12   C23   S    
C13   C18   S    
Cu2   N2    S    
Cu2   O19   S    
C1    O1    A    
C30   C31   T    
Cu1   O22   S    
Cu1   O1    S    
C9    N2    A    
C22   O5    D    
C5    C27   S    
C15   C22   S    
C6    C28   S    
C8    C9    A    
H13   O17   S    
C18   C30   S    
C20   O2    S    
H6    O4    S    
C21   O3    D    
C24   O8    S    
C7    O19   A    
C25   C32   S    
C16   C24   S    
C26   O13   S    
C6    N1    A    
C25   O10   S    
Cu2   O12   S    
H7    O6    S    
C13   H17   S    
C14   H16   S    
Cu1   O18   S    
C7    C31   S    
C18   C23   S    
H11   O15   S    
C3    C34   A    
C34   H3    S    
C32   C34   A    
C8    N1    A    
C26   C33   S    
C14   H15   S    
Cu2   O23   S    
C16   C20   S    
H9    O10   S    
H10   O13   S    
C12   H20   S    
C21   O4    S    
C4    C32   A    
C24   O7    D    
C5    N2    A    
C2    C33   A    
C8    H1    S    
C19   C29   S    
C23   H18   S    
C4    C33   A    
C11   C17   S    
H5    O2    S    
Cu2   O21   S    
C10   O21   A    
C23   H19   S    
C7    O18   A    
Cu1   O20   S    
C1    O12   A    
Cu1   N1    S    
C1    C4    S    
C2    C3    A    
C3    C10   S    
C5    C6    A    
C16   C19   S    
C12   C19   S    
C12   H2    S    
C11   O22   A    
C22   O6    S    
C13   H14   S    
C2    H4    S    
C15   C21   S    
C9    H12   S    
C13   C16   S    
C26   O11   D    
C14   C15   S    
C27   O15   S    
C28   O17   S    
C27   O14   D    
