data_mof_unit_16435.cif
_audit_creation_date              2012-12-10T16:51:29-0500
_audit_creation_method            fapswitch 2.2
_symmetry_space_group_name_H-M    P1
_symmetry_Int_Tables_number       1
_space_group_crystal_system       triclinic
_cell_length_a                    7.865219
_cell_length_b                    8.568434
_cell_length_c                    12.492037
_cell_angle_alpha                 92.549597
_cell_angle_beta                  102.98851
_cell_angle_gamma                 93.854356
_cell_volume                      816.937346971

loop_
_atom_site_label
_atom_site_type_symbol
_atom_type_description
_atom_site_fract_x
_atom_site_fract_y
_atom_site_fract_z
_atom_type_partial_charge
C1    C     C_R   0.044242 0.794347 0.497444 0.956204
C2    C     C_R   0.415904 0.563179 0.987220 -0.004532
C3    C     C_R   0.362502 0.577852 0.873379 0.019089
C4    C     C_R   0.586748 0.518188 0.025933 0.092000
C5    C     C_R   0.675482 0.448817 0.951559 0.112429
C6    C     C_R   0.628098 0.482948 0.841718 -0.354831
C7    C     C_R   0.492351 0.580183 0.811409 0.266049
C8    C     C_R   0.676669 0.548804 0.133452 -0.234845
C9    C     C_R   0.890332 0.370582 0.104721 -0.205257
C10   C     C_R   0.183367 0.580945 0.825119 -0.132148
C11   C     C_2   0.067491 0.958087 0.496489 -0.387468
C12   C     C_R   0.113485 0.529895 0.708059 0.875838
C13   C     C_2   0.933330 0.042023 0.504987 -0.386790
C14   C     C_R   0.956020 0.205696 0.503034 0.969186
C15   C     C_R   0.889315 0.484746 0.291623 0.859607
C16   C     C_R   0.822154 0.366686 0.991489 -0.164806
C17   C     C_R   0.823524 0.470615 0.174345 -0.084550
C18   C     C_R   0.072066 0.626912 0.891771 -0.243166
C19   C     C_R   0.129629 0.634831 0.006004 -0.188524
C20   C     C_R   0.294122 0.585456 0.054488 0.210011
H1    H     H_    0.995881 0.299739 0.136810 0.156393
H2    H     H_    0.806686 0.991134 0.513077 0.177337
H3    H     H_    0.470541 0.357237 0.435150 0.185797
H4    H     H_    0.529108 0.650760 0.550628 0.205372
H5    H     H_    0.711665 0.457018 0.786315 0.181034
H6    H     H_    0.885708 0.304459 0.935967 0.148241
H7    H     H_    0.630861 0.631168 0.186764 0.184689
H8    H     H_    0.939207 0.651473 0.855912 0.169754
H9    H     H_    0.039234 0.663840 0.056208 0.157515
H10   H     H_    0.194245 0.008964 0.488598 0.178629
N1    N     N_2   0.434800 0.456690 0.470850 -0.173166
N2    N     N_2   0.565200 0.543310 0.529150 -0.180846
O1    O     O_R   0.893060 0.738880 0.507150 -0.620049
O2    O     O_R   0.172250 0.711130 0.488470 -0.621119
O3    O     O_R   0.944700 0.520730 0.667600 -0.637181
O4    O     O_R   0.223890 0.492980 0.648920 -0.582661
O5    O     O_R   0.827750 0.288870 0.511530 -0.628354
O6    O     O_R   0.106940 0.261120 0.492850 -0.614336
O7    O     O_R   0.776110 0.507020 0.351080 -0.619112
O8    O     O_R   0.055300 0.479270 0.332400 -0.633576
Zn1   Zn    Zn3+2 0.813580 0.518530 0.512470 0.919402
Zn2   Zn    Zn3+2 0.186420 0.481470 0.487530 0.937168
N3    N     N_2   0.328169 0.546717 0.166892 -0.314604
H11   H     H_    0.255699 0.601642 0.214442 0.244627
C21   C     C_3   0.346654 0.381963 0.186750 -0.758491
H12   H     H_    0.482964 0.364757 0.228836 0.253846
H13   H     H_    0.310623 0.306145 0.109148 0.231834
H14   H     H_    0.264228 0.341704 0.242722 0.235005
N4    N     N_2   0.508768 0.699353 0.737085 -0.293343
H15   H     H_    0.634316 0.716021 0.725258 0.210388
C22   C     C_3   0.437719 0.847980 0.753977 -0.779295
H16   H     H_    0.292981 0.834056 0.738176 0.239664
H17   H     H_    0.471869 0.931288 0.694976 0.229392
H18   H     H_    0.493550 0.898723 0.839097 0.236550

loop_
_geom_bond_atom_site_label_1
_geom_bond_atom_site_label_2
_ccdc_geom_bond_type
C13   H2    S    
C2    C4    A    
N2    Zn1   S    
H4    N2    S    
C6    C7    A    
N1    Zn2   S    
C14   O6    A    
C11   C13   D    
C15   O7    A    
O4    Zn2   S    
C8    C17   A    
O2    Zn2   S    
C4    C8    A    
C22   H18   S    
O1    Zn1   S    
O8    Zn2   S    
C2    C3    A    
C1    O1    A    
O7    Zn1   S    
C3    C10   A    
C13   C14   S    
C14   O5    A    
O5    Zn1   S    
N3    C21   S    
C9    H1    S    
C10   C12   S    
C10   C18   A    
C9    C17   A    
C9    C16   A    
C1    O2    A    
O6    Zn2   S    
C3    C7    A    
C21   H13   S    
N3    H11   S    
C16   H6    S    
C5    C6    A    
O3    Zn1   S    
C15   O8    A    
C6    H5    S    
C12   O4    A    
C22   H17   S    
C2    C20   A    
C22   H16   S    
C19   H9    S    
C20   N3    S    
C18   H8    S    
C7    N4    S    
N4    H15   S    
C21   H14   S    
C15   C17   S    
C8    H7    S    
C18   C19   A    
C5    C16   A    
C1    C11   S    
N4    C22   S    
C21   H12   S    
N1    N2    D    
C19   C20   A    
C11   H10   S    
C4    C5    A    
C12   O3    A    
H3    N1    S    
