data_mof_unit_50844.cif
_audit_creation_date              2012-12-11T14:56:39-0500
_audit_creation_method            fapswitch 2.2
_symmetry_space_group_name_H-M    P1
_symmetry_Int_Tables_number       1
_space_group_crystal_system       triclinic
_cell_length_a                    10.533433
_cell_length_b                    10.687468
_cell_length_c                    17.168719
_cell_angle_alpha                 80.360079
_cell_angle_beta                  89.710448
_cell_angle_gamma                 119.163263
_cell_volume                      1655.48889023

loop_
_atom_site_label
_atom_site_type_symbol
_atom_type_description
_atom_site_fract_x
_atom_site_fract_y
_atom_site_fract_z
_atom_type_partial_charge
C1    C     C_R   0.223545 0.855018 0.128926 0.543029
C2    C     C_R   0.820923 0.437757 0.255065 0.162090
C3    C     C_R   0.802591 0.408942 0.179652 -0.118872
C4    C     C_R   0.670043 0.370563 0.147273 -0.040671
C5    C     C_1   0.668948 0.848491 0.205417 -0.001567
C6    C     C_1   0.680572 0.838842 0.274715 0.005382
C7    C     C_1   0.182310 0.827407 0.211419 0.016500
C8    C     C_1   0.152873 0.821215 0.279928 0.018246
C9    C     C_1   0.644016 0.321505 0.777866 0.028339
C10   C     C_1   0.651022 0.343598 0.707402 -0.000572
C11   C     C_R   0.621169 0.711978 0.807365 -0.079526
C12   C     C_R   0.639195 0.285187 0.084233 0.563330
C13   C     C_R   0.590631 0.691094 0.730897 -0.012009
C14   C     C_R   0.662347 0.815171 0.667523 -0.008778
C15   C     C_R   0.746364 0.955401 0.683872 -0.141086
C16   C     C_R   0.754593 0.974589 0.761656 -0.084713
C17   C     C_R   0.689931 0.852267 0.823423 0.030850
C18   C     C_R   0.098739 0.900678 0.785211 0.177473
C19   C     C_R   0.091300 0.898268 0.705929 -0.147797
C20   C     C_R   0.119203 0.802555 0.671960 -0.053538
C21   C     C_R   0.141932 0.696936 0.720897 0.226124
C22   C     C_R   0.148890 0.697717 0.802177 0.206662
C23   C     C_R   0.640415 0.858459 0.125432 0.551175
C24   C     C_R   0.141698 0.809782 0.832818 -0.014041
C25   C     C_R   0.686762 0.809559 0.357057 0.555700
C26   C     C_R   0.725768 0.457362 0.382714 0.584705
C27   C     C_R   0.104260 0.810561 0.359267 0.552939
C28   C     C_R   0.677597 0.795963 0.587278 0.537734
C29   C     C_R   0.678379 0.381814 0.624428 0.544118
C30   C     C_R   0.091463 0.798759 0.589279 0.575909
C31   C     C_R   0.214023 0.857154 0.903069 0.574508
C32   C     C_R   0.637231 0.283855 0.860677 0.558947
C33   C     C_R   0.647535 0.867139 0.899604 0.553173
C34   C     C_R   0.564141 0.391437 0.184355 -0.006712
C35   C     C_R   0.580431 0.420906 0.261825 0.143433
C36   C     C_R   0.706820 0.436114 0.299752 0.009498
Cr1   Cr    Cr6+3 0.402240 0.783890 0.019450 1.142596
Cr2   Cr    Cr6+3 0.382360 0.097900 0.991800 1.146319
Cr3   Cr    Cr6+3 0.715380 0.118170 0.988700 1.111281
Cr4   Cr    Cr6+3 0.936650 0.882420 0.465510 1.079384
Cr5   Cr    Cr6+3 0.605770 0.565620 0.493360 1.105578
Cr6   Cr    Cr6+3 0.921340 0.550490 0.496380 1.134449
H1    H     H_    0.061085 0.972259 0.670994 0.199102
H2    H     H_    0.889916 0.404206 0.148993 0.198163
H3    H     H_    0.571482 0.619068 0.856405 0.202729
H4    H     H_    0.802011 0.050134 0.636335 0.156620
H5    H     H_    0.806353 0.084531 0.773360 0.192204
O1    O     O_R   0.521780 0.757110 0.108900 -0.464803
O2    O     O_R   0.513330 0.228330 0.898660 -0.454182
O3    O     O_R   0.739230 0.266130 0.888050 -0.485454
O4    O     O_R   0.712580 0.991850 0.918770 -0.485366
O5    O     O_3   0.499990 0.999980 0.999980 -0.310574
O6    O     O_R   0.083770 0.911170 0.376030 -0.494847
O7    O     O_R   0.808770 0.880340 0.383890 -0.495186
O8    O     O_R   0.584340 0.689460 0.394160 -0.450145
O9    O     O_R   0.614320 0.443940 0.423590 -0.441659
O10   O     O_R   0.805020 0.410040 0.421340 -0.447236
O11   O     O_R   0.049240 0.685450 0.403290 -0.467760
O12   O     O_R   0.275160 0.783810 0.101120 -0.477498
O13   O     O_R   0.077520 0.903010 0.551800 -0.520193
O14   O     O_R   0.802980 0.872780 0.546830 -0.496979
O15   O     O_R   0.578090 0.681300 0.569920 -0.534722
O16   O     O_R   0.608530 0.436370 0.586530 -0.503958
O17   O     O_R   0.798770 0.401880 0.597100 -0.485510
O18   O     O_R   0.043450 0.677890 0.566230 -0.443162
O19   O     O_3   0.821250 0.666180 0.485090 -0.323463
O20   O     O_R   0.237900 0.972600 0.090980 -0.514632
O21   O     O_R   0.511190 0.220540 0.061620 -0.470108
O22   O     O_R   0.736920 0.257720 0.063840 -0.516111
O23   O     O_R   0.710450 0.984050 0.081720 -0.497800
O24   O     O_R   0.524090 0.765520 0.933110 -0.471869
O25   O     O_R   0.277300 0.791600 0.938160 -0.462793
O26   O     O_R   0.240210 0.981010 0.915190 -0.437285
C37   C     C_2   0.438198 0.385120 0.142749 0.312720
H6    H     H_    0.331471 0.338672 0.175095 0.166733
O27   O     O_2   0.454123 0.436916 0.072012 -0.470355
Cl1   Cl    Cl    0.165538 0.565517 0.682006 -0.515840
Cl2   Cl    Cl    0.164425 0.555998 0.863831 -0.449056
Cl3   Cl    Cl    0.438813 0.436112 0.308239 -0.543743
Cl4   Cl    Cl    0.987748 0.463569 0.290428 -0.547087
C38   C     C_2   0.475072 0.541313 0.722568 0.306332
H7    H     H_    0.415251 0.521028 0.671079 0.204708
O28   O     O_2   0.436458 0.436727 0.776995 -0.461600
Cl5   Cl    Cl    0.060034 0.027056 0.819330 -0.527923

loop_
_geom_bond_atom_site_label_1
_geom_bond_atom_site_label_2
_ccdc_geom_bond_type
Cr3   O4    S    
C12   O22   A    
C29   O16   A    
Cr4   O13   S    
C35   C36   A    
Cr6   O11   S    
C38   H7    S    
C7    C8    T    
Cr2   O2    S    
C20   C30   S    
C12   O21   A    
C37   O27   D    
C18   C24   A    
C18   C19   A    
C1    O12   A    
C5    C6    T    
C31   O26   A    
C6    C25   S    
Cr2   O5    S    
C15   C16   A    
C13   C38   S    
Cr6   O10   S    
C34   C35   A    
Cr5   O8    S    
C9    C32   S    
C19   C20   A    
C16   C17   A    
C30   O13   A    
Cr6   O18   S    
C18   Cl5   S    
C4    C12   S    
C9    C10   T    
C28   O14   A    
Cr3   O5    S    
C29   O17   A    
Cr4   O19   S    
C21   C22   A    
C23   O23   A    
C17   C33   S    
Cr5   O15   S    
C16   H5    S    
C38   O28   D    
C19   H1    S    
C4    C34   A    
C3    H2    S    
C37   H6    S    
C25   O7    A    
C22   Cl2   S    
Cr1   O5    S    
Cr4   O14   S    
Cr5   O9    S    
C5    C23   S    
Cr3   O22   S    
C20   C21   A    
Cr1   O1    S    
C32   O3    A    
Cr1   O12   S    
C34   C37   S    
C26   C36   S    
C31   O25   A    
Cr2   O21   S    
Cr4   O7    S    
Cr1   O24   S    
C22   C24   A    
C11   H3    S    
Cr5   O16   S    
C3    C4    A    
Cr6   O17   S    
C2    C36   A    
C11   C17   A    
C23   O1    A    
C1    C7    S    
C25   O8    A    
C27   O11   A    
C26   O9    A    
C27   O6    A    
Cr5   O19   S    
C33   O4    A    
C2    C3    A    
C24   C31   S    
C11   C13   A    
C10   C29   S    
C35   Cl3   S    
C1    O20   A    
Cr3   O23   S    
C26   O10   A    
C32   O2    A    
C30   O18   A    
C2    Cl4   S    
C33   O24   A    
Cr3   O3    S    
Cr2   O20   S    
Cr4   O6    S    
Cr1   O25   S    
C21   Cl1   S    
Cr6   O19   S    
C8    C27   S    
C14   C15   A    
C15   H4    S    
C14   C28   S    
C13   C14   A    
Cr2   O26   S    
C28   O15   A    
