data_mof_unit_11720.cif
_audit_creation_date              2012-12-11T15:48:12-0500
_audit_creation_method            fapswitch 2.2
_symmetry_space_group_name_H-M    P1
_symmetry_Int_Tables_number       1
_space_group_crystal_system       triclinic
_cell_length_a                    6.92076
_cell_length_b                    17.706762
_cell_length_c                    19.418947
_cell_angle_alpha                 108.621443
_cell_angle_beta                  89.531594
_cell_angle_gamma                 90.788816
_cell_volume                      2254.86994243

loop_
_atom_site_label
_atom_site_type_symbol
_atom_type_description
_atom_site_fract_x
_atom_site_fract_y
_atom_site_fract_z
_atom_type_partial_charge
O1    O     O_R   0.494330 0.415710 0.413720 -0.540250
O2    O     O_R   0.819360 0.430070 0.560210 -0.540356
O3    O     O_R   0.994320 0.584290 0.586280 -0.511512
C1    C     C_R   0.650089 0.415441 0.582065 0.722873
O4    O     O_R   0.823740 0.406290 0.412670 -0.536349
O5    O     O_R   0.998730 0.560340 0.437690 -0.520547
C2    C     C_R   0.654253 0.382698 0.384904 0.800394
O6    O     O_R   0.489920 0.439660 0.562310 -0.553107
O7    O     O_3   0.662330 0.550570 0.508380 -0.344227
V1    V     V_3+5 0.935370 0.490620 0.498440 1.527341
O8    O     O_R   0.328720 0.569930 0.439790 -0.540761
C3    C     C_R   0.161358 0.584370 0.417649 0.724353
O9    O     O_R   0.324340 0.593710 0.587330 -0.517122
C4    C     C_R   0.155304 0.616561 0.615700 0.787986
V2    V     V_3+5 0.435940 0.509380 0.501560 1.532540
O10   O     O_3   0.159110 0.449430 0.491620 -0.389234
C5    C     C_R   0.297106 0.740235 0.707024 0.303044
C6    C     C_R   0.283090 0.803812 0.772490 -0.284912
H1    H     H_    0.399676 0.847367 0.787674 0.169751
C7    C     C_R   0.119898 0.813024 0.817548 -0.215351
C8    C     C_R   0.969121 0.755731 0.797752 0.362561
C9    C     C_R   0.978570 0.692306 0.731075 0.222519
C10   C     C_R   0.143883 0.684088 0.685534 -0.183114
C11   C     C_R   0.280074 0.617846 0.306681 0.273999
C12   C     C_R   0.156094 0.633699 0.368131 -0.280731
C13   C     C_R   0.029976 0.698887 0.384347 0.425064
C14   C     C_R   0.014255 0.744832 0.336489 -0.082683
C15   C     C_R   0.134932 0.727513 0.274029 -0.172069
C16   C     C_R   0.268726 0.664123 0.259185 -0.090073
C17   C     C_R   0.882317 0.808637 0.350490 0.359983
C18   C     C_R   0.879710 0.857937 0.305767 0.264066
C19   C     C_R   0.990514 0.837790 0.241027 -0.046655
C20   C     C_R   0.122845 0.773944 0.226426 -0.055751
C21   C     C_R   0.246697 0.757840 0.164970 -0.011189
C22   C     C_R   0.377094 0.693896 0.149893 0.227271
C23   C     C_R   0.386229 0.647043 0.195771 0.479637
C24   C     C_R   0.974196 0.880889 0.190613 0.470046
C25   C     C_R   0.106866 0.867744 0.132555 -0.188861
C26   C     C_R   0.242172 0.807331 0.120908 -0.304506
H2    H     H_    0.342471 0.799184 0.076190 0.142291
C27   C     C_R   0.779463 0.188752 0.871461 0.261822
C28   C     C_R   0.622390 0.135565 0.869299 -0.225766
C29   C     C_R   0.467844 0.130724 0.820742 0.324734
C30   C     C_R   0.472977 0.175870 0.772302 -0.007923
C31   C     C_R   0.632437 0.226719 0.772840 -0.118649
C32   C     C_R   0.788133 0.232585 0.821700 -0.030145
C33   C     C_R   0.324279 0.168850 0.721405 -0.109577
C34   C     C_R   0.326302 0.212962 0.673371 0.326384
C35   C     C_R   0.479873 0.267471 0.675964 0.021070
C36   C     C_R   0.635648 0.272186 0.724388 0.058130
C37   C     C_R   0.795276 0.322418 0.724199 0.077879
C38   C     C_R   0.949861 0.326763 0.771090 -0.265180
C39   C     C_R   0.946694 0.284161 0.820807 0.488310
C40   C     C_R   0.481792 0.317697 0.632142 -0.226405
C41   C     C_R   0.642328 0.366573 0.631318 -0.081501
C42   C     C_R   0.799450 0.367703 0.676818 -0.149859
H3    H     H_    0.205042 0.127405 0.716707 0.148524
H4    H     H_    0.360648 0.319036 0.597767 0.133749
H5    H     H_    0.923844 0.405597 0.676657 0.121499
H6    H     H_    0.075258 0.363380 0.769064 0.134498
C43   C     C_R   0.764616 0.246961 0.306418 0.185449
C44   C     C_R   0.760397 0.182987 0.239479 0.384087
C45   C     C_R   0.622223 0.182258 0.185930 -0.223372
C46   C     C_R   0.494751 0.245896 0.198821 -0.343509
H7    H     H_    0.391958 0.246735 0.157301 0.156692
C47   C     C_R   0.501581 0.310305 0.263659 0.417129
C48   C     C_R   0.641752 0.312808 0.316924 -0.217408
O11   O     O_R   0.774940 0.060470 0.937800 -0.539639
O12   O     O_R   0.440880 0.093730 0.087350 -0.564731
O13   O     O_R   0.266130 0.939630 0.062280 -0.561682
C49   C     C_R   0.610016 0.115478 0.116243 0.757707
O14   O     O_R   0.445480 0.069960 0.939820 -0.507132
O15   O     O_R   0.270770 0.915690 0.913690 -0.539163
C50   C     C_R   0.614786 0.085515 0.918444 0.754100
O16   O     O_R   0.770300 0.084410 0.086380 -0.527235
O17   O     O_3   0.602600 0.949510 0.991670 -0.374543
V3    V     V_3+5 0.329470 0.009370 0.001550 1.451669
O18   O     O_R   0.940760 0.906160 0.912560 -0.515870
C51   C     C_R   0.109665 0.882555 0.885161 0.781134
O19   O     O_R   0.936150 0.929930 0.060100 -0.529006
C52   C     C_R   0.103156 0.916136 0.082687 0.728982
V4    V     V_3+5 0.828930 0.990450 0.998310 1.498198
O20   O     O_3   0.105670 0.050490 0.008320 -0.370896
O21   O     O_3   0.457190 0.733427 0.662484 -0.622987
H8    H     H_    0.551340 0.776615 0.685715 0.300226
O22   O     O_3   0.499746 0.674955 0.090568 -0.639719
H9    H     H_    0.424904 0.676845 0.047926 0.273453
O23   O     O_3   0.515810 0.584805 0.178105 -0.504980
C53   C     C_3   0.425981 0.517078 0.128890 -0.095879
H10   H     H_    0.290395 0.500220 0.151933 0.126471
H11   H     H_    0.525904 0.466096 0.117959 0.151522
H12   H     H_    0.395567 0.526486 0.076089 0.109304
O24   O     O_3   0.922207 0.200743 0.923264 -0.608608
H13   H     H_    0.861549 0.200194 0.969483 0.279734
O25   O     O_3   0.315961 0.079023 0.819783 -0.636140
H14   H     H_    0.194363 0.108193 0.820724 0.320265
O26   O     O_3   0.175488 0.200068 0.624758 -0.639678
H15   H     H_    0.224810 0.205400 0.578581 0.293036
O27   O     O_3   0.107511 0.287570 0.863710 -0.528307
C54   C     C_3   0.116303 0.362698 0.918102 -0.189895
H16   H     H_    0.232434 0.361535 0.956785 0.153932
H17   H     H_    0.978724 0.376454 0.949586 0.131102
H18   H     H_    0.153723 0.410729 0.894714 0.108154
O28   O     O_3   0.880983 0.245345 0.363467 -0.648580
H19   H     H_    0.929402 0.190706 0.354552 0.329863
O29   O     O_3   0.877773 0.117484 0.228900 -0.531189
C55   C     C_3   0.065576 0.136477 0.210192 -0.126982
H20   H     H_    0.140577 0.178555 0.257605 0.109618
H21   H     H_    0.064561 0.161216 0.164190 0.113327
H22   H     H_    0.151171 0.081041 0.192665 0.155824
O30   O     O_3   0.383806 0.374960 0.271900 -0.561608
C56   C     C_3   0.191190 0.353897 0.282430 -0.208447
H23   H     H_    0.103083 0.408690 0.298153 0.143490
H24   H     H_    0.179236 0.327638 0.327315 0.170036
H25   H     H_    0.128931 0.312801 0.231442 0.115190
O31   O     O_3   0.809346 0.762453 0.842588 -0.552498
C57   C     C_3   0.846946 0.721903 0.892816 -0.231439
H26   H     H_    0.718664 0.727045 0.928595 0.161746
H27   H     H_    0.972169 0.748876 0.928163 0.113020
H28   H     H_    0.871759 0.657330 0.864827 0.130848
O32   O     O_3   0.830705 0.636285 0.710221 -0.634324
H29   H     H_    0.718491 0.652748 0.743291 0.328772
O33   O     O_3   0.417339 0.558959 0.292763 -0.601476
H30   H     H_    0.373124 0.517121 0.312649 0.329749
O34   O     O_3   0.921434 0.717190 0.447699 -0.522812
C58   C     C_3   0.032735 0.767481 0.505252 -0.120207
H31   H     H_    0.076349 0.823508 0.494616 0.137803
H32   H     H_    0.162844 0.736752 0.515837 0.090563
H33   H     H_    0.943373 0.784114 0.555432 0.161425
O35   O     O_3   0.758546 0.825335 0.409673 -0.541538
C59   C     C_3   0.579763 0.787022 0.386072 -0.151049
H34   H     H_    0.480692 0.799146 0.433461 0.151966
H35   H     H_    0.596942 0.721311 0.363460 0.178745
H36   H     H_    0.510934 0.810160 0.345333 0.113520
O36   O     O_3   0.773083 0.927270 0.325431 -0.611687
H37   H     H_    0.721915 0.938967 0.375429 0.330988
O37   O     O_3   0.836730 0.939396 0.199764 -0.513343
C60   C     C_3   0.659381 0.902585 0.171346 -0.033026
H38   H     H_    0.599896 0.866119 0.203878 0.134739
H39   H     H_    0.673017 0.864608 0.113568 0.097800
H40   H     H_    0.553383 0.949784 0.173705 0.141259

loop_
_geom_bond_atom_site_label_1
_geom_bond_atom_site_label_2
_ccdc_geom_bond_type
C41   C42   A    
O24   H13   S    
C27   C28   A    
O12   V3    S    
O25   H14   S    
C1    O6    A    
C59   H36   S    
C56   H24   S    
O26   H15   S    
O36   H37   S    
C31   C32   A    
C23   O23   S    
C34   O26   S    
C16   C23   A    
C13   C14   A    
C44   C45   A    
C15   C16   A    
C24   C25   A    
C21   C22   A    
C57   H27   S    
O5    C3    A    
C17   C18   A    
C22   O22   S    
O29   C55   S    
V3    O20   S    
O11   C50   A    
C35   C40   A    
O31   C57   S    
C6    H1    S    
O12   C49   A    
O13   C52   A    
C43   C48   A    
C11   C16   A    
C56   H23   S    
C38   H6    S    
O8    V2    S    
O21   H8    S    
C27   O24   S    
C33   C34   A    
C29   O25   S    
C27   C32   A    
O1    V2    S    
C47   O30   S    
C53   H11   S    
O7    V1    S    
C7    C51   S    
C30   C33   A    
C47   C48   A    
C24   O37   S    
C8    C9    A    
C14   C17   A    
C55   H21   S    
C8    O31   S    
O28   H19   S    
C5    C6    A    
C28   C50   S    
C37   C38   A    
O33   H30   S    
C43   O28   S    
C11   C12   A    
O19   V4    S    
C57   H28   S    
O17   V4    S    
C26   H2    S    
O4    C2    A    
O18   C51   A    
C58   H33   S    
C36   C37   A    
C12   C13   A    
C17   O35   S    
C11   O33   S    
C39   O27   S    
C21   C26   A    
C13   O34   S    
C46   C47   A    
C4    C10   S    
O2    C1    A    
C29   C30   A    
O14   V3    S    
C33   H3    S    
O18   V4    S    
O27   C54   S    
C55   H20   S    
C7    C8    A    
C54   H17   S    
C20   C21   A    
O15   C51   A    
C5    C10   A    
C19   C24   A    
O17   V3    S    
C53   H12   S    
O32   H29   S    
O3    C4    A    
C60   H39   S    
O14   C50   A    
C34   C35   A    
C45   C49   S    
C15   C20   A    
C35   C36   A    
O6    V2    S    
O9    V2    S    
C25   C52   S    
O34   C58   S    
C55   H22   S    
C28   C29   A    
C59   H34   S    
O2    V1    S    
C38   C39   A    
O22   H9    S    
C9    O32   S    
C40   H4    S    
C40   C41   A    
C58   H32   S    
O30   C56   S    
O1    C2    A    
C18   C19   A    
C30   C31   A    
C37   C42   A    
O19   C52   A    
C59   H35   S    
C60   H40   S    
O5    V1    S    
O8    C3    A    
O16   V4    S    
C44   O29   S    
O37   C60   S    
C42   H5    S    
C3    C12   S    
C5    O21   S    
O11   V4    S    
C46   H7    S    
O35   C59   S    
O7    V2    S    
O4    V1    S    
C1    C41   S    
O3    V1    S    
V1    O10   S    
C57   H26   S    
C19   C20   A    
C49   O16   A    
C25   C26   A    
C31   C36   A    
C58   H31   S    
C32   C39   A    
C54   H16   S    
C6    C7    A    
C54   H18   S    
C43   C44   A    
C18   O36   S    
C60   H38   S    
C2    C48   S    
C45   C46   A    
O23   C53   S    
V4    O20   S    
C14   C15   A    
O15   V3    S    
C9    C10   A    
C22   C23   A    
C53   H10   S    
O9    C4    A    
C56   H25   S    
V2    O10   S    
O13   V3    S    
