data_mof_unit_49253.cif
_audit_creation_date              2013-03-05T16:18:53-0500
_audit_creation_method            fapswitch 2.2
_symmetry_space_group_name_H-M    P1
_symmetry_Int_Tables_number       1
_space_group_crystal_system       triclinic
_cell_length_a                    8.207957
_cell_length_b                    18.848209
_cell_length_c                    22.894047
_cell_angle_alpha                 100.433714
_cell_angle_beta                  89.984949
_cell_angle_gamma                 91.964502
_cell_volume                      3481.15532483

loop_
_atom_site_label
_atom_site_type_symbol
_atom_site_description
_atom_site_fract_x
_atom_site_fract_y
_atom_site_fract_z
_atom_type_partial_charge
P1    P     P_3+3 0.935930 0.665430 0.555670 0.515268
O1    O     O_2   0.110690 0.676100 0.539200 -0.335364
O2    O     O_3   0.863220 0.586720 0.534720 -0.405330
O3    O     O_3   0.368310 0.629070 0.432760 -0.395582
O4    O     O_2   0.238325 0.755740 0.472771 -0.386011
O5    O     O_3   0.933849 0.684273 0.633234 -0.522793
O6    O     O_3   0.353123 0.740914 0.365421 -0.499208
H1    H     H_    0.332708 0.632238 0.327860 0.153003
C1    C     C_3   0.376652 0.696027 0.261406 -0.757524
H2    H     H_    0.247263 0.706997 0.254586 0.299528
H3    H     H_    0.455058 0.742265 0.253257 0.255038
P2    P     P_3+3 0.382700 0.439650 0.365620 0.516444
P3    P     P_3+3 0.950026 0.589127 0.325116 0.475458
O7    O     O_2   0.210480 0.460990 0.358130 -0.339172
O8    O     O_3   0.959520 0.592090 0.401630 -0.385169
O9    O     O_2   0.095684 0.546326 0.296218 -0.376896
O10   O     O_3   0.370494 0.345933 0.342874 -0.508489
O11   O     O_3   0.982892 0.677145 0.311680 -0.520285
C2    C     C_3   0.905306 0.725387 0.356469 0.304328
H4    H     H_    0.982585 0.736479 0.397143 0.139058
H5    H     H_    0.785086 0.703322 0.368339 -0.027123
C3    C     C_3   0.874720 0.796119 0.335062 -0.111476
H6    H     H_    0.825380 0.784889 0.288949 0.149347
C4    C     C_3   0.812847 0.372008 0.343485 0.253993
H7    H     H_    0.688582 0.382819 0.360295 0.076312
H8    H     H_    0.892521 0.421293 0.356161 0.113789
C5    C     C_3   0.804854 0.351297 0.275762 -0.100704
H9    H     H_    0.748627 0.296272 0.262510 0.193917
H10   H     H_    0.726295 0.388916 0.257824 0.088470
Ba1   Ba    Ba6+2 0.157800 0.534120 0.474430 1.595269
C6    C     C_3   0.004248 0.629714 0.656993 0.427020
H11   H     H_    0.117965 0.612861 0.633633 0.107681
H12   H     H_    0.916557 0.582992 0.653506 0.079521
C7    C     C_3   0.042602 0.659942 0.722109 -0.839748
H13   H     H_    0.121307 0.709726 0.725692 0.305154
H14   H     H_    0.107792 0.620819 0.743146 0.207047
H15   H     H_    0.927772 0.673307 0.746730 0.245398
C8    C     C_3   0.316812 0.312578 0.389487 0.295342
H16   H     H_    0.208991 0.339603 0.410769 0.054875
H17   H     H_    0.415237 0.315003 0.422916 0.103734
C9    C     C_3   0.269375 0.233390 0.365008 -0.094966
H18   H     H_    0.142431 0.229963 0.347685 0.166587
H19   H     H_    0.272735 0.201429 0.401163 0.031226
P4    P     P_3+3 0.874370 0.334570 0.444280 0.481386
O12   O     O_2   0.699610 0.323860 0.460780 -0.371341
O13   O     O_3   0.947090 0.413280 0.465240 -0.391449
O14   O     O_3   0.442000 0.370930 0.567190 -0.382523
O15   O     O_3   0.872502 0.314223 0.366554 -0.550142
P5    P     P_3+3 0.857312 0.416144 0.675747 0.481305
O16   O     O_3   0.359410 0.538600 0.570730 -0.390579
O17   O     O_3   0.850780 0.407910 0.598320 -0.378377
O18   O     O_2   0.688183 0.441142 0.699157 -0.402012
O19   O     O_3   0.871955 0.330834 0.695501 -0.506631
Ba2   Ba    Ba6+2 0.652390 0.465870 0.525520 1.568303
P6    P     P_3+3 0.385052 0.722472 0.436768 0.452120
C10   C     C_3   0.404276 0.681923 0.323721 0.420611
H20   H     H_    0.535617 0.673081 0.329326 0.010055
H21   H     H_    0.405424 0.647231 0.229201 0.220027
O20   O     O_3   0.450900 0.461390 0.429220 -0.404235
C11   C     C_3   0.504072 0.687225 0.626166 0.420847
H22   H     H_    0.610266 0.657000 0.606359 0.091611
H23   H     H_    0.416138 0.691085 0.590131 0.127260
C12   C     C_3   0.566600 0.762544 0.654678 -0.807502
H24   H     H_    0.669162 0.758505 0.685407 0.276939
H25   H     H_    0.609810 0.792758 0.619954 0.203244
H26   H     H_    0.468751 0.792937 0.680477 0.284957
P7    P     P_3+3 0.417385 0.560783 0.645716 0.448104
O21   O     O_2   0.599830 0.538970 0.641850 -0.366729
O22   O     O_3   0.426397 0.654448 0.669689 -0.550452
H27   H     H_    0.780981 0.825850 0.363674 0.089064
C13   C     C_3   0.891788 0.278614 0.644017 0.291814
H28   H     H_    0.778412 0.271592 0.616857 0.168766
H29   H     H_    0.994423 0.294518 0.617054 0.000284
C14   C     C_3   0.932318 0.206601 0.661353 -0.106393
H30   H     H_    0.945499 0.164955 0.620707 0.074282
H31   H     H_    0.051019 0.212718 0.685631 0.131805
P8    P     P_3+3 0.424466 0.277953 0.563379 0.429993
C15   C     C_3   0.380508 0.310006 0.675930 0.379548
H32   H     H_    0.246948 0.306955 0.667586 0.025128
O23   O     O_2   0.568970 0.244535 0.526396 -0.406877
O24   O     O_3   0.460210 0.259271 0.634209 -0.496823
H33   H     H_    0.428375 0.365458 0.674795 0.139201
H34   H     H_    0.357446 0.336377 0.771175 0.226420
C16   C     C_3   0.412551 0.294443 0.737667 -0.742771
H35   H     H_    0.545884 0.295329 0.746278 0.286078
H36   H     H_    0.358623 0.240722 0.741741 0.262076
C17   C     C_R   0.000328 0.952732 0.525392 0.012192
C18   C     C_R   0.087934 0.907979 0.556323 -0.021264
C19   C     C_R   0.240862 0.933255 0.581345 -0.098348
C20   C     C_R   0.304173 0.001472 0.576586 -0.191025
C21   C     C_R   0.214109 0.047602 0.548774 0.113810
C22   C     C_R   0.061689 0.023546 0.522999 0.060509
C23   C     C_R   0.272678 0.118114 0.548352 -0.227962
C24   C     C_R   0.178285 0.167261 0.524720 -0.039589
C25   C     C_R   0.026274 0.143227 0.497362 -0.005103
C26   C     C_R   0.969098 0.070917 0.496398 -0.001632
C27   C     C_R   0.228709 0.240434 0.529485 0.180613
C28   C     C_R   0.127515 0.288664 0.508671 -0.551182
C29   C     C_R   0.982574 0.265719 0.478112 0.250580
C30   C     C_R   0.930486 0.191494 0.471809 -0.069886
C31   C     C_R   0.847510 0.928562 0.500044 0.031206
C32   C     C_R   0.787737 0.857070 0.501066 -0.019482
C33   C     C_R   0.878793 0.810383 0.530315 -0.195656
C34   C     C_R   0.018328 0.840621 0.564193 0.360349
H37   H     H_    0.314752 0.900604 0.604235 0.179421
H38   H     H_    0.422306 0.018903 0.596233 0.165933
H39   H     H_    0.165658 0.345011 0.514341 0.182596
H40   H     H_    0.390303 0.134580 0.568461 0.205406
C35   C     C_R   0.784303 0.164055 0.442378 -0.093981
C36   C     C_R   0.723928 0.093641 0.443957 0.101703
C37   C     C_R   0.816437 0.046776 0.471040 0.027951
C38   C     C_R   0.755459 0.975823 0.472950 0.057634
C39   C     C_R   0.569919 0.069822 0.420032 -0.135149
C40   C     C_R   0.508928 0.000227 0.422419 -0.164328
C41   C     C_R   0.601193 0.952655 0.448363 0.100409
C42   C     C_R   0.634537 0.833263 0.474156 -0.027829
C43   C     C_R   0.541443 0.882325 0.449571 -0.224081
C44   C     C_R   0.580306 0.760729 0.471731 0.196492
C45   C     C_R   0.678885 0.713151 0.494647 -0.529934
C46   C     C_R   0.825226 0.735917 0.524444 0.263686
H41   H     H_    0.712537 0.197678 0.419841 0.201071
H42   H     H_    0.495166 0.105314 0.400158 0.169361
H43   H     H_    0.389309 0.983556 0.403813 0.183006
H44   H     H_    0.422515 0.866274 0.430418 0.207522
H45   H     H_    0.638215 0.657279 0.490806 0.178379
H46   H     H_    0.287208 0.329169 0.047481 0.190345
H47   H     H_    0.195483 0.326190 0.946234 0.185895
C47   C     C_R   0.646030 0.523336 0.335059 -0.556845
C48   C     C_R   0.393447 0.557553 0.945868 -0.059822
C49   C     C_R   0.342427 0.554615 0.886609 0.532447
O25   O     O_2   0.364946 0.607488 0.863226 -0.574256
N1    N     N_R   0.265525 0.492827 0.855060 -0.168301
C50   C     C_R   0.233290 0.433819 0.882303 0.517845
O26   O     O_2   0.161821 0.380082 0.854897 -0.572783
C51   C     C_R   0.283916 0.434903 0.941493 -0.055827
C52   C     C_R   0.364639 0.497178 0.973319 -0.012555
C53   C     C_R   0.473081 0.619560 0.978271 -0.109175
C54   C     C_R   0.523179 0.621643 0.036796 -0.100730
C55   C     C_R   0.495653 0.561713 0.064782 -0.038854
C56   C     C_R   0.416552 0.499202 0.032905 -0.018845
C57   C     C_R   0.256989 0.374931 0.969476 -0.097788
C58   C     C_R   0.310022 0.376620 0.027768 -0.072976
C59   C     C_R   0.390100 0.438623 0.060222 -0.076800
C60   C     C_R   0.444495 0.441275 0.119250 0.574239
N2    N     N_R   0.516926 0.504021 0.151513 -0.165077
C61   C     C_R   0.544619 0.563461 0.124091 0.511007
C62   C     C_2   0.066429 0.474684 0.773197 -0.145786
C63   C     C_3   0.022018 0.480608 0.709857 0.165955
C64   C     C_1   0.306057 0.509274 0.694058 0.260496
C65   C     C_2   0.348671 0.507885 0.749653 -0.202254
C66   C     C_2   0.222140 0.490193 0.792963 0.102945
C67   C     C_R   0.715968 0.538526 0.235249 -0.144854
C68   C     C_R   0.755213 0.547311 0.295629 0.222333
C69   C     C_R   0.500622 0.487231 0.314579 0.255910
C70   C     C_R   0.456288 0.481520 0.254423 -0.197145
C71   C     C_R   0.563062 0.507891 0.213814 0.072027
O27   O     O_2   0.429550 0.387204 0.141506 -0.541099
O28   O     O_2   0.610953 0.618532 0.151422 -0.604807
C72   C     C_2   0.171641 0.475491 0.671181 -0.492018
H48   H     H_    0.583857 0.670566 0.060091 0.180675
H49   H     H_    0.804599 0.555686 0.205215 0.185067
H50   H     H_    0.497142 0.666835 0.958445 0.180464
H51   H     H_    0.473892 0.520201 0.764168 0.177895
H52   H     H_    0.970659 0.464831 0.803755 0.163748
H53   H     H_    0.339901 0.456063 0.239450 0.226652
H54   H     H_    0.678939 0.528884 0.381459 0.186497
H55   H     H_    0.169168 0.445184 0.626019 0.167482
N3    N     N_R   0.967069 0.353798 0.250076 0.275803
O29   O     O_R   0.002338 0.399533 0.215316 -0.371968
O30   O     O_R   0.073898 0.307443 0.258718 -0.293044
N4    N     N_R   0.378706 0.202497 0.317445 0.293066
O31   O     O_R   0.324378 0.185017 0.263155 -0.270851
O32   O     O_R   0.533328 0.197571 0.328125 -0.407660
N5    N     N_R   0.804680 0.182626 0.698534 0.292847
O33   O     O_R   0.836222 0.178791 0.753651 -0.317108
O34   O     O_R   0.663949 0.158461 0.675357 -0.363881
N6    N     N_R   0.060961 0.814686 0.616946 0.248967
O35   O     O_R   0.971773 0.832022 0.664016 -0.375298
O36   O     O_R   0.203521 0.788735 0.622406 -0.430976
N7    N     N_R   0.023787 0.841131 0.337698 0.287642
O37   O     O_R   0.132195 0.827596 0.295995 -0.331093
O38   O     O_R   0.038792 0.900377 0.376950 -0.404531

loop_
_geom_bond_atom_site_label_1
_geom_bond_atom_site_label_2
_geom_bond_distance
_ccdc_geom_bond_type
C17   C18   1.410049 A    
C12   H25   1.109978 S    
C55   C61   1.410480 A    
C23   C24   1.407844 A    
P7    C64   1.824882 S    
C7    H15   1.110897 S    
C41   C43   1.402569 A    
C9    H18   1.110603 S    
C49   N1    1.386207 Am   
C33   C46   1.439007 A    
C56   C59   1.408383 A    
O6    P6    1.752062 S    
C52   C56   1.422786 A    
H1    C10   1.106989 S    
C48   C49   1.410842 A    
N2    C61   1.392201 Am   
C51   C52   1.408841 A    
C10   H20   1.107499 S    
C31   C38   1.412680 A    
C65   H51   1.084717 S    
N4    O32   1.302138 A    
O16   Ba2   2.905888 S    
C14   H31   1.113942 S    
P3    O11   1.753204 S    
C11   C12   1.522976 S    
C2    H5    1.110481 S    
C43   H44   1.081021 S    
C4    H8    1.111579 S    
C7    H13   1.111353 S    
C62   H52   1.085627 S    
C23   H40   1.080885 S    
C8    H16   1.104912 S    
N5    O33   1.303460 A    
O2    Ba2   2.789895 S    
C5    H10   1.106426 S    
C59   C60   1.415062 A    
C22   C26   1.410434 A    
C42   C43   1.411724 A    
C11   H23   1.110163 S    
P1    O1    1.499198 D    
H47   C57   1.083178 S    
C44   C45   1.398044 A    
C62   C63   1.519831 S    
C17   C31   1.408219 A    
P2    O20   1.539475 S    
C57   C58   1.398391 A    
C39   H42   1.081451 S    
C34   N6    1.430286 S    
N7    O38   1.302632 A    
N1    C50   1.388153 Am   
P5    O17   1.751847 S    
P2    O10   1.748168 S    
C4    C5    1.529588 S    
P8    C27   1.846041 S    
C1    H2    1.105378 S    
C67   H49   1.082014 S    
C47   C69   1.391549 A    
C5    N3    1.458132 S    
C14   N5    1.460397 S    
N3    O30   1.298691 A    
O5    C6    1.389518 S    
Ba1   O16   2.744287 S    
C12   H26   1.109415 S    
C30   C35   1.411664 A    
C17   C22   1.420755 A    
C47   H54   1.081823 S    
C9    H19   1.109313 S    
C32   C33   1.428320 A    
O6    C10   1.404019 S    
O7    Ba1   2.808414 S    
C18   C34   1.415546 A    
P4    O13   1.571314 S    
C27   C28   1.397212 A    
Ba2   O20   2.743694 S    
C3    H6    1.112095 S    
C26   C37   1.407047 A    
C14   H30   1.111292 S    
P7    O21   1.564718 D    
C4    O15   1.396408 S    
C31   C32   1.422335 A    
C67   C71   1.413280 A    
C2    C3    1.529780 S    
C16   H35   1.111087 S    
C20   H38   1.084109 S    
C8    C9    1.533205 S    
C3    N7    1.459722 S    
C21   C22   1.408377 A    
C13   H29   1.109080 S    
C25   C30   1.424803 A    
O11   C2    1.409046 S    
C24   C27   1.411300 A    
N6    O36   1.298290 A    
H46   C58   1.083182 S    
C28   H39   1.081704 S    
C36   C37   1.409218 A    
P5    C63   1.859574 S    
C11   H22   1.109136 S    
P1    O2    1.571256 S    
C63   C72   1.509368 S    
O2    Ba1   2.898497 S    
C62   C66   1.360314 D    
N2    C71   1.464171 S    
C54   H48   1.083194 S    
P4    Ba2   3.397599 S    
C21   C23   1.399411 A    
C48   C52   1.409380 A    
Ba1   Ba2   4.517581 S    
C15   H33   1.108656 S    
H34   C16   1.105661 S    
C36   C39   1.404237 A    
P8    O24   1.747514 S    
C55   C56   1.406659 A    
P5    O18   1.545738 D    
Ba1   O20   2.906719 S    
O13   Ba2   2.899180 S    
C6    H12   1.109522 S    
C6    C7    1.525246 S    
C1    C10   1.516238 S    
C4    H7    1.102535 S    
C64   C72   1.314667 D    
N4    O31   1.301593 A    
P3    C68   1.831727 S    
C69   C70   1.408774 A    
C47   C68   1.393464 A    
C42   C44   1.414591 A    
O14   Ba2   2.738594 S    
C40   H43   1.083861 S    
C45   H45   1.081899 S    
N3    O29   1.300543 A    
P2    O7    1.501156 D    
O12   Ba2   2.853997 S    
N6    O35   1.300927 A    
C1    H3    1.108535 S    
O3    P6    1.746839 S    
C50   O26   1.221854 D    
O14   P8    1.739758 S    
O19   C13   1.405421 S    
C70   C71   1.420051 A    
C3    H27   1.109692 S    
P4    O12   1.499500 D    
O8    Ba1   2.720899 S    
C39   C40   1.398270 A    
O16   P7    1.753639 S    
P8    O23   1.542054 D    
C1    H21   1.102028 S    
P1    O5    1.746917 S    
C37   C38   1.419909 A    
P2    Ba1   3.376399 S    
C15   H32   1.110576 S    
O4    P6    1.544997 D    
C6    H11   1.103026 S    
P2    C69   1.850952 S    
C60   N2    1.390449 Am   
C13   C14   1.528602 S    
C45   C46   1.396906 A    
C40   C41   1.403564 A    
C61   O28   1.221303 D    
C53   C54   1.395001 A    
C65   C66   1.506136 S    
C29   C30   1.430653 A    
Ba1   O13   2.789180 S    
O1    Ba1   2.853609 S    
O17   Ba2   2.721349 S    
C2    H4    1.110803 S    
P3    O8    1.744150 S    
C9    N4    1.461408 S    
C25   C26   1.422516 A    
C13   H28   1.110051 S    
C64   C65   1.325120 D    
C8    H17   1.107063 S    
C15   O24   1.402307 S    
C35   H41   1.076564 S    
C20   C21   1.397389 A    
C53   H50   1.083210 S    
C11   O22   1.405909 S    
C70   H53   1.081435 S    
P5    O19   1.755316 S    
Ba2   O21   2.808650 S    
P1    Ba1   3.397215 S    
P4    C29   1.875150 S    
C72   H55   1.086756 S    
C49   O25   1.222461 D    
C7    H14   1.103563 S    
O10   C8    1.397131 S    
C60   O27   1.221797 D    
C24   C25   1.418853 A    
N5    O34   1.303848 A    
C32   C42   1.422578 A    
C54   C55   1.407865 A    
C12   H24   1.110629 S    
C15   C16   1.519394 S    
C51   C57   1.407856 A    
C48   C53   1.406176 A    
C18   C19   1.411119 A    
C28   C29   1.395492 A    
P3    O9    1.546050 D    
C19   H37   1.078756 S    
C33   C34   1.426082 A    
C50   C51   1.413878 A    
N1    C66   1.457352 S    
C58   C59   1.408143 A    
C16   H36   1.110545 S    
C67   C68   1.398486 A    
P7    O22   1.750297 S    
C19   C20   1.392849 A    
C35   C36   1.407329 A    
P1    C46   1.878529 S    
C38   C41   1.408637 A    
O3    Ba1   2.739327 S    
N7    O37   1.302040 A    
P4    O15   1.751069 S    
C5    H9    1.110831 S    
P6    C44   1.855120 S    
