data_mof_unit_13993.cif
_audit_creation_date              2012-12-10T17:53:09-0500
_audit_creation_method            fapswitch 2.2
_symmetry_space_group_name_H-M    P1
_symmetry_Int_Tables_number       1
_space_group_crystal_system       triclinic
_cell_length_a                    14.793526
_cell_length_b                    14.616447
_cell_length_c                    27.806519
_cell_angle_alpha                 75.357348
_cell_angle_beta                  103.551004
_cell_angle_gamma                 115.295154
_cell_volume                      5204.41096825

loop_
_atom_site_label
_atom_site_type_symbol
_atom_type_description
_atom_site_fract_x
_atom_site_fract_y
_atom_site_fract_z
_atom_type_partial_charge
C1    C     C_R   0.880674 0.311444 0.506943 0.828846
C2    C     C_R   0.119326 0.688554 0.493075 0.829283
C3    C     C_R   0.003883 0.506445 0.897380 -0.082514
C4    C     C_R   0.005877 0.491198 0.103802 -0.082701
C5    C     C_R   0.925855 0.429788 0.872154 -0.014373
C6    C     C_R   0.072584 0.576332 0.126866 -0.015010
C7    C     C_R   0.849846 0.351527 0.897897 -0.155977
C8    C     C_R   0.137806 0.663197 0.099009 -0.156339
C9    C     C_R   0.080413 0.586317 0.870819 -0.044330
C10   C     C_R   0.939322 0.403395 0.132306 -0.043278
C11   C     C_R   0.000439 0.502102 0.645025 -0.074431
C12   C     C_R   0.999758 0.496975 0.354967 -0.075165
C13   C     C_R   0.936075 0.411711 0.028264 -0.004008
C14   C     C_R   0.079775 0.581754 0.974058 -0.004843
C15   C     C_R   0.076058 0.581501 0.024789 0.063523
C16   C     C_R   0.930497 0.419080 0.975734 0.063725
C17   C     C_R   0.006028 0.494659 0.052182 0.071098
C18   C     C_R   0.004808 0.502534 0.949176 0.070992
C19   C     C_R   0.874706 0.322847 0.057775 -0.198292
C20   C     C_R   0.157174 0.658405 0.947637 -0.197663
C21   C     C_R   0.874866 0.317224 0.108787 0.172520
C22   C     C_R   0.158717 0.662378 0.897005 0.170759
C23   C     C_R   0.000232 0.500258 0.592413 0.815765
C24   C     C_R   0.999701 0.499504 0.407556 0.816396
C25   C     C_R   0.851749 0.346296 0.948542 -0.210691
C26   C     C_R   0.139322 0.666139 0.049010 -0.209571
C27   C     C_R   0.813930 0.201584 0.508660 -0.161180
C28   C     C_R   0.186071 0.798405 0.491418 -0.161097
C29   C     C_R   0.777942 0.021849 0.510683 0.454707
C30   C     C_R   0.222049 0.978104 0.489489 0.454687
C31   C     C_R   0.846305 0.125612 0.504737 0.078969
C32   C     C_R   0.153677 0.874342 0.495372 0.079211
C33   C     C_R   0.712505 0.173841 0.511731 -0.241434
C34   C     C_R   0.287523 0.826165 0.488395 -0.240887
C35   C     C_R   0.640044 0.075716 0.505770 0.020973
C36   C     C_R   0.359970 0.924267 0.494414 0.020917
C37   C     C_R   0.674875 0.997323 0.510525 -0.056333
C38   C     C_R   0.325131 0.002644 0.489680 -0.056226
C39   C     C_R   0.534406 0.052551 0.497495 -0.062305
C40   C     C_R   0.465607 0.947431 0.502715 -0.062310
C41   C     C_R   0.505555 0.869608 0.517866 0.405703
C42   C     C_R   0.494451 0.130371 0.482360 0.405669
C43   C     C_R   0.607124 0.895075 0.517351 -0.272572
C44   C     C_R   0.392887 0.104894 0.482899 -0.272578
C45   C     C_R   0.924925 0.432838 0.821377 0.564816
C46   C     C_R   0.071884 0.573872 0.177380 0.571949
C47   C     C_R   0.727726 0.689931 0.425593 0.352263
C48   C     C_R   0.272515 0.310393 0.574684 0.352108
C49   C     C_R   0.794900 0.641903 0.429469 0.239659
C50   C     C_R   0.205286 0.358414 0.570723 0.239043
C51   C     C_R   0.716223 0.511939 0.494295 -0.024829
C52   C     C_R   0.283760 0.487971 0.505695 -0.026079
C53   C     C_R   0.632046 0.542253 0.483641 -0.120858
C54   C     C_R   0.368018 0.457770 0.516457 -0.120732
C55   C     C_R   0.642184 0.637712 0.451318 0.007732
C56   C     C_R   0.357970 0.362448 0.548888 0.007747
C57   C     C_R   0.539305 0.481437 0.504482 0.063629
C58   C     C_R   0.460759 0.518579 0.495624 0.063431
C59   C     C_R   0.478581 0.617505 0.467869 -0.191046
C60   C     C_R   0.521499 0.382545 0.532284 -0.190281
C61   C     C_R   0.565546 0.676384 0.445193 0.175263
C62   C     C_R   0.434607 0.323763 0.555034 0.175440
C63   C     C_R   0.075766 0.585048 0.819337 0.567512
C64   C     C_R   0.940800 0.406048 0.183237 0.561399
C65   C     C_R   0.966810 0.571857 0.706166 -0.192012
C66   C     C_R   0.042482 0.432827 0.294656 -0.193262
C67   C     C_R   0.966318 0.569226 0.656347 -0.221425
C68   C     C_R   0.041378 0.435435 0.344243 -0.222767
C69   C     C_R   0.033039 0.436216 0.684154 -0.348224
C70   C     C_R   0.960484 0.556790 0.315285 -0.350629
C71   C     C_R   0.031346 0.436584 0.734435 0.501871
C72   C     C_R   0.963245 0.556332 0.265110 0.504791
C73   C     C_R   0.999872 0.506358 0.745186 0.304707
C74   C     C_R   0.003132 0.492529 0.255092 0.303452
Cu1   Cu    Cu3+1 0.081740 0.475690 0.513040 0.919458
Cu2   Cu    Cu3+1 0.918260 0.524310 0.486960 0.919665
H1    H     H_    0.058007 0.383499 0.675738 0.144623
H2    H     H_    0.929410 0.604930 0.323142 0.144151
H3    H     H_    0.308590 0.770225 0.480232 0.215844
H4    H     H_    0.691476 0.229817 0.519883 0.215793
H5    H     H_    0.279560 0.550030 0.475847 0.151308
H6    H     H_    0.720358 0.449719 0.524049 0.151578
H7    H     H_    0.424982 0.651759 0.463597 0.163702
H8    H     H_    0.575085 0.348269 0.536579 0.163495
H9    H     H_    0.788003 0.293317 0.878946 0.183912
H10   H     H_    0.187964 0.730282 0.115694 0.182633
H11   H     H_    0.072158 0.388456 0.374231 0.163559
H12   H     H_    0.940682 0.620696 0.626669 0.160229
H13   H     H_    0.074268 0.384607 0.286875 0.153900
H14   H     H_    0.941374 0.624690 0.714544 0.151948
H15   H     H_    0.827395 0.254462 0.042045 0.139732
H16   H     H_    0.220235 0.715214 0.966327 0.140271
H17   H     H_    0.788331 0.285589 0.964988 0.139002
H18   H     H_    0.189093 0.737650 0.029966 0.137603
H19   H     H_    0.633149 0.833198 0.525179 0.208226
H20   H     H_    0.366864 0.166767 0.475094 0.208094
N1    N     N_R   0.999515 0.508886 0.796387 -0.444929
N2    N     N_R   0.005892 0.490371 0.204118 -0.444813
N3    N     N_R   0.795430 0.560780 0.467350 -0.197501
N4    N     N_R   0.204570 0.439220 0.532650 -0.197444
O1    O     O_R   0.977900 0.338120 0.517190 -0.579757
O2    O     O_R   0.022100 0.661880 0.482810 -0.579573
O3    O     O_R   0.839850 0.379180 0.495160 -0.579991
O4    O     O_R   0.160150 0.620820 0.504840 -0.579802
O5    O     O_R   0.069030 0.479490 0.580750 -0.580737
O6    O     O_R   0.930970 0.520510 0.419250 -0.580851
O7    O     O_R   0.930970 0.520550 0.558720 -0.582957
O8    O     O_R   0.069030 0.479450 0.441280 -0.584001
O9    O     O_2   0.850128 0.360028 0.797006 -0.564849
O10   O     O_2   0.136740 0.654519 0.199792 -0.564862
O11   O     O_2   0.877271 0.326545 0.211825 -0.550359
O12   O     O_2   0.146505 0.658021 0.792106 -0.549645
C75   C     C_3   0.050006 0.846253 0.507724 -0.843312
H21   H     H_    0.036888 0.786431 0.542060 0.232421
H22   H     H_    0.040829 0.912468 0.515401 0.252248
H23   H     H_    0.991656 0.817030 0.476086 0.223689
C76   C     C_3   0.949945 0.153658 0.492356 -0.842564
H24   H     H_    0.963033 0.213437 0.458003 0.233470
H25   H     H_    0.008340 0.182917 0.523974 0.223320
H26   H     H_    0.959088 0.087412 0.484693 0.252238
O13   O     O_3   0.809599 0.944124 0.513214 -0.616783
C77   C     C_3   0.851078 0.916738 0.563227 0.033586
H27   H     H_    0.814250 0.924779 0.591840 0.135997
H28   H     H_    0.933097 0.965647 0.569082 0.160442
C78   C     C_3   0.837548 0.804745 0.572178 -0.825482
H29   H     H_    0.867329 0.791013 0.542810 0.250040
H30   H     H_    0.878459 0.784944 0.609556 0.206839
H31   H     H_    0.756126 0.753899 0.570999 0.245053
O14   O     O_3   0.190375 0.055806 0.486983 -0.616969
C79   C     C_3   0.149057 0.083355 0.436959 0.034891
H32   H     H_    0.067043 0.034471 0.431030 0.160511
H33   H     H_    0.185992 0.075413 0.408362 0.136204
C80   C     C_3   0.162610 0.195346 0.428077 -0.827423
H34   H     H_    0.244040 0.246183 0.429302 0.244464
H35   H     H_    0.121764 0.215252 0.390697 0.207925
H36   H     H_    0.132776 0.208987 0.457452 0.250251
O15   O     O_3   0.447669 0.767682 0.534226 -0.606748
C81   C     C_3   0.447300 0.752975 0.586346 0.061687
H37   H     H_    0.413393 0.801149 0.594758 0.155353
H38   H     H_    0.525417 0.771887 0.607216 0.142188
C82   C     C_3   0.384305 0.640820 0.604889 -0.748973
H39   H     H_    0.416273 0.590628 0.597098 0.247803
H40   H     H_    0.384397 0.628012 0.645992 0.201029
H41   H     H_    0.305204 0.620080 0.585723 0.272087
O16   O     O_3   0.552307 0.232289 0.465966 -0.606810
C83   C     C_3   0.552573 0.246936 0.413839 0.062513
H42   H     H_    0.474428 0.228003 0.393003 0.142028
H43   H     H_    0.586445 0.198742 0.405416 0.155367
C84   C     C_3   0.615538 0.359078 0.395253 -0.751471
H44   H     H_    0.583604 0.409291 0.403052 0.247766
H45   H     H_    0.694667 0.379839 0.414380 0.272297
H46   H     H_    0.615360 0.371833 0.354144 0.200213
C85   C     C_3   0.572374 0.780684 0.415417 -0.750699
H47   H     H_    0.507198 0.798281 0.416943 0.197549
H48   H     H_    0.640519 0.841269 0.431408 0.257650
H49   H     H_    0.572871 0.784341 0.375136 0.266809
C86   C     C_3   0.427852 0.219553 0.584907 -0.750578
H50   H     H_    0.493067 0.201972 0.583430 0.197390
H51   H     H_    0.427351 0.216040 0.625171 0.267261
H52   H     H_    0.359746 0.158873 0.568958 0.257172
C87   C     C_3   0.145299 0.328813 0.613046 -0.787122
H53   H     H_    0.173260 0.396272 0.631752 0.236073
H54   H     H_    0.063208 0.301266 0.599889 0.237264
H55   H     H_    0.158078 0.267892 0.643319 0.223745
C88   C     C_3   0.854379 0.671197 0.387029 -0.791476
H56   H     H_    0.825491 0.603442 0.368510 0.233328
H57   H     H_    0.841672 0.732177 0.356771 0.222754
H58   H     H_    0.936523 0.698260 0.400003 0.239560
O17   O     O_3   0.738340 0.780254 0.391428 -0.586829
C89   C     C_3   0.824368 0.862649 0.409058 0.024072
H59   H     H_    0.894905 0.858700 0.404359 0.138659
H60   H     H_    0.826720 0.862783 0.449267 0.201993
C90   C     C_3   0.822595 0.964360 0.378439 -0.745663
H61   H     H_    0.754548 0.974219 0.382380 0.249905
H62   H     H_    0.890607 0.028952 0.391850 0.199830
H63   H     H_    0.822441 0.967001 0.338155 0.247650
O18   O     O_3   0.261884 0.220121 0.608888 -0.586378
C91   C     C_3   0.176061 0.137654 0.591174 0.025503
H64   H     H_    0.174114 0.137453 0.551020 0.202032
H65   H     H_    0.105360 0.141576 0.595642 0.138142
C92   C     C_3   0.177722 0.035998 0.621929 -0.748849
H66   H     H_    0.177374 0.033390 0.662149 0.247247
H67   H     H_    0.109914 0.971355 0.608410 0.199440
H68   H     H_    0.245981 0.026205 0.618257 0.250055
O19   O     O_3   0.066653 0.375134 0.774042 -0.575476
C93   C     C_3   0.014614 0.270491 0.769275 0.066096
H69   H     H_    0.049550 0.251448 0.743890 0.138450
H70   H     H_    0.932620 0.250567 0.754823 0.161335
C94   C     C_3   0.022944 0.204440 0.820689 -0.741848
H71   H     H_    0.988131 0.221479 0.846875 0.256100
H72   H     H_    0.983045 0.121873 0.817527 0.193118
H73   H     H_    0.103600 0.220388 0.835995 0.249364
O20   O     O_3   0.921112 0.611172 0.224921 -0.575208
C95   C     C_3   0.959273 0.715738 0.229529 0.072243
H74   H     H_    0.041093 0.745512 0.245427 0.159682
H75   H     H_    0.915308 0.726356 0.253561 0.138506
C96   C     C_3   0.947634 0.779353 0.177725 -0.740322
H76   H     H_    0.866717 0.753536 0.160986 0.248281
H77   H     H_    0.976570 0.861708 0.180747 0.192076
H78   H     H_    0.991147 0.770607 0.152818 0.258176
C97   C     C_3   0.805631 0.217315 0.136266 -0.755450
H79   H     H_    0.747389 0.230140 0.149431 0.262407
H80   H     H_    0.764580 0.157949 0.111925 0.195890
H81   H     H_    0.850291 0.185029 0.168355 0.249468
C98   C     C_3   0.245821 0.748998 0.873009 -0.751877
H82   H     H_    0.289703 0.717317 0.859602 0.259937
H83   H     H_    0.217012 0.798141 0.841541 0.253639
H84   H     H_    0.299482 0.799937 0.899707 0.195576

loop_
_geom_bond_atom_site_label_1
_geom_bond_atom_site_label_2
_ccdc_geom_bond_type
C26   H18   S    
C96   H78   S    
C66   C68   A    
C25   H17   S    
C86   H50   S    
C80   H34   S    
C70   H2    S    
C76   H24   S    
C8    C26   A    
C97   H79   S    
C14   C18   A    
C95   H75   S    
Cu1   O1    S    
C87   H53   S    
O19   C93   S    
C47   C49   A    
C90   H61   S    
C27   C33   A    
Cu2   N3    S    
C73   N1    S    
C12   C68   A    
C67   H12   S    
C88   H56   S    
C44   H20   S    
C35   C37   A    
C59   H7    S    
C83   H42   S    
C84   H45   S    
C33   C35   A    
C45   O9    S    
C9    C22   A    
C92   H68   S    
C95   C96   S    
C29   C37   A    
C89   H59   S    
C2    O2    A    
C23   O5    A    
C65   C73   A    
C30   C38   A    
C3    C18   A    
C60   C62   A    
O17   C89   S    
C11   C23   S    
C63   O12   S    
C96   H77   S    
C39   C42   A    
C31   C76   S    
C36   C40   A    
C12   C70   A    
C87   H54   S    
C69   H1    S    
C85   H47   S    
C52   C54   A    
C65   C67   A    
C29   O13   S    
C80   H36   S    
C43   H19   S    
C79   H33   S    
C24   O8    A    
C32   C75   S    
C85   H48   S    
C6    C46   A    
C1    O3    A    
C41   O15   S    
C75   H23   S    
C1    C27   S    
Cu2   O3    S    
C64   N2    A    
C95   H74   S    
C46   N2    A    
C28   C34   A    
Cu1   O8    S    
C86   H51   S    
C50   C87   S    
C51   N3    A    
C97   H80   S    
C52   H5    S    
C42   C44   A    
C71   O19   S    
C48   O18   S    
C47   O17   S    
C11   C67   A    
C38   C44   A    
O16   C83   S    
C66   H13   S    
C83   H43   S    
C77   H27   S    
C53   C55   A    
C10   C21   A    
Cu2   O2    S    
C65   H14   S    
C54   C56   A    
C59   C61   A    
C69   C71   A    
C13   C19   A    
C27   C31   A    
C14   C20   A    
C28   C32   A    
C72   C74   A    
Cu1   O4    S    
C76   H26   S    
C39   C40   A    
C5    C7    A    
C53   C57   A    
C57   C60   A    
C6    C8    A    
C3    C5    A    
C58   C59   A    
C92   H66   S    
C5    C45   A    
C52   N4    A    
C22   C98   S    
C51   C53   A    
C82   H40   S    
C37   C43   A    
C94   H73   S    
C35   C39   A    
Cu1   Cu2   S    
C49   C88   S    
C3    C9    A    
C21   C97   S    
C34   H3    S    
C49   N3    A    
C83   C84   S    
C20   H16   S    
C2    O4    A    
C23   O7    A    
C11   C69   A    
C62   C86   S    
C94   H71   S    
C16   C18   A    
C85   H49   S    
C78   H30   S    
C51   H6    S    
O13   C77   S    
C90   H62   S    
C81   H38   S    
O18   C91   S    
C4    C17   A    
C4    C6    A    
C40   C41   A    
C20   C22   A    
Cu1   O5    S    
Cu2   O7    S    
C46   O10   S    
C78   H29   S    
C97   H81   S    
C56   C62   A    
C84   H46   S    
C79   C80   S    
C24   O6    A    
C77   H28   S    
C36   C38   A    
C1    O1    A    
C72   O20   S    
C87   H55   S    
C47   C55   A    
C75   H21   S    
C54   C58   A    
C98   H84   S    
C16   C25   A    
C48   C56   A    
C98   H82   S    
Cu2   O6    S    
C74   N2    S    
C19   C21   A    
C9    C63   A    
C10   C64   A    
C41   C43   A    
C63   N1    A    
C4    C10   A    
C64   O11   S    
C81   C82   S    
C61   C85   S    
C91   H65   S    
C15   C26   A    
C33   H4    S    
C15   C17   A    
C82   H41   S    
C86   H52   S    
C88   H58   S    
C30   O14   S    
O15   C81   S    
C12   C24   S    
C50   N4    A    
C7    C25   A    
C13   C17   A    
C77   C78   S    
C76   H25   S    
C79   H32   S    
O14   C79   S    
C29   C31   A    
C45   N1    A    
C82   H39   S    
C30   C32   A    
C60   H8    S    
C8    H10   S    
C57   C58   A    
C7    H9    S    
C89   H60   S    
C93   C94   S    
C78   H31   S    
C55   C61   A    
C48   C50   A    
Cu1   N4    S    
C90   H63   S    
C98   H83   S    
C34   C36   A    
C96   H76   S    
C91   C92   S    
C19   H15   S    
C81   H37   S    
C92   H67   S    
C70   C72   A    
C88   H57   S    
O20   C95   S    
C13   C16   A    
C71   C73   A    
C80   H35   S    
C68   H11   S    
C14   C15   A    
C2    C28   S    
C94   H72   S    
C93   H69   S    
C84   H44   S    
C42   O16   S    
C93   H70   S    
C91   H64   S    
C75   H22   S    
C89   C90   S    
C66   C74   A    
