data_mof_unit_51629.cif
_audit_creation_date              2012-10-26T17:10:27-0400
_audit_creation_method            fapswitch 2.2
_symmetry_space_group_name_H-M    P1
_symmetry_Int_Tables_number       1
_space_group_crystal_system       triclinic
_cell_length_a                    16.842498
_cell_length_b                    16.760589
_cell_length_c                    16.819308
_cell_angle_alpha                 68.180564
_cell_angle_beta                  67.919026
_cell_angle_gamma                 67.142706
_cell_volume                      3910.05840059

loop_
_atom_site_label
_atom_site_type_symbol
_atom_type_description
_atom_site_fract_x
_atom_site_fract_y
_atom_site_fract_z
_atom_type_partial_charge
C1    C     C_R   0.593757 0.033757 0.594703 0.001639
C2    C     C_R   0.171364 0.437016 0.965668 0.560707
C3    C     C_3   0.178421 0.415236 0.586458 -0.251136
C4    C     C_3   0.245576 0.470262 0.534760 -0.296721
C5    C     C_3   0.310068 0.451660 0.587568 -0.461866
C6    C     C_3   0.718777 0.112954 0.721240 -0.205020
C7    C     C_3   0.780811 0.055776 0.783655 -0.241486
C8    C     C_3   0.762648 0.098464 0.857253 -0.452703
C9    C     C_3   0.288607 0.878506 0.286829 -0.230165
C10   C     C_3   0.276164 0.792133 0.360134 -0.297358
C11   C     C_3   0.250390 0.733496 0.328402 -0.463798
C12   C     C_3   0.928886 0.766975 0.763546 -0.205318
C13   C     C_R   0.564461 0.029515 0.828947 0.545364
C14   C     C_3   0.971740 0.807157 0.801097 -0.247289
C15   C     C_3   0.919912 0.814035 0.896107 -0.458179
C16   C     C_3   0.874087 0.295186 0.294114 -0.217115
C17   C     C_3   0.911119 0.233540 0.231198 -0.244466
C18   C     C_3   0.855011 0.169826 0.258409 -0.459653
C19   C     C_3   0.705698 0.709962 0.124302 -0.232854
C20   C     C_3   0.716307 0.634015 0.209734 -0.304136
C21   C     C_3   0.734667 0.664253 0.274610 -0.459631
C22   C     C_3   0.281285 0.277931 0.883536 -0.223464
C23   C     C_3   0.350815 0.252854 0.799355 -0.297830
C24   C     C_R   0.435443 0.971356 0.171309 0.546646
C25   C     C_3   0.313828 0.212762 0.757712 -0.455693
C26   C     C_R   0.433799 0.171659 0.973297 0.544542
C27   C     C_R   0.567170 0.829242 0.022789 0.548101
C28   C     C_R   0.974796 0.433883 0.170880 0.556002
C29   C     C_R   0.014103 0.569541 0.832156 0.560887
C30   C     C_R   0.171121 0.974622 0.433753 0.555028
C31   C     C_R   0.828841 0.027665 0.565610 0.549924
C32   C     C_R   0.544473 0.021040 0.545088 0.011650
C33   C     C_R   0.402201 0.983544 0.401214 -0.011276
C34   C     C_R   0.450776 0.996801 0.451118 0.010184
C35   C     C_R   0.040817 0.536045 0.540369 0.014313
C36   C     C_R   0.041289 0.438197 0.435345 0.030527
C37   C     C_R   0.562746 0.550077 0.981102 0.016799
C38   C     C_R   0.455205 0.470655 0.955536 0.013431
C39   C     C_R   0.513129 0.093222 0.475637 0.001353
C40   C     C_R   0.488321 0.922684 0.515539 0.003286
C41   C     C_R   0.101621 0.447272 0.543660 0.008714
C42   C     C_R   0.020233 0.532632 0.408615 0.024748
C43   C     C_R   0.479264 0.544667 0.043008 0.010244
C44   C     C_R   0.035396 0.591430 0.595413 -0.017310
C45   C     C_R   0.539899 0.473672 0.894352 0.001982
C46   C     C_R   0.459556 0.083027 0.433955 0.001627
C47   C     C_R   0.530060 0.936284 0.567032 0.003470
C48   C     C_R   0.421868 0.514499 0.024423 0.007042
C49   C     C_R   0.595677 0.510195 0.908816 0.003722
C50   C     C_R   0.093466 0.393685 0.498575 0.005270
C51   C     C_R   0.990421 0.573886 0.477139 -0.001749
C52   C     C_R   0.552995 0.040157 0.682274 -0.153435
C53   C     C_R   0.444503 0.973079 0.315103 -0.140402
C54   C     C_R   0.042240 0.679349 0.556583 -0.161306
C55   C     C_R   0.012370 0.392067 0.392691 -0.025398
C56   C     C_R   0.992355 0.310095 0.437655 -0.151058
C57   C     C_R   0.691819 0.555551 0.016967 -0.139820
C58   C     C_R   0.319854 0.456141 0.936242 -0.152159
C59   C     C_R   0.312602 0.984517 0.438769 -0.153728
C60   C     C_R   0.683916 0.030752 0.557304 -0.147099
C61   C     C_R   0.440732 0.322202 0.965015 -0.150916
C62   C     C_R   0.572854 0.691610 0.992868 -0.159148
C63   C     C_R   0.002294 0.431404 0.306056 -0.141256
C64   C     C_R   0.022368 0.557240 0.687125 -0.145697
C65   C     C_R   0.600787 0.046467 0.731395 -0.026722
C66   C     C_R   0.611947 0.600355 0.993349 -0.025194
C67   C     C_R   0.399781 0.957207 0.269162 -0.021024
C68   C     C_R   0.019766 0.736770 0.610082 -0.010708
C69   C     C_R   0.966710 0.267772 0.396526 -0.013714
C70   C     C_R   0.732894 0.600815 0.037915 -0.003175
C71   C     C_R   0.270370 0.403639 0.940241 -0.018289
C72   C     C_R   0.268443 0.963525 0.396151 -0.005890
C73   C     C_R   0.731502 0.042052 0.603428 -0.018962
C74   C     C_R   0.396966 0.271117 0.954472 -0.013396
C75   C     C_R   0.607003 0.732787 0.027612 -0.017749
C76   C     C_R   0.970553 0.393980 0.266250 -0.012807
C77   C     C_R   0.405108 0.416192 0.950299 -0.014143
C78   C     C_R   0.011639 0.610933 0.739595 -0.011892
C79   C     C_R   0.686696 0.059953 0.688007 -0.018476
C80   C     C_R   0.317523 0.936700 0.316267 -0.013679
C81   C     C_R   0.995004 0.704410 0.703847 -0.016097
C82   C     C_R   0.944583 0.314992 0.314944 -0.009479
C83   C     C_R   0.682981 0.682468 0.060037 -0.021266
C84   C     C_R   0.315858 0.316459 0.929168 -0.010073
C85   C     C_3   0.558027 0.861724 0.646826 -0.243873
C86   C     C_3   0.660295 0.820876 0.630299 -0.289730
C87   C     C_3   0.691286 0.810171 0.709267 -0.442889
C88   C     C_R   0.018771 0.830671 0.568279 0.560066
C89   C     C_3   0.406605 0.164587 0.375736 -0.245620
C90   C     C_3   0.457835 0.182560 0.276164 -0.293996
C91   C     C_3   0.396381 0.210975 0.216881 -0.429898
C92   C     C_3   0.917876 0.663693 0.469832 -0.254786
C93   C     C_3   0.833618 0.657624 0.459086 -0.299976
C94   C     C_3   0.776749 0.749980 0.418710 -0.463213
C95   C     C_3   0.149837 0.296004 0.507066 -0.260924
C96   C     C_3   0.120682 0.235328 0.600792 -0.300254
C97   C     C_3   0.169631 0.136729 0.603897 -0.453264
C98   C     C_3   0.692461 0.498721 0.851697 -0.252954
C99   C     C_R   0.973427 0.171327 0.434646 0.556684
C100  C     C_3   0.709954 0.586067 0.786737 -0.302514
C101  C     C_3   0.801380 0.566527 0.719562 -0.457373
C102  C     C_3   0.322499 0.542184 0.069904 -0.260507
C103  C     C_3   0.278657 0.639594 0.023706 -0.298420
C104  C     C_3   0.177513 0.667513 0.063734 -0.456548
C105  C     C_3   0.487941 0.828358 0.525872 -0.247884
C106  C     C_3   0.405542 0.803872 0.597701 -0.295617
C107  C     C_3   0.417862 0.703199 0.623429 -0.461684
C108  C     C_3   0.542868 0.178102 0.442052 -0.244148
C109  C     C_3   0.492965 0.240895 0.503624 -0.295330
C110  C     C_R   0.829151 0.565016 0.027861 0.550350
C111  C     C_3   0.543539 0.307650 0.483542 -0.462358
C112  C     C_3   0.562599 0.454267 0.805130 -0.245725
C113  C     C_3   0.622876 0.358294 0.801843 -0.300906
C114  C     C_3   0.683845 0.356542 0.708085 -0.467931
C115  C     C_3   0.454627 0.562292 0.133945 -0.251173
C116  C     C_3   0.461851 0.473559 0.207473 -0.300889
C117  C     C_3   0.425624 0.489929 0.299641 -0.470384
C118  C     C_3   0.079381 0.578411 0.322959 -0.238754
C119  C     C_3   0.179929 0.527514 0.307706 -0.287027
C120  C     C_3   0.208551 0.446965 0.270306 -0.432922
Cu1   Cu    Cu3+1 0.995180 0.995180 0.424630 0.856397
Cu2   Cu    Cu3+1 0.004820 0.004820 0.575370 0.827117
Cu3   Cu    Cu3+1 0.995180 0.424630 0.995180 0.853317
Cu4   Cu    Cu3+1 0.004820 0.575370 0.004820 0.829473
Cu5   Cu    Cu3+1 0.424630 0.995180 0.995180 0.870235
Cu6   Cu    Cu3+1 0.575370 0.004820 0.004820 0.842581
H1    H     H_    0.484822 0.036545 0.713071 0.123734
H2    H     H_    0.512799 0.728486 0.970504 0.130660
H3    H     H_    0.774990 0.986419 0.813210 0.185663
H4    H     H_    0.851850 0.050174 0.746483 0.171761
H5    H     H_    0.753652 0.158046 0.663179 0.124330
H6    H     H_    0.658741 0.159776 0.754643 0.136411
H7    H     H_    0.303288 0.713633 0.269615 0.142624
H8    H     H_    0.242363 0.671724 0.382402 0.131441
H9    H     H_    0.185984 0.770272 0.310590 0.151683
H10   H     H_    0.339755 0.753139 0.379271 0.149652
H11   H     H_    0.223201 0.807776 0.420441 0.181026
H12   H     H_    0.227214 0.917603 0.264083 0.175241
H13   H     H_    0.020425 0.491289 0.267086 0.138593
H14   H     H_    0.340895 0.855042 0.229758 0.159663
H15   H     H_    0.846927 0.843119 0.902683 0.145540
H16   H     H_    0.932513 0.747373 0.944087 0.208676
H17   H     H_    0.942511 0.857933 0.913528 0.103921
H18   H     H_    0.042732 0.768080 0.798459 0.181711
H19   H     H_    0.970303 0.877020 0.761461 0.177914
H20   H     H_    0.882631 0.822863 0.726489 0.129206
H21   H     H_    0.883739 0.729957 0.819191 0.145907
H22   H     H_    0.855717 0.124838 0.326055 0.195259
H23   H     H_    0.784679 0.208781 0.257540 0.129734
H24   H     H_    0.018535 0.489083 0.718261 0.120378
H25   H     H_    0.882718 0.127864 0.210912 0.118996
H26   H     H_    0.908100 0.274458 0.162741 0.175430
H27   H     H_    0.982131 0.194366 0.228042 0.193465
H28   H     H_    0.830127 0.265963 0.358198 0.130465
H29   H     H_    0.828512 0.359486 0.265048 0.114235
H30   H     H_    0.797645 0.683953 0.243723 0.156304
H31   H     H_    0.678396 0.722044 0.294188 0.143830
H32   H     H_    0.741906 0.608184 0.335377 0.140235
H33   H     H_    0.653916 0.613171 0.242693 0.148569
H34   H     H_    0.772491 0.574516 0.194539 0.172197
H35   H     H_    0.685792 0.876169 0.713901 0.172185
H36   H     H_    0.766839 0.732643 0.090721 0.169462
H37   H     H_    0.650942 0.766612 0.147337 0.162123
H38   H     H_    0.251576 0.261083 0.740542 0.137149
H39   H     H_    0.363621 0.196865 0.696152 0.130434
H40   H     H_    0.299256 0.149788 0.804661 0.157746
H41   H     H_    0.367906 0.314016 0.750561 0.143362
H42   H     H_    0.413677 0.203634 0.813716 0.182956
H43   H     H_    0.256307 0.220581 0.931082 0.176769
H44   H     H_    0.223767 0.328887 0.859316 0.157474
H45   H     H_    0.649607 0.777417 0.772483 0.148315
H46   H     H_    0.762575 0.770129 0.700707 0.131655
H47   H     H_    0.680022 0.753950 0.618493 0.145098
H48   H     H_    0.696606 0.862419 0.570132 0.168566
H49   H     H_    0.527986 0.888472 0.706065 0.147030
H50   H     H_    0.528789 0.805976 0.668048 0.125197
H51   H     H_    0.511758 0.979013 0.283466 0.126899
H52   H     H_    0.365588 0.157500 0.231766 0.170908
H53   H     H_    0.342584 0.273550 0.227165 0.141384
H54   H     H_    0.435859 0.223228 0.146174 0.154240
H55   H     H_    0.488262 0.237304 0.257494 0.135431
H56   H     H_    0.513350 0.122461 0.261418 0.165411
H57   H     H_    0.387632 0.225566 0.398236 0.118548
H58   H     H_    0.340937 0.155730 0.386507 0.149791
H59   H     H_    0.766171 0.799260 0.453540 0.149738
H60   H     H_    0.810743 0.774029 0.347351 0.146626
H61   H     H_    0.710686 0.745783 0.424019 0.136104
H62   H     H_    0.059667 0.704530 0.484760 0.122653
H63   H     H_    0.851325 0.614240 0.414971 0.169542
H64   H     H_    0.793108 0.627686 0.525173 0.149379
H65   H     H_    0.896615 0.688227 0.529504 0.147197
H66   H     H_    0.944783 0.714706 0.412067 0.136634
H67   H     H_    0.151905 0.116806 0.558229 0.184521
H68   H     H_    0.243222 0.125082 0.584148 0.146014
H69   H     H_    0.149455 0.094425 0.672456 0.132198
H70   H     H_    0.134583 0.251967 0.651221 0.149550
H71   H     H_    0.047537 0.244998 0.620985 0.155699
H72   H     H_    0.221686 0.291055 0.489779 0.123818
H73   H     H_    0.997940 0.277786 0.504556 0.136667
H74   H     H_    0.147992 0.269485 0.456744 0.143253
H75   H     H_    0.854120 0.527330 0.755024 0.163582
H76   H     H_    0.802799 0.527699 0.677773 0.143020
H77   H     H_    0.815994 0.630045 0.675578 0.146963
H78   H     H_    0.657230 0.622817 0.750810 0.158358
H79   H     H_    0.709843 0.628359 0.824041 0.177544
H80   H     H_    0.739189 0.467041 0.893798 0.131997
H81   H     H_    0.713126 0.449937 0.813134 0.152630
H82   H     H_    0.147253 0.619611 0.063174 0.184909
H83   H     H_    0.161703 0.670265 0.133029 0.140591
H84   H     H_    0.722445 0.485207 0.019184 0.124960
H85   H     H_    0.147566 0.735344 0.024274 0.127974
H86   H     H_    0.307095 0.685718 0.030561 0.154965
H87   H     H_    0.293112 0.648222 0.951444 0.155952
H88   H     H_    0.311654 0.538304 0.139186 0.148194
H89   H     H_    0.288155 0.495725 0.074771 0.151913
H90   H     H_    0.475624 0.665089 0.652434 0.140900
H91   H     H_    0.356727 0.687761 0.673812 0.142596
H92   H     H_    0.429378 0.681454 0.564149 0.148464
H93   H     H_    0.392433 0.824193 0.658261 0.152840
H94   H     H_    0.345369 0.839738 0.572573 0.169632
H95   H     H_    0.289152 0.527277 0.928274 0.131576
H96   H     H_    0.490240 0.821112 0.461983 0.142962
H97   H     H_    0.550789 0.778697 0.540628 0.133538
H98   H     H_    0.609711 0.271390 0.497783 0.151231
H99   H     H_    0.554021 0.346731 0.412681 0.147473
H100  H     H_    0.505096 0.354757 0.526095 0.136081
H101  H     H_    0.424755 0.278022 0.494677 0.145016
H102  H     H_    0.485852 0.202484 0.574130 0.172653
H103  H     H_    0.616035 0.158632 0.432477 0.140830
H104  H     H_    0.535215 0.216932 0.374696 0.130391
H105  H     H_    0.726332 0.401806 0.685237 0.145651
H106  H     H_    0.278113 0.000267 0.502217 0.121169
H107  H     H_    0.728671 0.287746 0.707791 0.137079
H108  H     H_    0.643148 0.377801 0.660950 0.147936
H109  H     H_    0.664617 0.330174 0.849163 0.152318
H110  H     H_    0.580981 0.313342 0.821040 0.161696
H111  H     H_    0.500734 0.465910 0.787861 0.138846
H112  H     H_    0.593714 0.505255 0.751621 0.137795
H113  H     H_    0.467189 0.522447 0.307974 0.149649
H114  H     H_    0.355437 0.533477 0.309590 0.143700
H115  H     H_    0.427086 0.424847 0.350942 0.141400
H116  H     H_    0.424939 0.433349 0.203921 0.158586
H117  H     H_    0.717098 0.018132 0.492253 0.118699
H118  H     H_    0.533284 0.432918 0.198029 0.156292
H119  H     H_    0.498923 0.593838 0.138416 0.157866
H120  H     H_    0.387312 0.610967 0.147976 0.125864
H121  H     H_    0.185669 0.389820 0.319779 0.163034
H122  H     H_    0.183448 0.466379 0.211556 0.155041
H123  H     H_    0.282349 0.420956 0.251424 0.117946
H124  H     H_    0.217729 0.575667 0.260788 0.130393
H125  H     H_    0.199502 0.505138 0.370117 0.164128
H126  H     H_    0.056443 0.596258 0.263484 0.119542
H127  H     H_    0.073898 0.645258 0.326769 0.107291
H128  H     H_    0.503437 0.289429 0.982936 0.123357
H129  H     H_    0.359294 0.490289 0.547584 0.136888
H130  H     H_    0.272963 0.472230 0.650445 0.158089
H131  H     H_    0.346558 0.379097 0.603341 0.151324
H132  H     H_    0.211222 0.543306 0.518817 0.172884
H133  H     H_    0.284826 0.451742 0.471248 0.143415
H134  H     H_    0.152741 0.416858 0.656768 0.139407
H135  H     H_    0.217723 0.344623 0.589469 0.131351
H136  H     H_    0.779013 0.163292 0.827947 0.126396
H137  H     H_    0.691720 0.110681 0.897059 0.197758
H138  H     H_    0.805475 0.053010 0.902447 0.115515
O1    O     O_R   0.124540 0.978640 0.385460 -0.504594
O2    O     O_R   0.124540 0.385460 0.978640 -0.510259
O3    O     O_R   0.021360 0.875460 0.614540 -0.518926
O4    O     O_R   0.978640 0.124540 0.385460 -0.504174
O5    O     O_R   0.013780 0.867370 0.487190 -0.514171
O6    O     O_R   0.986220 0.132630 0.512810 -0.520571
O7    O     O_R   0.867370 0.487190 0.013780 -0.523957
O8    O     O_R   0.132630 0.512810 0.986220 -0.517072
O9    O     O_R   0.487190 0.013780 0.867370 -0.516478
O10   O     O_R   0.512810 0.986220 0.132630 -0.512793
O11   O     O_R   0.512810 0.132630 0.986220 -0.528070
O12   O     O_R   0.875460 0.021360 0.614540 -0.526062
O13   O     O_R   0.487190 0.867370 0.013780 -0.514938
O14   O     O_R   0.986220 0.512810 0.132630 -0.521332
O15   O     O_R   0.013780 0.487190 0.867370 -0.523709
O16   O     O_R   0.132630 0.986220 0.512810 -0.521084
O17   O     O_R   0.867370 0.013780 0.487190 -0.525809
O18   O     O_R   0.978640 0.385460 0.124540 -0.509697
O19   O     O_R   0.021360 0.614540 0.875460 -0.512662
O20   O     O_R   0.385460 0.124540 0.978640 -0.503741
O21   O     O_R   0.614540 0.875460 0.021360 -0.515696
O22   O     O_R   0.614540 0.021360 0.875460 -0.510589
O23   O     O_R   0.385460 0.978640 0.124540 -0.509478
O24   O     O_R   0.875460 0.614540 0.021360 -0.527938

loop_
_geom_bond_atom_site_label_1
_geom_bond_atom_site_label_2
_ccdc_geom_bond_type
C13   O22   A    
C113  H110  S    
C106  H94   S    
Cu6   O11   S    
C116  H118  S    
C61   H128  S    
C65   C79   A    
Cu1   O5    S    
C40   C47   A    
C21   H32   S    
C36   C42   A    
C95   C96   S    
C78   C81   A    
C94   H59   S    
C57   C66   A    
C55   C56   A    
Cu2   O12   S    
C17   H27   S    
Cu5   O23   S    
C109  H101  S    
C45   C112  S    
C36   C50   A    
Cu3   Cu4   S    
C27   O13   A    
C46   C89   S    
C13   C65   S    
C85   C86   S    
C116  C117  S    
C28   O18   A    
C14   H19   S    
C93   C94   S    
C20   H34   S    
C34   C40   A    
C68   C81   A    
C89   H57   S    
C12   H21   S    
C31   O17   A    
C10   H10   S    
C71   C84   A    
C11   H9    S    
C101  H76   S    
C11   H7    S    
C74   C84   A    
C110  O7    A    
C9    H14   S    
Cu3   O15   S    
C50   C95   S    
C31   C73   S    
C54   C68   A    
C63   C76   A    
C31   O12   A    
C25   H38   S    
C12   H20   S    
C115  C116  S    
C2    O2    A    
C91   H52   S    
C60   C73   A    
C85   H50   S    
C108  C109  S    
C105  H96   S    
C32   C39   A    
C97   H67   S    
C118  C119  S    
C92   C93   S    
C7    H4    S    
C69   C82   A    
C70   C110  S    
C24   C67   S    
C43   C115  S    
C49   C98   S    
C107  H91   S    
C102  H88   S    
C107  H92   S    
Cu4   O8    S    
C107  H90   S    
C19   C20   S    
C117  H114  S    
C61   C77   A    
C16   C17   S    
C38   C45   A    
C20   H33   S    
C55   C63   A    
C4    H132  S    
Cu5   O20   S    
C34   C46   A    
C120  H121  S    
C57   C70   A    
C8    H138  S    
C18   H23   S    
C9    C10   S    
C103  H87   S    
C26   O20   A    
C58   C77   A    
C92   H65   S    
C13   O9    A    
C42   C51   A    
C56   H73   S    
C104  H82   S    
C106  H93   S    
Cu6   O10   S    
C24   O23   A    
C48   C102  S    
C33   C59   A    
C54   H62   S    
C37   C66   S    
C96   H71   S    
Cu1   O17   S    
C104  H83   S    
C19   C83   S    
C59   H106  S    
Cu1   O4    S    
C16   C82   S    
C112  C113  S    
C1    C60   A    
C109  H102  S    
Cu2   O3    S    
C33   C34   S    
C114  H107  S    
C116  H116  S    
C108  H103  S    
C33   C53   A    
C39   C108  S    
C14   H18   S    
C99   O4    A    
C29   C78   S    
C102  C103  S    
C111  H99   S    
C89   H58   S    
C90   H56   S    
C7    C8    S    
C120  H123  S    
C114  H108  S    
C101  H77   S    
C11   H8    S    
Cu1   O1    S    
C114  H105  S    
C62   C66   A    
C86   C87   S    
C42   C118  S    
C108  H104  S    
Cu4   O24   S    
C3    H135  S    
C95   H74   S    
C1    C32   S    
C44   C64   A    
C3    C4    S    
C53   H51   S    
C86   H48   S    
C9    C80   S    
C22   C84   S    
C97   H68   S    
C37   C43   A    
C96   H70   S    
C96   C97   S    
C70   C83   A    
C118  H127  S    
C119  H125  S    
C51   C92   S    
C27   O21   A    
C15   H16   S    
C37   C49   A    
C9    H12   S    
C88   O5    A    
C90   H55   S    
C45   C49   A    
C29   O19   A    
C87   H45   S    
C91   H54   S    
C16   H29   S    
C5    H131  S    
C17   C18   S    
C73   C79   A    
C30   O1    A    
C19   H37   S    
C2    C71   S    
C94   H61   S    
C8    H137  S    
C35   C44   S    
Cu1   Cu2   S    
C22   H44   S    
C35   C41   A    
C39   C46   A    
C15   H17   S    
C69   C99   S    
C6    H6    S    
C10   H11   S    
C12   C14   S    
C56   C69   A    
C4    H133  S    
C112  H112  S    
C10   C11   S    
Cu6   O22   S    
C16   H28   S    
Cu5   Cu6   S    
C68   C88   S    
C32   C47   A    
C23   H41   S    
C98   H81   S    
C119  H124  S    
C17   H26   S    
C52   H1    S    
C62   C75   A    
C76   C82   A    
C18   H25   S    
C28   C76   S    
C47   C85   S    
C41   C50   A    
C75   C83   A    
C64   C78   A    
C5    H130  S    
C58   H95   S    
C113  C114  S    
C43   C48   A    
Cu4   O19   S    
Cu3   O7    S    
C113  H109  S    
C57   H84   S    
C3    C41   S    
C60   H117  S    
Cu4   O14   S    
C93   H63   S    
C87   H35   S    
C62   H2    S    
C22   C23   S    
C111  H100  S    
C38   C48   A    
C67   C80   A    
C94   H60   S    
C21   H31   S    
C6    H5    S    
C27   C75   S    
Cu3   O18   S    
Cu2   O16   S    
C103  H86   S    
C30   C72   S    
C119  C120  S    
C88   O3    A    
C28   O14   A    
C6    C7    S    
C38   C77   S    
C63   H13   S    
C61   C74   A    
C29   O15   A    
C2    O8    A    
C105  C106  S    
C59   C72   A    
C99   O6    A    
C98   C100  S    
Cu5   O9    S    
C86   H47   S    
C25   H39   S    
C115  H120  S    
C109  C111  S    
C24   O10   A    
C72   C80   A    
C36   C55   S    
C118  H126  S    
C105  H97   S    
C35   C51   A    
C100  H78   S    
Cu3   O2    S    
C97   H69   S    
C90   C91   S    
C26   O11   A    
Cu5   O13   S    
C95   H72   S    
C87   H46   S    
C100  H79   S    
C100  C101  S    
C85   H49   S    
C21   H30   S    
C12   C81   S    
C111  H98   S    
C23   C25   S    
C5    H129  S    
C53   C67   A    
C1    C52   A    
C30   O16   A    
C7    H3    S    
C22   H43   S    
C58   C71   A    
Cu2   O6    S    
C18   H22   S    
C6    C79   S    
C23   H42   S    
C92   H66   S    
C102  H89   S    
C4    C5    S    
C110  O24   A    
C20   C21   S    
C117  H113  S    
C26   C74   S    
C112  H111  S    
C106  C107  S    
Cu6   O21   S    
C64   H24   S    
C103  C104  S    
C15   H15   S    
C14   C15   S    
C98   H80   S    
C101  H75   S    
C120  H122  S    
C104  H85   S    
C115  H119  S    
C89   C90   S    
C8    H136  S    
C19   H36   S    
C93   H64   S    
C52   C65   A    
C3    H134  S    
C25   H40   S    
C40   C105  S    
C91   H53   S    
C44   C54   A    
C117  H115  S    
