data_mof_unit_13581.cif
_audit_creation_date              2012-12-10T16:44:16-0500
_audit_creation_method            fapswitch 2.2
_symmetry_space_group_name_H-M    P1
_symmetry_Int_Tables_number       1
_space_group_crystal_system       triclinic
_cell_length_a                    7.469093
_cell_length_b                    8.688305
_cell_length_c                    13.414608
_cell_angle_alpha                 94.877444
_cell_angle_beta                  77.6054
_cell_angle_gamma                 103.312339
_cell_volume                      826.80756688

loop_
_atom_site_label
_atom_site_type_symbol
_atom_type_description
_atom_site_fract_x
_atom_site_fract_y
_atom_site_fract_z
_atom_type_partial_charge
C1    C     C_R   0.545119 0.800147 0.503581 0.855764
C2    C     C_R   0.438364 0.448674 0.966202 0.019529
C3    C     C_R   0.472262 0.520727 0.870836 -0.013737
C4    C     C_R   0.573769 0.497692 0.029129 0.092507
C5    C     C_R   0.753248 0.591244 0.989143 0.143900
C6    C     C_R   0.785389 0.658189 0.894684 -0.180181
C7    C     C_R   0.641872 0.633392 0.840513 -0.138923
C8    C     C_R   0.528039 0.473706 0.134014 -0.194521
C9    C     C_R   0.847846 0.590740 0.150850 -0.152075
C10   C     C_R   0.338666 0.475455 0.806481 -0.145126
C11   C     C_2   0.569606 0.968260 0.506267 -0.337504
C12   C     C_R   0.399507 0.494752 0.694661 0.803366
C13   C     C_2   0.429162 0.031642 0.495445 -0.348782
C14   C     C_R   0.454398 0.199822 0.497134 0.898739
C15   C     C_R   0.600995 0.509040 0.306051 0.816692
C16   C     C_R   0.892276 0.629047 0.048370 -0.174088
C17   C     C_R   0.662446 0.520694 0.195209 -0.057927
C18   C     C_R   0.159309 0.382901 0.845646 0.366374
C19   C     C_R   0.129996 0.308224 0.938039 -0.253962
C20   C     C_R   0.272985 0.328398 0.992766 0.113025
Cu1   Cu    Cu3+1 0.321300 0.483160 0.488710 1.029959
Cu2   Cu    Cu3+1 0.678700 0.516840 0.511290 1.003759
H1    H     H_    0.954184 0.627029 0.196856 0.176595
H2    H     H_    0.294203 0.959682 0.484915 0.183156
H3    H     H_    0.009184 0.616322 0.581263 0.202896
H4    H     H_    0.917294 0.738857 0.865941 0.144380
H5    H     H_    0.032029 0.695479 0.016998 0.158974
H6    H     H_    0.383454 0.430246 0.170221 0.196945
H7    H     H_    0.001000 0.221752 0.962489 0.173845
H8    H     H_    0.666310 0.703954 0.774347 0.153278
H9    H     H_    0.704261 0.040119 0.517231 0.197103
N1    N     N_2   0.947230 0.542220 0.528320 -0.174910
N2    N     N_2   0.052770 0.457780 0.471680 -0.003392
O1    O     O_R   0.383920 0.714220 0.492660 -0.599557
O2    O     O_R   0.685730 0.742660 0.511730 -0.593093
O3    O     O_R   0.275440 0.478800 0.636790 -0.536785
O4    O     O_R   0.577250 0.507240 0.655860 -0.594506
O5    O     O_R   0.314270 0.257340 0.488270 -0.563421
O6    O     O_R   0.616080 0.285780 0.507340 -0.555496
O7    O     O_R   0.422750 0.492760 0.344140 -0.571464
O8    O     O_R   0.724560 0.521200 0.363210 -0.563976
I1    I     I_    0.976252 0.297903 0.355645 -0.196073
O9    O     O_3   0.021115 0.353619 0.788215 -0.706005
H10   H     H_    0.904136 0.289127 0.827677 0.326548
I2    I     I_    0.245309 0.136021 0.088278 -0.401833

loop_
_geom_bond_atom_site_label_1
_geom_bond_atom_site_label_2
_ccdc_geom_bond_type
C2    C4    A    
O9    H10   S    
C6    C7    A    
C13   C14   S    
C14   O5    A    
C19   C20   A    
C8    C17   A    
C1    C11   S    
C4    C8    A    
N1    N2    D    
H3    N1    S    
C2    C3    A    
C11   H9    S    
C7    H8    S    
C18   O9    S    
Cu2   O2    S    
C11   C13   D    
C15   O8    A    
C6    H4    S    
Cu1   O7    S    
Cu2   N1    S    
C10   C18   A    
C3    C10   A    
N2    I1    S    
C10   C12   S    
C16   H5    S    
C9    C16   A    
C1    O1    A    
C3    C7    A    
C5    C6    A    
C8    H6    S    
C15   O7    A    
Cu2   O8    S    
C12   O3    A    
Cu2   O6    S    
C2    C20   A    
C19   H7    S    
Cu1   N2    S    
C1    O2    A    
C15   C17   S    
C18   C19   A    
C9    C17   A    
C12   O4    A    
Cu1   O3    S    
C9    H1    S    
C5    C16   A    
Cu1   O1    S    
C14   O6    A    
Cu1   Cu2   S    
Cu2   O4    S    
Cu1   O5    S    
C20   I2    S    
C13   H2    S    
C4    C5    A    
