data_mof_unit_41337.cif
_audit_creation_date              2013-03-05T15:42:28-0500
_audit_creation_method            fapswitch 2.2
_symmetry_space_group_name_H-M    P1
_symmetry_Int_Tables_number       1
_space_group_crystal_system       triclinic
_cell_length_a                    7.781822
_cell_length_b                    8.554605
_cell_length_c                    23.41174
_cell_angle_alpha                 91.406405
_cell_angle_beta                  85.198231
_cell_angle_gamma                 93.90438
_cell_volume                      1549.17630769

loop_
_atom_site_label
_atom_site_type_symbol
_atom_site_description
_atom_site_fract_x
_atom_site_fract_y
_atom_site_fract_z
_atom_type_partial_charge
O1    O     O_R   0.389250 0.738570 0.503790 -0.602084
O2    O     O_R   0.610750 0.261430 0.496210 -0.601978
O3    O     O_R   0.678390 0.711620 0.493890 -0.583279
O4    O     O_R   0.321610 0.288380 0.506110 -0.583287
C1    C     C_R   0.545875 0.794714 0.498458 0.946636
C2    C     C_R   0.454125 0.205285 0.501540 0.946780
O5    O     O_R   0.355400 0.513520 0.588790 -0.571742
O6    O     O_R   0.644600 0.486480 0.411210 -0.572139
O7    O     O_R   0.644550 0.486570 0.578900 -0.614480
O8    O     O_R   0.355450 0.513430 0.421100 -0.614431
C3    C     C_R   0.501296 0.501010 0.610683 0.889916
C4    C     C_R   0.498681 0.498913 0.389321 0.890024
Zn1   Zn    Zn3+2 0.306930 0.518000 0.506610 1.137590
Zn2   Zn    Zn3+2 0.693070 0.482000 0.493390 1.137545
C5    C     C_R   0.396454 0.378336 0.119919 0.581446
C6    C     C_R   0.604269 0.621024 0.880063 0.581518
N1    N     N_R   0.468838 0.503702 0.148290 -0.359775
N2    N     N_R   0.531809 0.495688 0.851695 -0.359807
C7    C     C_R   0.550785 0.629683 0.120496 0.548001
C8    C     C_R   0.449959 0.369666 0.879490 0.547978
C9    C     C_R   0.558510 0.635778 0.060378 -0.132379
C10   C     C_R   0.442341 0.363530 0.939605 -0.132350
C11   C     C_R   0.491960 0.502384 0.030149 -0.044656
C12   C     C_R   0.508903 0.496920 0.969833 -0.044665
C13   C     C_R   0.408741 0.373914 0.060177 -0.061200
C14   C     C_R   0.592096 0.625400 0.939805 -0.061244
C15   C     C_R   0.636213 0.766351 0.029390 0.315358
C16   C     C_R   0.364693 0.232936 0.970592 0.315344
C17   C     C_R   0.656020 0.757603 0.969697 -0.138379
C18   C     C_R   0.344868 0.241689 0.030285 -0.138370
O9    O     O_2   0.316121 0.257271 0.149687 -0.486744
O10   O     O_2   0.684539 0.742114 0.850293 -0.486551
O11   O     O_2   0.628866 0.744981 0.151311 -0.466682
O12   O     O_2   0.371847 0.254374 0.848680 -0.466635
H1    H     H_    0.716215 0.858044 0.946645 0.239101
H2    H     H_    0.284682 0.141245 0.053336 0.239103
C19   C     C_R   0.659712 0.437280 0.754849 0.200060
C20   C     C_R   0.340698 0.562464 0.245079 0.199991
C21   C     C_R   0.647347 0.438124 0.695811 -0.145167
C22   C     C_R   0.352849 0.561725 0.304131 -0.145024
H3    H     H_    0.747573 0.387956 0.667580 0.210979
H4    H     H_    0.252678 0.612128 0.332317 0.210723
C23   C     C_R   0.505881 0.500992 0.673026 -0.203542
C24   C     C_R   0.494078 0.498674 0.326985 -0.203471
C25   C     C_R   0.375432 0.565551 0.710247 0.283703
C26   C     C_R   0.624421 0.433742 0.289839 0.283811
C27   C     C_R   0.389487 0.566098 0.768997 -0.176464
C28   C     C_R   0.610650 0.433158 0.231080 -0.176588
H5    H     H_    0.289621 0.614351 0.797925 0.186686
H6    H     H_    0.710475 0.384609 0.202218 0.186572
C29   C     C_R   0.529083 0.501533 0.791158 0.230694
C30   C     C_R   0.471327 0.497956 0.208837 0.230737
C31   C     C_2   0.569861 0.958306 0.497048 -0.305926
C32   C     C_2   0.430138 0.041694 0.502947 -0.306160
H7    H     H_    0.701616 0.009426 0.490840 0.247164
H8    H     H_    0.298384 0.990574 0.509154 0.247111
N3    N     N_2   0.950330 0.457950 0.484560 0.042673
N4    N     N_2   0.049670 0.542050 0.515440 0.042839
N5    N     N_R   0.687373 0.911727 0.057040 0.245209
O13   O     O_R   0.572589 0.987463 0.088094 -0.327057
O14   O     O_R   0.835932 0.983816 0.041505 -0.329031
N6    N     N_R   0.313589 0.087545 0.942940 0.245220
O15   O     O_R   0.428383 0.011896 0.911857 -0.326920
O16   O     O_R   0.165093 0.015366 0.958494 -0.329029
C33   C     C_3   0.810177 0.367546 0.778923 -0.706794
H9    H     H_    0.882868 0.458670 0.803561 0.247090
H10   H     H_    0.762622 0.270060 0.807778 0.255918
H11   H     H_    0.900555 0.320333 0.744549 0.261363
C34   C     C_3   0.190460 0.632346 0.220921 -0.706862
H12   H     H_    0.238256 0.729798 0.192082 0.256029
H13   H     H_    0.117796 0.541286 0.196247 0.246991
H14   H     H_    0.099988 0.679628 0.255253 0.261228
N7    N     N_R   0.229593 0.632711 0.689512 0.229718
O17   O     O_R   0.100387 0.541153 0.674170 -0.360956
O18   O     O_R   0.208055 0.780903 0.698898 -0.312780
N8    N     N_R   0.769761 0.366083 0.310687 0.229981
O19   O     O_R   0.900138 0.457089 0.325427 -0.360680
O20   O     O_R   0.789206 0.217260 0.302191 -0.312861
N9    N     N_R   0.999526 0.306340 0.475314 0.304297
O21   O     O_R   0.970061 0.205644 0.516314 -0.366125
O22   O     O_R   0.035685 0.255991 0.423141 -0.308314
N10   N     N_R   0.000466 0.693655 0.524694 0.304265
O23   O     O_R   0.029912 0.794362 0.483698 -0.366166
O24   O     O_R   0.964361 0.743994 0.576872 -0.308619

loop_
_geom_bond_atom_site_label_1
_geom_bond_atom_site_label_2
_geom_bond_distance
_ccdc_geom_bond_type
C15   C17   1.393839 A    
N7    O17   1.301090 A    
N3    N9    1.384017 S    
C26   N8    1.431024 S    
C27   H5    1.083908 S    
C31   C32   1.336344 D    
O5    C3    1.296078 A    
O1    C1    1.276540 A    
C1    C31   1.400027 S    
C7    C9    1.405807 A    
N8    O20   1.300796 A    
N4    N10   1.384014 S    
C19   C29   1.402328 A    
C5    C13   1.393693 A    
C20   C30   1.402426 A    
C25   N7    1.431238 S    
C25   C27   1.388740 A    
O4    Zn1   1.975070 S    
C34   H13   1.110353 S    
N6    O16   1.301004 A    
C33   H10   1.110205 S    
C19   C33   1.505533 S    
C11   C12   1.407148 A    
C3    C23   1.462976 S    
C22   C24   1.406550 A    
C8    O12   1.348830 S    
C28   H6    1.083889 S    
C9    C15   1.419162 A    
C20   C34   1.505514 S    
N5    O13   1.301214 A    
C10   C16   1.419153 A    
N7    O18   1.300997 A    
O2    C2    1.276539 A    
C2    C32   1.400025 S    
N1    C30   1.421356 S    
C24   C26   1.413851 A    
N2    C29   1.421360 S    
C26   C28   1.388591 A    
C31   H7    1.086601 S    
C6    C14   1.393698 A    
C32   H8    1.086600 S    
N5    O14   1.301002 A    
N8    O19   1.300930 A    
O4    C2    1.287538 A    
C7    O11   1.348829 S    
N9    O22   1.299925 A    
C21   C23   1.406665 A    
Zn1   N4    2.019305 S    
C34   H14   1.110582 S    
O7    Zn2   2.005861 S    
N6    O15   1.301214 A    
O7    C3    1.298856 A    
O5    Zn1   1.993112 S    
O6    C4    1.296092 A    
C33   H11   1.110581 S    
C23   C25   1.414032 A    
O3    Zn2   1.975069 S    
O8    C4    1.298751 A    
C8    C10   1.405796 A    
C33   H9    1.110345 S    
N10   O24   1.299926 A    
C9    C11   1.418618 A    
C10   C12   1.418616 A    
O1    Zn1   1.951794 S    
C13   C18   1.399668 A    
C5    N1    1.361629 A    
Zn2   N3    2.019304 S    
O6    Zn2   1.993112 S    
C12   C14   1.409315 A    
O3    C1    1.287539 A    
O8    Zn1   2.005860 S    
C27   C29   1.394444 A    
C5    O9    1.350340 S    
C6    O10   1.350337 S    
C17   H1    1.083780 S    
C18   H2    1.083777 S    
C16   C18   1.393838 A    
C19   C21   1.393785 A    
C15   N5    1.435398 S    
C20   C22   1.393821 A    
N3    N4    1.276774 D    
C22   H4    1.083831 S    
N1    C7    1.364884 A    
N2    C8    1.364885 A    
C11   C13   1.409316 A    
C34   H12   1.110211 S    
O2    Zn2   1.951795 S    
N9    O21   1.301071 A    
C28   C30   1.394447 A    
C21   H3    1.083828 S    
C14   C17   1.399664 A    
C6    N2    1.361631 A    
N10   O23   1.301074 A    
C4    C24   1.462797 S    
C16   N6    1.435410 S    
