data_mof_unit_12377.cif
_audit_creation_date              2012-12-10T17:15:56-0500
_audit_creation_method            fapswitch 2.2
_symmetry_space_group_name_H-M    P1
_symmetry_Int_Tables_number       1
_space_group_crystal_system       triclinic
_cell_length_a                    10.204844
_cell_length_b                    10.625916
_cell_length_c                    10.805836
_cell_angle_alpha                 90.176343
_cell_angle_beta                  95.094059
_cell_angle_gamma                 81.237244
_cell_volume                      1153.42363661

loop_
_atom_site_label
_atom_site_type_symbol
_atom_type_description
_atom_site_fract_x
_atom_site_fract_y
_atom_site_fract_z
_atom_type_partial_charge
C1    C     C_R   0.444308 0.512073 0.267574 0.936285
C2    C     C_2   0.488152 0.545484 0.933949 -0.140144
C3    C     C_2   0.068428 0.491890 0.493823 0.044770
C4    C     C_R   0.500532 0.260631 0.502618 0.862592
C5    C     C_2   0.922498 0.511279 0.514137 0.151116
C6    C     C_R   0.555736 0.495414 0.732425 0.908640
C7    C     C_R   0.500722 0.739207 0.502554 0.856028
C8    C     C_R   0.658383 0.108625 0.700834 -0.176491
C9    C     C_R   0.733198 0.032150 0.794475 -0.129131
C10   C     C_R   0.731547 0.901410 0.795456 -0.125302
C11   C     C_R   0.655481 0.846670 0.702544 -0.195270
C12   C     C_R   0.581649 0.054340 0.605300 0.095337
C13   C     C_R   0.580999 0.922525 0.605705 0.092773
C14   C     C_R   0.502029 0.128110 0.510447 -0.090218
C15   C     C_R   0.420839 0.075678 0.420677 -0.210777
C16   C     C_R   0.421267 0.946923 0.420392 -0.198326
C17   C     C_R   0.502333 0.871330 0.510283 -0.091218
C18   C     C_2   0.413060 0.531144 0.135682 -0.375576
C19   C     C_2   0.512417 0.541676 0.066257 -0.150138
C20   C     C_2   0.587222 0.505128 0.864333 -0.388337
H1    H     H_    0.359248 0.134476 0.349349 0.145437
H2    H     H_    0.385960 0.572410 0.894138 0.192733
H3    H     H_    0.614726 0.537747 0.106153 0.188330
H4    H     H_    0.689117 0.478087 0.904624 0.149828
H5    H     H_    0.881473 0.689914 0.582359 0.231604
H6    H     H_    0.914315 0.570432 0.692723 0.212084
H7    H     H_    0.200232 0.671501 0.667115 0.373517
H8    H     H_    0.311081 0.534770 0.095222 0.152974
H9    H     H_    0.102196 0.422152 0.425420 0.067418
H10   H     H_    0.882382 0.386448 0.383700 0.130604
H11   H     H_    0.659995 0.210055 0.705035 0.144556
H12   H     H_    0.791477 0.074649 0.867196 0.136490
H13   H     H_    0.788447 0.842356 0.868954 0.139075
H14   H     H_    0.654258 0.745345 0.708247 0.148127
H15   H     H_    0.360022 0.905634 0.348826 0.151205
N1    N     N_2   0.157290 0.551390 0.551110 0.054375
N2    N     N_2   0.842740 0.448550 0.448960 -0.210736
N3    N     N_3   0.867574 0.597572 0.604831 -0.359654
O1    O     O_R   0.568950 0.489660 0.307530 -0.608394
O2    O     O_R   0.348880 0.522640 0.340350 -0.622817
O3    O     O_R   0.610060 0.300270 0.483590 -0.609945
O4    O     O_R   0.389990 0.333260 0.516410 -0.617540
O5    O     O_R   0.651120 0.477360 0.659650 -0.609906
O6    O     O_R   0.431050 0.510340 0.692470 -0.614330
O7    O     O_R   0.610010 0.666740 0.483590 -0.602538
O8    O     O_R   0.389940 0.699730 0.516410 -0.616090
O9    O     O_3   0.118144 0.638569 0.635407 -0.733741
Zn1   Zn    Zn3+2 0.646940 0.477980 0.478090 0.944156
Zn2   Zn    Zn3+2 0.353060 0.522020 0.521910 0.966563

loop_
_geom_bond_atom_site_label_1
_geom_bond_atom_site_label_2
_ccdc_geom_bond_type
O6    Zn2   S    
C2    H2    S    
C19   H3    S    
C5    N2    D    
H5    N3    S    
C6    C20   S    
C9    C10   A    
O1    Zn1   S    
C9    H12   S    
C13   C17   A    
C8    C12   A    
C10   C11   A    
C6    O6    A    
C5    N3    S    
N2    Zn1   S    
C11   C13   A    
O8    Zn2   S    
C1    C18   S    
C4    O4    A    
C3    N1    D    
C7    O7    A    
O3    Zn1   S    
C12   C14   A    
C10   H13   S    
C6    O5    A    
C16   H15   S    
C4    C14   S    
C4    O3    A    
C1    O1    A    
O4    Zn2   S    
C2    C20   D    
O2    Zn2   S    
C7    O8    A    
C20   H4    S    
C15   H1    S    
C18   H8    S    
C12   C13   A    
N1    O9    S    
C18   C19   D    
O5    Zn1   S    
O7    Zn1   S    
H7    O9    S    
C3    H9    S    
C14   C15   A    
C8    C9    A    
C1    O2    A    
C7    C17   S    
C2    C19   S    
C8    H11   S    
C11   H14   S    
H6    N3    S    
N1    Zn2   S    
C15   C16   A    
H10   N2    S    
C16   C17   A    
C3    C5    S    
