data_mof_unit_43920.cif
_audit_creation_date              2012-12-10T17:10:29-0500
_audit_creation_method            fapswitch 2.2
_symmetry_space_group_name_H-M    P1
_symmetry_Int_Tables_number       1
_space_group_crystal_system       triclinic
_cell_length_a                    10.742645
_cell_length_b                    13.000525
_cell_length_c                    11.623156
_cell_angle_alpha                 99.933485
_cell_angle_beta                  92.505247
_cell_angle_gamma                 90.25238
_cell_volume                      1597.30905455

loop_
_atom_site_label
_atom_site_type_symbol
_atom_type_description
_atom_site_fract_x
_atom_site_fract_y
_atom_site_fract_z
_atom_type_partial_charge
C1    C     C_R   0.498082 0.298984 0.478584 0.805954
C2    C     C_R   0.489504 0.860606 0.433823 -0.268364
C3    C     C_R   0.508083 0.031358 0.555916 0.177203
C4    C     C_R   0.491919 0.968642 0.444084 0.177203
C5    C     C_R   0.372479 0.411600 0.025071 -0.353267
C6    C     C_R   0.627521 0.588399 0.974929 -0.353266
C7    C     C_R   0.386110 0.418776 0.146846 0.085465
C8    C     C_R   0.613890 0.581224 0.853154 0.085465
C9    C     C_R   0.556607 0.536726 0.155292 -0.002740
C10   C     C_R   0.443392 0.463274 0.844707 -0.002741
C11   C     C_R   0.546754 0.531692 0.032903 0.070766
C12   C     C_R   0.501919 0.701016 0.521416 0.805953
C13   C     C_R   0.453246 0.468308 0.967097 0.070766
C14   C     C_R   0.262236 0.513042 0.503498 0.827940
C15   C     C_R   0.737764 0.486957 0.496502 0.827941
C16   C     C_R   0.119267 0.532635 0.723920 -0.142619
C17   C     C_R   0.880733 0.467361 0.276079 -0.142620
C18   C     C_R   0.065634 0.496809 0.816685 -0.222839
C19   C     C_R   0.934367 0.503185 0.183314 -0.222839
C20   C     C_R   0.959546 0.433758 0.796457 -0.152387
C21   C     C_R   0.040455 0.566235 0.203541 -0.152389
C22   C     C_R   0.899868 0.413441 0.685139 0.219384
C23   C     C_R   0.503296 0.814404 0.533805 -0.051970
C24   C     C_R   0.100132 0.586554 0.314858 0.219385
C25   C     C_R   0.944496 0.463257 0.594167 0.070954
C26   C     C_R   0.055503 0.536741 0.405832 0.070953
C27   C     C_R   0.064743 0.508796 0.609315 0.042297
C28   C     C_R   0.935256 0.491202 0.390684 0.042297
C29   C     C_R   0.873916 0.470034 0.489936 -0.226748
C30   C     C_R   0.126083 0.529965 0.510064 -0.226749
C31   C     C_3   0.800769 0.328772 0.664594 -0.833543
C32   C     C_3   0.199229 0.671225 0.335402 -0.833540
C33   C     C_R   0.496705 0.185596 0.466195 -0.051969
C34   C     C_R   0.478563 0.014915 0.344257 -0.216904
C35   C     C_R   0.521439 0.985085 0.655743 -0.216905
C36   C     C_R   0.480992 0.123041 0.355246 -0.197279
C37   C     C_R   0.519009 0.876959 0.644754 -0.197279
C38   C     C_R   0.510498 0.139394 0.566177 -0.268364
Cu1   Cu    Cu3+1 0.509250 0.507730 0.615930 0.922712
Cu2   Cu    Cu3+1 0.490750 0.492270 0.384070 0.922713
H1    H     H_    0.075384 0.600660 0.132587 0.135739
H2    H     H_    0.523045 0.187271 0.652126 0.153804
H3    H     H_    0.529874 0.842438 0.722955 0.156363
H4    H     H_    0.470126 0.157562 0.277045 0.156363
H5    H     H_    0.466152 0.967632 0.258047 0.134409
H6    H     H_    0.533849 0.032368 0.741953 0.134409
H7    H     H_    0.372501 0.414305 0.792815 0.134057
H8    H     H_    0.627499 0.585695 0.207185 0.134057
H9    H     H_    0.676504 0.625039 0.808880 0.134918
H10   H     H_    0.323496 0.374960 0.191120 0.134918
H11   H     H_    0.838431 0.257077 0.692482 0.213334
H12   H     H_    0.924618 0.399331 0.867409 0.135739
H13   H     H_    0.719138 0.354027 0.717283 0.254309
H14   H     H_    0.770874 0.306794 0.571034 0.214156
H15   H     H_    0.161564 0.742919 0.307516 0.213334
H16   H     H_    0.229126 0.693203 0.428963 0.214156
H17   H     H_    0.280860 0.645973 0.282712 0.254307
H18   H     H_    0.299453 0.362296 0.976842 0.141577
H19   H     H_    0.700547 0.637704 0.023158 0.141577
H20   H     H_    0.201084 0.582241 0.743960 0.163602
H21   H     H_    0.798915 0.417756 0.256041 0.163601
H22   H     H_    0.109393 0.514551 0.903625 0.143795
H23   H     H_    0.890608 0.485442 0.096373 0.143796
H24   H     H_    0.476957 0.812729 0.347874 0.153804
N1    N     N_R   0.523180 0.519350 0.790130 -0.187117
N2    N     N_R   0.476820 0.480650 0.209870 -0.187117
O1    O     O_R   0.506570 0.354460 0.582000 -0.592279
O2    O     O_R   0.493430 0.645540 0.418000 -0.592278
O3    O     O_R   0.490940 0.341410 0.386200 -0.592044
O4    O     O_R   0.509060 0.658590 0.613800 -0.592044
O5    O     O_R   0.327470 0.506520 0.597900 -0.590517
O6    O     O_R   0.672530 0.493480 0.402100 -0.590518
O7    O     O_R   0.311840 0.493460 0.402100 -0.572121
O8    O     O_R   0.688160 0.506540 0.597900 -0.572122

loop_
_geom_bond_atom_site_label_1
_geom_bond_atom_site_label_2
_ccdc_geom_bond_type
C14   O5    A    
C1    C33   S    
C15   O6    A    
C12   O2    A    
C12   C23   S    
C5    H18   S    
C28   C29   A    
C35   C37   A    
C24   C26   A    
C38   H2    S    
C33   C36   A    
Cu2   O7    S    
C18   C20   A    
C16   H20   S    
Cu1   O8    S    
C9    N2    A    
C17   C19   A    
C3    C38   A    
C19   H23   S    
C22   C25   A    
C32   H15   S    
C5    C13   A    
C17   H21   S    
C16   C27   A    
C8    N1    A    
Cu2   N2    S    
C27   C30   A    
Cu1   N1    S    
C32   H17   S    
C14   C30   S    
C2    H24   S    
C15   C29   S    
C25   C29   A    
C4    C34   A    
C22   C31   S    
C14   O7    A    
Cu2   O3    S    
C6    C11   A    
C5    C7    A    
C18   H22   S    
C6    C8    A    
C23   C37   A    
C1    O3    A    
C37   H3    S    
C2    C4    A    
C24   C32   S    
C3    C35   A    
C34   H5    S    
C31   H13   S    
C9    C11   A    
C21   H1    S    
C20   C22   A    
C26   C30   A    
C36   H4    S    
C3    C4    A    
C10   H7    S    
C10   N1    A    
C12   O4    A    
Cu2   O6    S    
C19   C21   A    
C17   C28   A    
Cu1   O1    S    
C6    H19   S    
C7    H10   S    
C31   H11   S    
C10   C13   A    
C25   C27   A    
C26   C28   A    
C33   C38   A    
C20   H12   S    
C7    N2    A    
C11   C13   A    
C1    O1    A    
Cu1   O4    S    
C34   C36   A    
C31   H14   S    
Cu1   Cu2   S    
C15   O8    A    
C9    H8    S    
C16   C18   A    
Cu2   O2    S    
C21   C24   A    
C2    C23   A    
Cu1   O5    S    
C35   H6    S    
C8    H9    S    
C32   H16   S    
