data_mof_unit_5332.cif
_audit_creation_date              2012-12-10T17:03:45-0500
_audit_creation_method            fapswitch 2.2
_symmetry_space_group_name_H-M    P1
_symmetry_Int_Tables_number       1
_space_group_crystal_system       triclinic
_cell_length_a                    10.08082
_cell_length_b                    10.74468
_cell_length_c                    13.090565
_cell_angle_alpha                 90.299988
_cell_angle_beta                  69.903003
_cell_angle_gamma                 90.267175
_cell_volume                      1331.54937944

loop_
_atom_site_label
_atom_site_type_symbol
_atom_type_description
_atom_site_fract_x
_atom_site_fract_y
_atom_site_fract_z
_atom_type_partial_charge
C1    C     C_R   0.499458 0.737122 0.502128 0.915589
C2    C     C_R   0.368671 0.510481 0.823052 -0.120569
C3    C     C_2   0.612852 0.067275 0.497981 -0.153667
C4    C     C_R   0.420915 0.504602 0.704294 0.856059
C5    C     C_2   0.505686 0.131164 0.486243 -0.338039
C6    C     C_2   0.615451 0.933286 0.491618 -0.172654
C7    C     C_2   0.495915 0.868745 0.511413 -0.330145
C8    C     C_2   0.113624 0.491967 0.412653 -0.145633
C9    C     C_2   0.964401 0.469697 0.416915 -0.037500
C10   C     C_R   0.501048 0.262819 0.497312 0.936408
C11   C     C_R   0.579248 0.504931 0.295672 0.890819
C12   C     C_R   0.433562 0.521177 0.984912 0.118093
C13   C     C_R   0.772028 0.636806 0.013917 0.200635
C14   C     C_R   0.628867 0.528374 0.178462 -0.121679
C15   C     C_R   0.241342 0.451261 0.881902 -0.196415
C16   C     C_R   0.206541 0.432127 0.992974 -0.155978
C17   C     C_R   0.303064 0.463120 0.043923 -0.193176
C18   C     C_3   0.843160 0.652355 0.182861 -0.861423
C19   C     C_3   0.862541 0.590320 0.578449 -0.597233
C20   C     C_3   0.912923 0.690971 0.943701 -0.946427
C21   C     C_R   0.455838 0.558974 0.877699 0.096915
C22   C     C_R   0.542657 0.543298 0.028205 0.040049
C23   C     C_R   0.662321 0.616992 0.970556 0.113302
C24   C     C_R   0.667073 0.671960 0.872453 -0.244941
C25   C     C_R   0.565203 0.643520 0.827045 -0.213334
C26   C     C_R   0.537075 0.490562 0.126060 -0.318387
C27   C     C_R   0.748419 0.602986 0.123370 0.166421
H1    H     H_    0.420930 0.088038 0.465369 0.151901
H2    H     H_    0.271380 0.443433 0.129691 0.120242
H3    H     H_    0.107366 0.387813 0.038782 0.145692
H4    H     H_    0.571516 0.689152 0.752063 0.152084
H5    H     H_    0.701431 0.113305 0.511816 0.175168
H6    H     H_    0.778434 0.698763 0.259677 0.246496
H7    H     H_    0.904014 0.574752 0.200751 0.239554
H8    H     H_    0.918595 0.724608 0.137217 0.239282
H9    H     H_    0.770024 0.652020 0.600549 0.232800
H10   H     H_    0.860335 0.543351 0.654325 0.183909
H11   H     H_    0.954211 0.654356 0.546554 0.182648
H12   H     H_    0.717264 0.887699 0.471968 0.171017
H13   H     H_    0.940201 0.661540 0.857536 0.235158
H14   H     H_    0.909840 0.794097 0.949292 0.245576
H15   H     H_    0.000795 0.654863 0.967810 0.261483
H16   H     H_    0.392309 0.911327 0.537303 0.152447
H17   H     H_    0.195345 0.498886 0.333405 0.159019
H18   H     H_    0.075103 0.467400 0.570088 0.185560
H19   H     H_    0.950045 0.428507 0.345604 0.114533
H20   H     H_    0.748842 0.737530 0.829802 0.162181
H21   H     H_    0.455779 0.424123 0.166957 0.162147
H22   H     H_    0.171178 0.416274 0.841521 0.159351
N1    N     N_2   0.148270 0.498670 0.498870 -0.195038
N2    N     N_2   0.852610 0.498640 0.498840 -0.045894
O1    O     O_R   0.386950 0.680940 0.500020 -0.603765
O2    O     O_R   0.613110 0.680900 0.499980 -0.632579
O3    O     O_R   0.330780 0.500000 0.653640 -0.615303
O4    O     O_R   0.556930 0.499960 0.653610 -0.599725
O5    O     O_R   0.386890 0.319100 0.500020 -0.612441
O6    O     O_R   0.613050 0.319060 0.499980 -0.603387
O7    O     O_R   0.443070 0.500040 0.346390 -0.613291
O8    O     O_R   0.669220 0.500000 0.346360 -0.611706
Zn1   Zn    Zn3+2 0.349000 0.500030 0.500020 0.933779
Zn2   Zn    Zn3+2 0.651000 0.499970 0.499980 0.934012

loop_
_geom_bond_atom_site_label_1
_geom_bond_atom_site_label_2
_ccdc_geom_bond_type
C12   C17   A    
C25   H4    S    
C20   H15   S    
C23   C24   A    
O6    Zn2   S    
C6    C7    D    
C19   H11   S    
C19   N2    S    
C14   C27   A    
C11   O7    A    
C10   O5    A    
C18   H8    S    
C2    C4    S    
C9    N2    D    
C26   H21   S    
C3    C6    S    
N1    Zn1   S    
C2    C21   A    
C20   H14   S    
C5    C10   S    
O3    Zn1   S    
C14   C26   A    
C2    C15   A    
C18   H7    S    
C8    H17   S    
C16   C17   A    
O2    Zn2   S    
H18   N1    S    
C11   O8    A    
O4    Zn2   S    
C18   H6    S    
C8    N1    D    
C7    H16   S    
C19   H9    S    
C15   H22   S    
C4    O4    A    
C3    H5    S    
C20   H13   S    
C1    O1    A    
O8    Zn2   S    
C19   H10   S    
C16   H3    S    
C15   C16   A    
C5    H1    S    
C12   C22   A    
C9    H19   S    
C10   O6    A    
C17   H2    S    
C24   C25   A    
C13   C23   A    
C22   C26   A    
C11   C14   S    
C21   C25   A    
C6    H12   S    
C13   C27   A    
C1    O2    A    
O1    Zn1   S    
C13   C20   S    
C4    O3    A    
C1    C7    S    
C24   H20   S    
O7    Zn1   S    
C12   C21   A    
C22   C23   A    
C18   C27   S    
O5    Zn1   S    
C8    C9    S    
C3    C5    D    
N2    Zn2   S    
