data_mof_unit_16292.cif
_audit_creation_date              2012-12-11T15:57:50-0500
_audit_creation_method            fapswitch 2.2
_symmetry_space_group_name_H-M    P1
_symmetry_Int_Tables_number       1
_space_group_crystal_system       triclinic
_cell_length_a                    10.696965
_cell_length_b                    10.815067
_cell_length_c                    16.95313
_cell_angle_alpha                 99.594246
_cell_angle_beta                  99.477275
_cell_angle_gamma                 61.209991
_cell_volume                      1686.70505814

loop_
_atom_site_label
_atom_site_type_symbol
_atom_type_description
_atom_site_fract_x
_atom_site_fract_y
_atom_site_fract_z
_atom_type_partial_charge
C1    C     C_R   0.353701 0.776563 0.402153 0.577950
C2    C     C_2   0.262352 0.251357 0.792906 -0.117835
C3    C     C_2   0.360469 0.155956 0.743294 0.049540
C4    C     C_R   0.369054 0.346273 0.357361 0.550245
C5    C     C_2   0.349955 0.185351 0.659914 -0.037984
C6    C     C_1   0.817371 0.342313 0.708677 -0.026112
C7    C     C_1   0.844240 0.313626 0.776404 -0.022454
C8    C     C_1   0.359198 0.761751 0.713690 -0.016079
C9    C     C_1   0.326712 0.809427 0.780758 -0.013509
C10   C     C_R   0.894475 0.307610 0.086876 0.543310
C11   C     C_R   0.319291 0.299853 0.119596 0.557354
C12   C     C_2   0.830039 0.328253 0.159721 -0.007466
C13   C     C_R   0.292803 0.894494 0.085287 0.549127
C14   C     C_R   0.885758 0.296965 0.858722 0.545627
C15   C     C_R   0.272869 0.245690 0.879418 0.583793
C16   C     C_R   0.779113 0.375589 0.406261 0.556671
C17   C     C_R   0.281029 0.880312 0.857413 0.550370
C18   C     C_R   0.381904 0.712892 0.631313 0.555480
C19   C     C_R   0.365459 0.346023 0.580335 0.542380
C20   C     C_R   0.772995 0.381279 0.629575 0.535723
C21   C     C_1   0.342675 0.336191 0.273945 -0.034478
C22   C     C_1   0.331525 0.326609 0.202953 -0.034112
C23   C     C_2   0.875269 0.214526 0.200558 -0.173637
C24   C     C_2   0.860871 0.323047 0.337469 -0.100668
C25   C     C_1   0.407453 0.067606 0.598490 0.267446
C26   C     C_1   0.732963 0.470902 0.189899 0.207867
C27   C     C_2   0.843434 0.227247 0.282328 -0.167312
C28   C     C_2   0.324015 0.856752 0.334777 -0.111963
C29   C     C_2   0.338095 0.838808 0.162872 -0.088391
C30   C     C_2   0.410761 0.888260 0.220209 -0.131310
C31   C     C_2   0.430070 0.858277 0.303519 -0.132266
C32   C     C_2   0.311105 0.318104 0.644871 -0.130181
Cr1   Cr    Cr6+3 0.608020 0.610770 0.522990 1.074172
Cr2   Cr    Cr6+3 0.289390 0.599570 0.488050 1.039607
Cr3   Cr    Cr6+3 0.602610 0.289690 0.489020 1.041912
Cr4   Cr    Cr6+3 0.053780 0.052210 0.965970 1.049909
Cr5   Cr    Cr6+3 0.060060 0.372530 0.992430 1.047954
Cr6   Cr    Cr6+3 0.372600 0.061970 0.991430 1.058161
H1    H     H_    0.942848 0.107697 0.174682 0.156112
H2    H     H_    0.165917 0.338377 0.768067 0.085098
H3    H     H_    0.261881 0.407984 0.689094 0.098991
H4    H     H_    0.794579 0.165479 0.294541 0.166384
H5    H     H_    0.913802 0.380604 0.324449 0.122095
H6    H     H_    0.456878 0.951344 0.206312 0.162055
H7    H     H_    0.535375 0.826144 0.336321 0.178312
H8    H     H_    0.294321 0.773779 0.176986 0.113635
H9    H     H_    0.217671 0.895210 0.302366 0.105979
I1    I     I_    0.553806 0.973158 0.779635 -0.282735
N1    N     N_1   0.453788 0.975150 0.548726 -0.247607
N2    N     N_1   0.655945 0.584907 0.214272 -0.308357
O1    O     O_R   0.749250 0.499990 0.439200 -0.503162
O2    O     O_R   0.411120 0.181190 0.091480 -0.510326
O3    O     O_R   0.364220 0.944920 0.062310 -0.494931
O4    O     O_R   0.477870 0.725740 0.440280 -0.469753
O5    O     O_R   0.158740 0.906940 0.874970 -0.496522
O6    O     O_R   0.930920 0.176940 0.885610 -0.483552
O7    O     O_R   0.910730 0.394510 0.895320 -0.513243
O8    O     O_R   0.185840 0.361180 0.920280 -0.494291
O9    O     O_R   0.399210 0.173040 0.915160 -0.464167
O10   O     O_R   0.353170 0.937370 0.898860 -0.494818
O11   O     O_3   0.162150 0.162240 0.983280 -0.297677
O12   O     O_R   0.299400 0.468710 0.556310 -0.513539
O13   O     O_R   0.260770 0.742210 0.412610 -0.509724
O14   O     O_R   0.297990 0.466320 0.394220 -0.496064
O15   O     O_R   0.487720 0.253870 0.385870 -0.510621
O16   O     O_R   0.721940 0.304340 0.422320 -0.499287
O17   O     O_R   0.750770 0.502570 0.614050 -0.503435
O18   O     O_R   0.479280 0.728140 0.602370 -0.457472
O19   O     O_R   0.262290 0.744790 0.587460 -0.502834
O20   O     O_R   0.489240 0.256450 0.560730 -0.487756
O21   O     O_R   0.723350 0.306730 0.584410 -0.495867
O22   O     O_3   0.500010 0.500010 0.500020 -0.284896
O23   O     O_R   0.170650 0.915100 0.051290 -0.513190
O24   O     O_R   0.941960 0.184500 0.049060 -0.502308
O25   O     O_R   0.922640 0.402670 0.071640 -0.498897
O26   O     O_R   0.196880 0.368740 0.083740 -0.490471

loop_
_geom_bond_atom_site_label_1
_geom_bond_atom_site_label_2
_ccdc_geom_bond_type
C14   O6    A    
C28   H9    S    
C20   O17   A    
C24   C27   D    
C12   C23   D    
C13   C29   S    
C11   O26   A    
C26   N2    T    
C4    O15   A    
Cr6   O2    S    
Cr3   O15   S    
C19   O12   A    
C18   O18   A    
C3    I1    S    
Cr2   O12   S    
C11   O2    A    
Cr1   O22   S    
C7    C14   S    
Cr3   O20   S    
C8    C9    T    
C1    C28   S    
C32   H3    S    
C16   O1    A    
C20   O21   A    
C23   C27   S    
C17   O5    A    
Cr5   O8    S    
C5    C32   D    
C18   O19   A    
Cr5   O25   S    
Cr3   O21   S    
C16   C24   S    
C21   C22   T    
C30   H6    S    
C19   C32   S    
C1    O13   A    
C13   O3    A    
Cr3   O16   S    
C8    C18   S    
C12   C26   S    
C1    O4    A    
C29   C30   D    
Cr4   O6    S    
C10   O25   A    
Cr2   O14   S    
C2    C15   S    
Cr2   O19   S    
C10   C12   S    
C5    C25   S    
C9    C17   S    
Cr5   O26   S    
C13   O23   A    
Cr3   O22   S    
C15   O8    A    
Cr6   O10   S    
C16   O16   A    
Cr4   O11   S    
Cr2   O22   S    
Cr1   O17   S    
Cr1   O4    S    
C14   O7    A    
Cr4   O24   S    
C15   O9    A    
C28   C31   D    
C3    C5    S    
Cr5   O11   S    
C6    C7    T    
Cr1   O1    S    
C6    C20   S    
C4    O14   A    
C11   C22   S    
C29   H8    S    
Cr6   O11   S    
C2    C3    D    
Cr4   O5    S    
C4    C21   S    
C10   O24   A    
C27   H4    S    
C30   C31   S    
Cr6   O3    S    
C23   H1    S    
Cr2   O13   S    
C25   N1    T    
Cr4   O23   S    
C17   O10   A    
Cr6   O9    S    
C2    H2    S    
C31   H7    S    
C24   H5    S    
C19   O20   A    
Cr5   O7    S    
Cr1   O18   S    
