data_mof_unit_64333.cif
_audit_creation_date              2013-03-05T17:02:49-0500
_audit_creation_method            fapswitch 2.2
_symmetry_space_group_name_H-M    P1
_symmetry_Int_Tables_number       1
_space_group_crystal_system       triclinic
_cell_length_a                    16.090527
_cell_length_b                    16.841478
_cell_length_c                    23.161121
_cell_angle_alpha                 90.273954
_cell_angle_beta                  92.18956
_cell_angle_gamma                 86.616144
_cell_volume                      6260.85438501

loop_
_atom_site_label
_atom_site_type_symbol
_atom_site_description
_atom_site_fract_x
_atom_site_fract_y
_atom_site_fract_z
_atom_type_partial_charge
O1    O     O_R   0.422540 0.612660 0.497490 -0.611226
O2    O     O_R   0.577460 0.387340 0.502510 -0.602146
O3    O     O_R   0.561840 0.618900 0.501990 -0.608314
O4    O     O_R   0.438160 0.381100 0.498010 -0.623659
C1    C     C_R   0.487917 0.652554 0.500416 0.943166
C2    C     C_R   0.511950 0.347252 0.499167 0.952603
O5    O     O_R   0.430330 0.496900 0.581600 -0.614116
O6    O     O_R   0.569670 0.503100 0.418400 -0.634496
O7    O     O_R   0.569640 0.503140 0.586090 -0.632731
O8    O     O_R   0.430360 0.496860 0.413910 -0.614045
C3    C     C_R   0.499693 0.499941 0.611008 0.867900
C4    C     C_R   0.500119 0.501716 0.388775 0.876900
Zn1   Zn    Zn3+2 0.406980 0.495830 0.497000 0.954200
Zn2   Zn    Zn3+2 0.593020 0.504170 0.503000 0.948756
C5    C     C_R   0.413107 0.523355 0.116676 0.505347
C6    C     C_R   0.525446 0.614622 0.879374 0.503145
N1    N     N_R   0.471706 0.563516 0.147470 -0.350760
N2    N     N_R   0.472438 0.567836 0.849138 -0.354085
C7    C     C_R   0.523833 0.612200 0.121105 0.505229
C8    C     C_R   0.412499 0.528308 0.875414 0.506927
C9    C     C_R   0.521274 0.618652 0.060857 -0.018049
C10   C     C_R   0.406873 0.531543 0.935388 -0.019103
C11   C     C_R   0.463321 0.575494 0.028412 -0.021687
C12   C     C_R   0.463379 0.576518 0.967712 -0.021481
C13   C     C_R   0.407244 0.529021 0.056507 -0.014976
C14   C     C_R   0.521925 0.620143 0.939536 -0.016893
C15   C     C_R   0.576835 0.664860 0.032359 -0.160674
C16   C     C_R   0.348704 0.488357 0.963780 -0.161673
C17   C     C_R   0.577298 0.665444 0.972194 -0.161684
C18   C     C_R   0.349023 0.486946 0.023857 -0.160672
O9    O     O_2   0.362353 0.476250 0.144166 -0.567108
O10   O     O_2   0.582208 0.654176 0.851332 -0.563151
O11   O     O_2   0.578552 0.653283 0.153141 -0.557311
O12   O     O_2   0.360194 0.484271 0.843588 -0.555482
H1    H     H_    0.621507 0.699025 0.056408 0.191570
H2    H     H_    0.304300 0.453848 0.939763 0.191564
H3    H     H_    0.622322 0.699995 0.951457 0.190709
H4    H     H_    0.304798 0.451425 0.044560 0.191492
C19   C     C_R   0.543774 0.495700 0.772375 -0.131534
C20   C     C_R   0.555561 0.512503 0.231023 -0.094818
H5    H     H_    0.583284 0.465068 0.805151 0.136327
H6    H     H_    0.604261 0.497065 0.201415 0.155962
C21   C     C_R   0.550618 0.474759 0.714119 0.128017
C22   C     C_R   0.565422 0.494821 0.290299 0.122960
C23   C     C_R   0.496458 0.514982 0.672812 -0.065184
C24   C     C_R   0.497508 0.515403 0.326136 -0.110008
C25   C     C_R   0.437394 0.574006 0.690502 -0.270317
C26   C     C_R   0.424064 0.553575 0.302264 -0.202623
H7    H     H_    0.396114 0.605622 0.659203 0.150137
H8    H     H_    0.372195 0.571087 0.328951 0.179168
C27   C     C_R   0.431110 0.593290 0.748427 -0.097643
C28   C     C_R   0.416558 0.571341 0.244063 -0.099121
H9    H     H_    0.384402 0.637868 0.761756 0.142008
H10   H     H_    0.359541 0.600832 0.226519 0.154590
C29   C     C_R   0.484062 0.554024 0.789259 0.289220
C30   C     C_R   0.481771 0.550279 0.208275 0.255812
C31   C     C_R   0.476942 0.738058 0.502294 -0.189325
C32   C     C_R   0.521905 0.261314 0.497782 -0.175296
C33   C     C_R   0.512239 0.781438 0.548433 0.049668
C34   C     C_R   0.479458 0.217313 0.454931 0.065880
C35   C     C_R   0.504229 0.864053 0.546389 -0.178558
C36   C     C_R   0.483999 0.134875 0.459132 -0.196201
C37   C     C_R   0.462917 0.902875 0.499013 0.218491
C38   C     C_R   0.528825 0.096468 0.505325 0.225918
C39   C     C_R   0.423130 0.859505 0.456056 -0.290847
C40   C     C_R   0.575571 0.139936 0.544518 -0.295198
C41   C     C_R   0.428771 0.776735 0.457646 0.477853
C42   C     C_R   0.573776 0.222536 0.540565 0.469443
N3    N     N_2   0.463660 0.985542 0.491802 -0.173458
N4    N     N_2   0.527104 0.013982 0.513942 -0.169326
H11   H     H_    0.451573 0.100396 0.426733 0.160428
H12   H     H_    0.531670 0.898227 0.581206 0.165539
H13   H     H_    0.391454 0.890097 0.419720 0.164021
H14   H     H_    0.610523 0.109774 0.579709 0.162144
N5    N     N_R   0.716910 0.509720 0.507000 -0.085135
N6    N     N_R   0.283090 0.490280 0.493000 -0.089048
C43   C     C_R   0.763371 0.467805 0.468002 -0.028345
C44   C     C_R   0.236844 0.531013 0.532726 -0.014512
C45   C     C_R   0.850563 0.469442 0.470028 -0.268170
C46   C     C_R   0.149614 0.529534 0.530724 -0.269035
C47   C     C_R   0.890864 0.514524 0.513151 0.331667
C48   C     C_R   0.109103 0.485576 0.487048 0.328461
C49   C     C_R   0.841169 0.556292 0.552957 -0.299913
C50   C     C_R   0.158607 0.444543 0.446785 -0.297073
C51   C     C_R   0.754229 0.552955 0.549326 -0.004506
C52   C     C_R   0.245564 0.447699 0.450362 -0.000771
N7    N     N_2   0.979621 0.519340 0.518564 -0.186300
N8    N     N_2   0.020339 0.480842 0.481669 -0.186854
H15   H     H_    0.267718 0.565074 0.566014 0.129381
H16   H     H_    0.732745 0.432422 0.435439 0.124021
H17   H     H_    0.114720 0.562525 0.562925 0.156898
H18   H     H_    0.885595 0.435544 0.438354 0.155245
H19   H     H_    0.869754 0.591102 0.586886 0.149975
H20   H     H_    0.129844 0.410366 0.412567 0.149097
H21   H     H_    0.716505 0.584401 0.580660 0.140519
H22   H     H_    0.283076 0.416421 0.418808 0.127729
O13   O     O_3   0.396418 0.733293 0.412023 -0.599166
C53   C     C_3   0.308801 0.737211 0.414201 -0.278694
H23   H     H_    0.288047 0.717626 0.456938 0.162399
H24   H     H_    0.283928 0.696173 0.381074 0.185702
H25   H     H_    0.281815 0.798025 0.403927 0.154205
O14   O     O_3   0.614114 0.266184 0.582696 -0.613534
C54   C     C_3   0.700585 0.258801 0.574331 -0.298365
H26   H     H_    0.731824 0.299322 0.604971 0.187427
H27   H     H_    0.715597 0.276736 0.529853 0.169119
H28   H     H_    0.726476 0.197327 0.583639 0.156900
C55   C     C_3   0.612591 0.407290 0.699006 -0.438107
C56   C     C_3   0.582758 0.327338 0.717807 -0.765238
H29   H     H_    0.575278 0.326196 0.765255 0.244951
H30   H     H_    0.522275 0.316096 0.695399 0.273568
H31   H     H_    0.629226 0.279007 0.706369 0.264568
H32   H     H_    0.623544 0.403609 0.652247 0.257167
H33   H     H_    0.673837 0.417153 0.720870 0.203382
C57   C     C_3   0.646461 0.455242 0.315446 -0.387416
C58   C     C_3   0.708740 0.422457 0.271736 -0.891891
H34   H     H_    0.679155 0.379584 0.241966 0.265292
H35   H     H_    0.733267 0.471599 0.246848 0.269884
H36   H     H_    0.762258 0.390721 0.295132 0.252424
H37   H     H_    0.678243 0.499171 0.343070 0.233660
H38   H     H_    0.631663 0.404510 0.342838 0.201749
C59   C     C_3   0.430403 0.255568 0.404013 -0.388324
C60   C     C_3   0.488089 0.289784 0.360988 -0.849800
H39   H     H_    0.526758 0.334445 0.382251 0.231522
H40   H     H_    0.529645 0.241583 0.342992 0.264331
H41   H     H_    0.450560 0.319053 0.324988 0.256720
H42   H     H_    0.393010 0.211300 0.380582 0.203172
H43   H     H_    0.384779 0.302365 0.418741 0.220023
C61   C     C_3   0.557237 0.742397 0.600563 -0.382576
C62   C     C_3   0.650999 0.751058 0.598928 -0.816102
H44   H     H_    0.682870 0.718711 0.635951 0.241148
H45   H     H_    0.675404 0.725887 0.558091 0.267642
H46   H     H_    0.665290 0.814677 0.602082 0.253182
H47   H     H_    0.533451 0.770620 0.640651 0.207139
H48   H     H_    0.545367 0.678395 0.603745 0.200489

loop_
_geom_bond_atom_site_label_1
_geom_bond_atom_site_label_2
_geom_bond_distance
_ccdc_geom_bond_type
C21   C55   1.515625 S    
C40   C42   1.393085 A    
N7    N8    1.251877 D    
C37   C39   1.390262 A    
C15   C17   1.393878 A    
C20   C30   1.399398 A    
C55   H32   1.104731 S    
C2    C32   1.447074 S    
C61   C62   1.526183 S    
C57   C58   1.529976 S    
C19   H5    1.083846 S    
O5    C3    1.288612 A    
O1    C1    1.280682 A    
N6    C44   1.362678 A    
C7    C9    1.399002 A    
C42   O14   1.383799 S    
C59   H43   1.106660 S    
N3    N4    1.244943 D    
C44   C46   1.404269 A    
C31   C33   1.411887 A    
C32   C34   1.414770 A    
C58   H34   1.110910 S    
C49   H19   1.082871 S    
C39   H13   1.083435 S    
C56   H29   1.110473 S    
C18   H4    1.083160 S    
C34   C36   1.389664 A    
C23   C25   1.404826 A    
O4    Zn1   1.967443 S    
C35   C37   1.404692 A    
C55   H33   1.111570 S    
C36   C38   1.405660 A    
N5    C51   1.360745 A    
C19   C29   1.398032 A    
C37   N3    1.403813 S    
C22   C24   1.423048 A    
C58   H35   1.110636 S    
C55   C56   1.526759 S    
C38   N4    1.406432 S    
C20   C22   1.407275 A    
C27   C29   1.391246 A    
C57   H37   1.110568 S    
C62   H46   1.110511 S    
C8    O12   1.350097 S    
C26   H8    1.083605 S    
C9    C15   1.404512 A    
C22   C57   1.525427 S    
C10   C16   1.403355 A    
O2    C2    1.284595 A    
C31   C41   1.407132 A    
O8    C4    1.291025 A    
C47   C49   1.402827 A    
C28   H10   1.083116 S    
O13   C53   1.410273 S    
C34   C59   1.518219 S    
C43   C45   1.403844 A    
C44   H15   1.081855 S    
C6    C14   1.399154 A    
C24   C26   1.406883 A    
C43   H16   1.081078 S    
C33   C35   1.390578 A    
C25   H7    1.084146 S    
C7    O11   1.349660 S    
C45   C47   1.412772 A    
C19   C21   1.399741 A    
C39   C41   1.392140 A    
C33   C61   1.516241 S    
C27   H9    1.082904 S    
C38   C40   1.390030 A    
O7    Zn2   1.975288 S    
C61   H48   1.109006 S    
O7    C3    1.288326 A    
Zn1   N6    1.999746 S    
O5    Zn1   1.981177 S    
O6    C4    1.291513 A    
C58   H36   1.110685 S    
C59   C60   1.525109 S    
C54   H27   1.114193 S    
C50   H20   1.082885 S    
N5    C43   1.362437 A    
N1    C30   1.428475 S    
C45   H18   1.082328 S    
C47   N7    1.435892 S    
O3    Zn2   1.967446 S    
C52   H22   1.080920 S    
N2    C29   1.422691 S    
C35   H12   1.083920 S    
C4    C24   1.468699 S    
C49   C51   1.402640 A    
C8    C10   1.396054 A    
C48   C50   1.402603 A    
C9    C11   1.408457 A    
C10   C12   1.408816 A    
C3    C23   1.454871 S    
O4    C2    1.285777 A    
O1    Zn1   1.997987 S    
C60   H40   1.110762 S    
N6    C52   1.361204 A    
C62   H44   1.110378 S    
C32   C42   1.408419 A    
C13   C18   1.403803 A    
C5    N1    1.369130 A    
O6    Zn2   1.981177 S    
C12   C14   1.409388 A    
O3    C1    1.286348 A    
O8    Zn1   1.975288 S    
C25   C27   1.384879 A    
C5    O9    1.350071 S    
C6    O10   1.349466 S    
C53   H25   1.111788 S    
C53   H24   1.109343 S    
C56   H31   1.110407 S    
C1    C31   1.441073 S    
C15   H1    1.083117 S    
Zn2   N5    1.999745 S    
C46   H17   1.082309 S    
C16   C18   1.391569 A    
C59   H42   1.111977 S    
C21   C23   1.416483 A    
C61   H47   1.111737 S    
C51   H21   1.080581 S    
C60   H41   1.110463 S    
C48   N8    1.435798 S    
C20   H6    1.080365 S    
N1    C7    1.368856 A    
C46   C48   1.412695 A    
C56   H30   1.111102 S    
C36   H11   1.083590 S    
C54   H28   1.111870 S    
N2    C8    1.366838 A    
C11   C13   1.408290 A    
O14   C54   1.410261 S    
O2    Zn2   1.997986 S    
C5    C13   1.396518 A    
C41   O13   1.385060 S    
C11   C12   1.406114 A    
C26   C28   1.381444 A    
C16   H2    1.083171 S    
C14   C17   1.404009 A    
C6    N2    1.366463 A    
C53   H23   1.114220 S    
C17   H3    1.083128 S    
C54   H26   1.109302 S    
C50   C52   1.402609 A    
C60   H39   1.106211 S    
C57   H38   1.109027 S    
C28   C30   1.390558 A    
C62   H45   1.110583 S    
C40   H14   1.083434 S    
