data_mof_unit_12703.cif
_audit_creation_date              2012-12-10T17:31:24-0500
_audit_creation_method            fapswitch 2.2
_symmetry_space_group_name_H-M    P1
_symmetry_Int_Tables_number       1
_space_group_crystal_system       triclinic
_cell_length_a                    18.832091
_cell_length_b                    18.412082
_cell_length_c                    12.387835
_cell_angle_alpha                 89.733498
_cell_angle_beta                  129.050603
_cell_angle_gamma                 90.207861
_cell_volume                      3335.6747177

loop_
_atom_site_label
_atom_site_type_symbol
_atom_type_description
_atom_site_fract_x
_atom_site_fract_y
_atom_site_fract_z
_atom_type_partial_charge
C1    C     C_R   0.606405 0.893889 0.645002 0.794811
C2    C     C_R   0.611890 0.103022 0.651486 0.791575
C3    C     C_R   0.106397 0.393885 0.644992 0.794795
C4    C     C_R   0.111891 0.603021 0.651489 0.791638
C5    C     C_R   0.248461 0.769112 0.049052 0.082950
C6    C     C_R   0.236786 0.221389 0.032888 0.090533
C7    C     C_R   0.748472 0.269094 0.049074 0.082947
C8    C     C_R   0.736799 0.721394 0.032899 0.090531
C9    C     C_R   0.666229 0.266802 0.031245 0.167326
C10   C     C_R   0.664610 0.736082 0.036998 0.169737
C11   C     C_R   0.166214 0.766824 0.031214 0.167328
C12   C     C_R   0.164596 0.236074 0.036987 0.169747
C13   C     C_R   0.588290 0.234953 0.913208 -0.244965
C14   C     C_R   0.588066 0.774240 0.928688 -0.251565
C15   C     C_R   0.088277 0.734972 0.913179 -0.244969
C16   C     C_R   0.088054 0.274235 0.928683 -0.251579
C17   C     C_R   0.590917 0.204556 0.813696 -0.184913
C18   C     C_R   0.583812 0.800494 0.819672 -0.176315
C19   C     C_R   0.090910 0.704564 0.813680 -0.184925
C20   C     C_R   0.083800 0.300495 0.819670 -0.176287
C21   C     C_R   0.322256 0.808546 0.161939 -0.273840
C22   C     C_R   0.312135 0.181968 0.143115 -0.239151
C23   C     C_R   0.822263 0.308541 0.161945 -0.273854
C24   C     C_R   0.812141 0.681967 0.143122 -0.239166
C25   C     C_R   0.234784 0.840615 0.236663 -0.195325
C26   C     C_R   0.241554 0.167308 0.250955 -0.205761
C27   C     C_R   0.734800 0.340594 0.236692 -0.195336
C28   C     C_R   0.741567 0.667322 0.250972 -0.205755
C29   C     C_R   0.677945 0.162446 0.737998 -0.201148
C30   C     C_R   0.658485 0.825395 0.714614 -0.213059
C31   C     C_R   0.177947 0.662444 0.738003 -0.201089
C32   C     C_R   0.158459 0.325381 0.714587 -0.213109
C33   C     C_R   0.682625 0.991056 0.279267 -0.313154
C34   C     C_R   0.182628 0.491044 0.279277 -0.313262
C35   C     C_R   0.342628 0.001943 0.624302 -0.029001
C36   C     C_R   0.842628 0.501939 0.624304 -0.029020
C37   C     C_R   0.305182 0.002747 0.691328 -0.335727
C38   C     C_R   0.805184 0.502735 0.691333 -0.335718
C39   C     C_R   0.384682 0.099706 0.343527 0.796623
C40   C     C_R   0.384827 0.900242 0.344109 0.785305
C41   C     C_R   0.884684 0.599707 0.343530 0.796625
C42   C     C_R   0.884829 0.400240 0.344112 0.785281
C43   C     C_R   0.361228 0.000477 0.836582 0.497870
C44   C     C_R   0.861232 0.500463 0.836588 0.497868
C45   C     C_R   0.458267 0.001210 0.917820 -0.108898
C46   C     C_R   0.958271 0.501206 0.917823 -0.108901
C47   C     C_R   0.492812 0.000093 0.841603 0.211620
C48   C     C_R   0.992814 0.500092 0.841605 0.211620
C49   C     C_R   0.523010 0.001027 0.069305 -0.020955
C50   C     C_R   0.023014 0.501024 0.069309 -0.020959
C51   C     C_R   0.617415 0.996245 0.135398 0.114812
C52   C     C_R   0.117420 0.496240 0.135406 0.114864
C53   C     C_R   0.648050 0.996008 0.058694 -0.255411
C54   C     C_R   0.148055 0.496004 0.058700 -0.255400
C55   C     C_R   0.587447 0.998797 0.915888 -0.129168
C56   C     C_R   0.087450 0.498796 0.915892 -0.129185
C57   C     C_R   0.500662 0.005476 0.160317 -0.038195
C58   C     C_R   0.000665 0.505482 0.160317 -0.038192
C59   C     C_R   0.656712 0.990433 0.362937 0.461245
C60   C     C_R   0.156706 0.490415 0.362937 0.461214
C61   C     C_R   0.661242 0.300217 0.127893 -0.196029
C62   C     C_R   0.668254 0.709973 0.146999 -0.205016
C63   C     C_R   0.161224 0.800243 0.127856 -0.196024
C64   C     C_R   0.168239 0.209958 0.146984 -0.205043
C65   C     C_R   0.314085 0.847080 0.250192 -0.045868
C66   C     C_R   0.312928 0.152070 0.247586 -0.051820
C67   C     C_R   0.814093 0.347071 0.250203 -0.045853
C68   C     C_R   0.812935 0.652075 0.247595 -0.051828
C69   C     C_R   0.752827 0.175740 0.738997 0.271640
C70   C     C_R   0.713529 0.794386 0.684641 0.279429
C71   C     C_R   0.252834 0.675729 0.739013 0.271601
C72   C     C_R   0.213471 0.294347 0.684575 0.279473
C73   C     C_R   0.330067 0.711240 0.853832 -0.169647
C74   C     C_R   0.282074 0.244916 0.780235 -0.169479
C75   C     C_R   0.830077 0.211216 0.853857 -0.169621
C76   C     C_R   0.782127 0.744952 0.780298 -0.169511
C77   C     C_R   0.331513 0.737184 0.959937 -0.280317
C78   C     C_R   0.292880 0.223447 0.897214 -0.236126
C79   C     C_R   0.831529 0.237146 0.959977 -0.280332
C80   C     C_R   0.792912 0.723465 0.897251 -0.236117
C81   C     C_R   0.752388 0.235388 0.949648 0.084714
C82   C     C_R   0.730879 0.745940 0.918391 0.081283
C83   C     C_R   0.252378 0.735408 0.949625 0.084728
C84   C     C_R   0.230861 0.245932 0.918373 0.081267
C85   C     C_R   0.673421 0.199963 0.833672 0.050338
C86   C     C_R   0.657753 0.792020 0.817937 0.049465
C87   C     C_R   0.173416 0.699971 0.833661 0.050302
C88   C     C_R   0.157735 0.292015 0.817925 0.049485
Cu1   Cu    Cu3+1 0.526340 0.000000 0.421010 0.935261
Cu2   Cu    Cu3+1 0.026340 0.500000 0.421010 0.935323
Cu3   Cu    Cu3+1 0.473640 0.000000 0.578990 0.910921
Cu4   Cu    Cu3+1 0.973640 0.500000 0.578990 0.910921
H1    H     H_    0.227797 0.869828 0.305214 0.146879
H2    H     H_    0.241172 0.144757 0.331483 0.150091
H3    H     H_    0.727815 0.369803 0.305248 0.146882
H4    H     H_    0.741188 0.644776 0.331502 0.150076
H5    H     H_    0.720560 0.993488 0.109993 0.147347
H6    H     H_    0.220564 0.493483 0.110002 0.147350
H7    H     H_    0.753951 0.986900 0.325183 0.148826
H8    H     H_    0.253957 0.486887 0.325209 0.148831
H9    H     H_    0.432203 0.013645 0.122444 0.218028
H10   H     H_    0.932206 0.513661 0.122441 0.218021
H11   H     H_    0.297753 0.002785 0.511936 0.150600
H12   H     H_    0.797752 0.502780 0.511939 0.150606
H13   H     H_    0.231547 0.004114 0.629829 0.164378
H14   H     H_    0.731549 0.504095 0.629837 0.164381
H15   H     H_    0.618201 0.999053 0.867390 0.208365
H16   H     H_    0.118204 0.499054 0.867394 0.208365
H17   H     H_    0.523926 0.235946 0.895001 0.137685
H18   H     H_    0.530574 0.783107 0.927161 0.134317
H19   H     H_    0.023911 0.735967 0.894967 0.137677
H20   H     H_    0.030562 0.283101 0.927158 0.134321
H21   H     H_    0.598869 0.298058 0.115336 0.132878
H22   H     H_    0.613053 0.720690 0.150228 0.131541
H23   H     H_    0.098848 0.798089 0.115290 0.132878
H24   H     H_    0.113035 0.220670 0.150211 0.131524
H25   H     H_    0.385961 0.813662 0.180394 0.145737
H26   H     H_    0.371297 0.173270 0.149858 0.148466
H27   H     H_    0.885958 0.313674 0.180371 0.145740
H28   H     H_    0.871294 0.673257 0.149853 0.148476
H29   H     H_    0.395337 0.760894 0.045804 0.135727
H30   H     H_    0.346623 0.184656 0.963328 0.154929
H31   H     H_    0.895365 0.260826 0.045875 0.135740
H32   H     H_    0.846655 0.684673 0.963365 0.154899
H33   H     H_    0.390676 0.719401 0.863431 0.144237
H34   H     H_    0.327810 0.221313 0.765338 0.147339
H35   H     H_    0.890696 0.219362 0.863480 0.144222
H36   H     H_    0.827879 0.721360 0.765421 0.147323
H37   H     H_    0.526269 0.187132 0.718502 0.170665
H38   H     H_    0.519373 0.823883 0.733482 0.178116
H39   H     H_    0.026265 0.687132 0.718491 0.170671
H40   H     H_    0.019363 0.323890 0.733486 0.178120
N1    N     N_R   0.566260 0.000000 0.302220 -0.228302
N2    N     N_R   0.066260 0.500000 0.302220 -0.228246
N3    N     N_R   0.434410 0.000000 0.697680 -0.199553
N4    N     N_R   0.934410 0.500000 0.697680 -0.199554
O1    O     O_R   0.608610 0.924520 0.551740 -0.552655
O2    O     O_R   0.608610 0.075480 0.551740 -0.585896
O3    O     O_R   0.108610 0.424520 0.551740 -0.552537
O4    O     O_R   0.108610 0.575480 0.551740 -0.585761
O5    O     O_R   0.564110 0.924510 0.685150 -0.601478
O6    O     O_R   0.564110 0.075490 0.685150 -0.591853
O7    O     O_R   0.064110 0.424510 0.685150 -0.601486
O8    O     O_R   0.064110 0.575490 0.685150 -0.591882
O9    O     O_R   0.435880 0.075470 0.314850 -0.588191
O10   O     O_R   0.435880 0.924530 0.314850 -0.588153
O11   O     O_R   0.935880 0.575470 0.314850 -0.588203
O12   O     O_R   0.935880 0.424530 0.314850 -0.588157
O13   O     O_R   0.391380 0.075460 0.448260 -0.592504
O14   O     O_R   0.391380 0.924540 0.448260 -0.593153
O15   O     O_R   0.891380 0.575460 0.448260 -0.592508
O16   O     O_R   0.891380 0.424540 0.448260 -0.593164
O17   O     O_3   0.318527 0.999751 0.894868 -0.604762
C89   C     C_3   0.295313 0.927371 0.898585 -0.332949
H41   H     H_    0.357227 0.892351 0.961444 0.160461
H42   H     H_    0.244782 0.904773 0.792143 0.173070
H43   H     H_    0.263317 0.926481 0.949117 0.205059
O18   O     O_3   0.818534 0.499719 0.894877 -0.604765
C90   C     C_3   0.795337 0.427335 0.898592 -0.332929
H44   H     H_    0.857258 0.392325 0.961455 0.160472
H45   H     H_    0.744814 0.404737 0.792148 0.173069
H46   H     H_    0.763336 0.426429 0.949117 0.205058
N5    N     N_2   0.747993 0.154906 0.623115 -0.423522
H47   H     H_    0.688572 0.171030 0.528189 0.262955
C91   C     C_3   0.827975 0.160328 0.631162 -0.721934
H48   H     H_    0.812080 0.137071 0.535545 0.233555
H49   H     H_    0.885565 0.128909 0.721645 0.240175
H50   H     H_    0.847708 0.218144 0.638502 0.223594
N6    N     N_2   0.695220 0.810024 0.555466 -0.379889
H51   H     H_    0.626453 0.813135 0.471658 0.261231
C92   C     C_3   0.746270 0.773158 0.520644 -0.718064
H52   H     H_    0.723410 0.793005 0.418363 0.232996
H53   H     H_    0.733918 0.713658 0.513133 0.216780
H54   H     H_    0.820435 0.785097 0.599176 0.229338
N7    N     N_2   0.248016 0.654862 0.623163 -0.423602
H55   H     H_    0.188662 0.671066 0.528223 0.262876
C93   C     C_3   0.328095 0.660044 0.631384 -0.721768
H56   H     H_    0.312214 0.636704 0.535830 0.233533
H57   H     H_    0.385565 0.628565 0.721937 0.240154
H58   H     H_    0.348004 0.717818 0.638730 0.223570
N8    N     N_2   0.195126 0.309953 0.555365 -0.379898
H59   H     H_    0.126352 0.313128 0.471600 0.261262
C94   C     C_3   0.246057 0.272977 0.520433 -0.718318
H60   H     H_    0.223164 0.292789 0.418119 0.232984
H61   H     H_    0.233621 0.213490 0.512949 0.216852
H62   H     H_    0.320247 0.284852 0.598884 0.229323
N9    N     N_2   0.723217 0.978179 0.509622 -0.376209
H63   H     H_    0.720107 0.012336 0.571314 0.309202
C95   C     C_3   0.816012 0.957369 0.571698 -0.716627
H64   H     H_    0.852599 0.940938 0.681503 0.241011
H65   H     H_    0.853038 0.003868 0.570095 0.214524
H66   H     H_    0.816247 0.910417 0.516145 0.239049
N10   N     N_2   0.223197 0.478149 0.509616 -0.376202
H67   H     H_    0.220192 0.512405 0.571306 0.309122
C96   C     C_3   0.315925 0.457142 0.571641 -0.716584
H68   H     H_    0.352449 0.440638 0.681391 0.241080
H69   H     H_    0.353110 0.503562 0.570190 0.214371
H70   H     H_    0.316010 0.410191 0.515940 0.239157

loop_
_geom_bond_atom_site_label_1
_geom_bond_atom_site_label_2
_ccdc_geom_bond_type
Cu3   O13   S    
C26   H2    S    
C83   C87   A    
C92   H52   S    
Cu3   O5    S    
C25   H1    S    
C91   H48   S    
C64   H24   S    
C44   O18   S    
N6    H51   S    
C14   C18   A    
C53   C55   A    
C27   H3    S    
N5    H47   S    
C48   C56   A    
C38   C44   A    
C42   O12   A    
Cu3   N3    S    
Cu2   O3    S    
C32   C72   A    
C10   C62   A    
N8    H59   S    
C58   N2    A    
C15   C19   A    
C92   H53   S    
C40   O14   A    
C18   C86   A    
C2    C29   S    
C9    C61   A    
C28   C68   A    
C70   N6    S    
C72   N8    S    
C5    C11   A    
C35   H11   S    
C94   H61   S    
C6    C12   A    
Cu2   N2    S    
C73   H33   S    
C77   C83   A    
C21   H25   S    
C6    C22   A    
C49   C57   A    
C7    C9    A    
C25   C63   A    
C23   C67   A    
C95   H65   S    
Cu4   O7    S    
C9    C13   A    
C56   H16   S    
C13   H17   S    
C27   C61   A    
C8    C24   A    
C11   C15   A    
C22   C66   A    
C12   C16   A    
C44   C46   A    
C93   H57   S    
Cu4   O16   S    
C50   C52   A    
C76   C80   A    
C90   H45   S    
C59   N9    S    
C58   H10   S    
C30   C86   A    
C42   O16   A    
C29   C85   A    
N10   H67   S    
Cu3   O6    S    
C63   H23   S    
C31   C71   A    
C33   C59   A    
C34   C60   A    
N6    C92   S    
C57   N1    A    
Cu4   N4    S    
C20   H40   S    
C78   H30   S    
C36   N4    A    
C21   C65   A    
C30   C70   A    
C52   C54   A    
C60   N10   S    
C41   C68   S    
C54   C56   A    
C45   C47   A    
C19   H39   S    
Cu1   O10   S    
C92   H54   S    
C46   C48   A    
C24   H28   S    
Cu1   N1    S    
C17   H37   S    
C26   C66   A    
C84   C88   A    
C6    C84   A    
C89   H43   S    
N7    C93   S    
C10   C14   A    
C94   H62   S    
C35   N3    A    
C79   C81   A    
C77   H29   S    
C49   C51   A    
C82   C86   A    
C79   H31   S    
C59   N1    A    
C96   H68   S    
C55   H15   S    
C33   H7    S    
C2    O2    A    
C37   C43   A    
C95   H66   S    
Cu1   O9    S    
C94   H60   S    
C37   H13   S    
Cu2   O11   S    
C74   H34   S    
C15   H19   S    
C4    O4    A    
C34   H8    S    
C90   H44   S    
C41   O11   A    
C45   C49   A    
C16   C20   A    
C93   H58   S    
C38   H14   S    
C39   O9    A    
Cu4   O15   S    
N10   C96   S    
C90   H46   S    
C3    O7    A    
C3    C32   S    
C27   C67   A    
C43   C45   A    
C8    C82   A    
C89   H41   S    
C72   C74   A    
C50   C58   A    
C7    C81   A    
C93   H56   S    
C91   H50   S    
Cu1   O1    S    
C40   C65   S    
C61   H21   S    
C42   C67   S    
C2    O6    A    
C39   C66   S    
C17   C85   A    
C18   H38   S    
C31   C87   A    
C3    O3    A    
Cu2   O12   S    
C60   N2    A    
C1    O1    A    
C16   H20   S    
C47   C55   A    
C80   H32   S    
C35   C37   A    
C14   H18   S    
C12   C64   A    
C46   C50   A    
N5    C91   S    
C89   H42   S    
C48   N4    A    
C8    C10   A    
C54   H6    S    
C69   N5    S    
C4    O8    A    
Cu3   O14   S    
Cu2   O4    S    
C5    C83   A    
C62   H22   S    
C41   O15   A    
C26   C64   A    
C33   C51   A    
C57   H9    S    
C39   O13   A    
C34   C52   A    
C40   O10   A    
C28   H4    S    
C53   H5    S    
C96   H70   S    
C36   C38   A    
C19   C87   A    
N9    H63   S    
N7    H55   S    
C70   C76   A    
C36   H12   S    
O18   C90   S    
C7    C23   A    
C20   C88   A    
Cu1   Cu3   S    
C1    C30   S    
Cu2   Cu4   S    
C80   C82   A    
C71   N7    S    
C69   C75   A    
C75   H35   S    
C47   N3    A    
C95   H64   S    
Cu4   O8    S    
N9    C95   S    
C4    C31   S    
C1    O5    A    
C24   C68   A    
C13   C17   A    
C78   C84   A    
N8    C94   S    
C5    C21   A    
C91   H49   S    
Cu1   O2    S    
C74   C78   A    
C22   H26   S    
C71   C73   A    
C25   C65   A    
C73   C77   A    
C29   C69   A    
C23   H27   S    
C51   C53   A    
O17   C89   S    
C43   O17   S    
C11   C63   A    
C75   C79   A    
C81   C85   A    
C28   C62   A    
C96   H69   S    
C76   H36   S    
C32   C88   A    
