data_mof_unit_54923.cif
_audit_creation_date              2012-12-10T16:58:32-0500
_audit_creation_method            fapswitch 2.2
_symmetry_space_group_name_H-M    P1
_symmetry_Int_Tables_number       1
_space_group_crystal_system       triclinic
_cell_length_a                    7.810121
_cell_length_b                    8.550874
_cell_length_c                    23.394981
_cell_angle_alpha                 92.037467
_cell_angle_beta                  85.06565
_cell_angle_gamma                 93.467459
_cell_volume                      1553.03162559

loop_
_atom_site_label
_atom_site_type_symbol
_atom_type_description
_atom_site_fract_x
_atom_site_fract_y
_atom_site_fract_z
_atom_type_partial_charge
C1    C     C_R   0.545460 0.794522 0.498574 0.978496
C2    C     C_R   0.339767 0.502965 0.302246 -0.198144
C3    C     C_R   0.661674 0.496757 0.757025 -0.095578
C4    C     C_R   0.338260 0.502828 0.242974 -0.095562
C5    C     C_R   0.506698 0.499860 0.791445 0.321893
C6    C     C_R   0.493278 0.500018 0.208556 0.321875
C7    C     C_2   0.569521 0.957950 0.497743 -0.362862
C8    C     C_2   0.430479 0.042050 0.502257 -0.362856
C9    C     C_R   0.501016 0.500300 0.610583 0.878416
C10   C     C_R   0.498983 0.499698 0.389416 0.878410
C11   C     C_R   0.453959 0.362968 0.118995 0.505630
C12   C     C_R   0.454539 0.205478 0.501426 0.978497
C13   C     C_R   0.546008 0.636903 0.881004 0.505636
C14   C     C_R   0.532227 0.638002 0.120525 0.506690
C15   C     C_R   0.467750 0.361867 0.879473 0.506709
C16   C     C_R   0.536208 0.640816 0.060823 -0.013800
C17   C     C_R   0.463765 0.359053 0.939176 -0.013805
C18   C     C_R   0.498038 0.500110 0.030054 -0.020190
C19   C     C_R   0.501932 0.499760 0.969945 -0.020187
C20   C     C_R   0.456126 0.359729 0.059254 -0.013766
C21   C     C_R   0.543840 0.640141 0.940746 -0.013770
C22   C     C_R   0.577771 0.780016 0.031360 -0.163858
C23   C     C_R   0.350105 0.503328 0.767040 -0.096538
C24   C     C_R   0.422201 0.219853 0.968639 -0.163861
C25   C     C_R   0.581577 0.779679 0.971779 -0.170376
C26   C     C_R   0.418390 0.220191 0.028220 -0.170371
C27   C     C_1   0.026170 0.348311 0.447043 0.387877
C28   C     C_1   0.973828 0.651682 0.552960 0.387885
C29   C     C_R   0.649923 0.496892 0.232963 -0.096506
C30   C     C_R   0.348088 0.503778 0.707839 -0.203600
C31   C     C_R   0.651950 0.496485 0.292164 -0.203614
C32   C     C_R   0.503210 0.500272 0.672812 -0.036315
C33   C     C_R   0.496784 0.499699 0.327187 -0.036285
C34   C     C_R   0.660177 0.496672 0.697753 -0.198139
H1    H     H_    0.607731 0.889345 0.054182 0.197243
H2    H     H_    0.218479 0.505370 0.328366 0.162268
H3    H     H_    0.782644 0.494025 0.776292 0.135591
H4    H     H_    0.217248 0.505301 0.223705 0.135608
H5    H     H_    0.701056 0.008497 0.493422 0.183620
H6    H     H_    0.298944 0.991502 0.506578 0.183620
H7    H     H_    0.392242 0.110524 0.945816 0.197239
H8    H     H_    0.614222 0.888780 0.950182 0.193347
H9    H     H_    0.385743 0.111090 0.049817 0.193348
H10   H     H_    0.230443 0.505834 0.794052 0.137292
H11   H     H_    0.769622 0.494623 0.205955 0.137308
H12   H     H_    0.225434 0.506403 0.689624 0.162775
H13   H     H_    0.774648 0.494136 0.310380 0.162742
H14   H     H_    0.781429 0.494035 0.671629 0.162270
N1    N     N_R   0.492050 0.500516 0.147941 -0.364313
N2    N     N_R   0.507923 0.499355 0.852060 -0.364330
N3    N     N_2   0.950330 0.457950 0.484560 -0.155246
N4    N     N_2   0.049670 0.542050 0.515440 -0.155250
N5    N     N_1   0.087452 0.256076 0.415469 -0.244047
N6    N     N_1   0.912544 0.743909 0.584536 -0.243998
O1    O     O_R   0.389250 0.738570 0.503790 -0.621457
O2    O     O_2   0.584545 0.769772 0.851931 -0.528515
O3    O     O_2   0.568001 0.771042 0.151116 -0.527020
O4    O     O_2   0.431977 0.228829 0.848881 -0.527006
O5    O     O_R   0.610750 0.261430 0.496210 -0.621460
O6    O     O_R   0.678390 0.711620 0.493890 -0.629303
O7    O     O_R   0.321610 0.288380 0.506110 -0.629300
O8    O     O_R   0.355400 0.513520 0.588790 -0.630637
O9    O     O_R   0.644600 0.486480 0.411210 -0.630624
O10   O     O_R   0.644550 0.486570 0.578900 -0.631395
O11   O     O_R   0.355450 0.513430 0.421100 -0.631383
O12   O     O_2   0.415423 0.230099 0.148068 -0.528530
Zn1   Zn    Zn3+2 0.306930 0.518000 0.506610 0.955757
Zn2   Zn    Zn3+2 0.693070 0.482000 0.493390 0.955756

loop_
_geom_bond_atom_site_label_1
_geom_bond_atom_site_label_2
_ccdc_geom_bond_type
C25   H8    S    
O1    Zn1   S    
C27   N5    T    
C1    O6    A    
C11   N1    A    
O5    Zn2   S    
C9    O10   A    
O7    Zn1   S    
C2    C4    A    
C10   O9    A    
C5    C23   A    
C11   O12   S    
C8    C12   S    
C13   O2    S    
C16   C22   A    
C22   H1    S    
C1    O1    A    
C13   C21   A    
C7    C8    D    
C29   C31   A    
C31   H13   S    
C30   C32   A    
C24   H7    S    
C28   N4    S    
C3    H3    S    
C21   C25   A    
C3    C34   A    
N4    Zn1   S    
C20   C26   A    
O8    Zn1   S    
O10   Zn2   S    
C2    C33   A    
C4    C6    A    
C13   N2    A    
C17   C19   A    
C27   N3    S    
C26   H9    S    
C10   C33   S    
C18   C20   A    
N3    Zn2   S    
C1    C7    S    
C6    N1    S    
C5    N2    S    
C15   O4    S    
C14   C16   A    
C11   C20   A    
C10   O11   A    
C14   N1    A    
C34   H14   S    
C31   C33   A    
N3    N4    D    
C17   C24   A    
C23   C30   A    
C3    C5    A    
C6    C29   A    
C12   O7    A    
O6    Zn2   S    
C16   C18   A    
C18   C19   A    
C15   N2    A    
C2    H2    S    
C15   C17   A    
C14   O3    S    
C7    H5    S    
O9    Zn2   S    
C28   N6    T    
C8    H6    S    
C9    C32   S    
C19   C21   A    
C4    H4    S    
C12   O5    A    
C30   H12   S    
C29   H11   S    
C23   H10   S    
C9    O8    A    
C24   C26   A    
O11   Zn1   S    
C22   C25   A    
C32   C34   A    
