data_mof_unit_67541.cif
_audit_creation_date              2013-03-05T15:41:21-0500
_audit_creation_method            fapswitch 2.2
_symmetry_space_group_name_H-M    P1
_symmetry_Int_Tables_number       1
_space_group_crystal_system       triclinic
_cell_length_a                    10.747394
_cell_length_b                    8.783383
_cell_length_c                    7.681142
_cell_angle_alpha                 101.210945
_cell_angle_beta                  93.097863
_cell_angle_gamma                 97.748165
_cell_volume                      702.351961657

loop_
_atom_site_label
_atom_site_type_symbol
_atom_site_description
_atom_site_fract_x
_atom_site_fract_y
_atom_site_fract_z
_atom_type_partial_charge
O1    O     O_R   0.509190 0.286130 0.619780 -0.625678
O2    O     O_R   0.490810 0.713870 0.380220 -0.632148
O3    O     O_R   0.485310 0.256770 0.308360 -0.593109
O4    O     O_R   0.514690 0.743230 0.691640 -0.592261
C1    C     C_R   0.497263 0.201726 0.455107 0.839993
C2    C     C_R   0.507350 0.798980 0.544711 0.842409
O5    O     O_R   0.328790 0.514640 0.655680 -0.560532
O6    O     O_R   0.671210 0.485360 0.344320 -0.566272
O7    O     O_R   0.304910 0.485280 0.344260 -0.562584
O8    O     O_R   0.695090 0.514720 0.655740 -0.557638
C3    C     C_R   0.259386 0.490873 0.502075 0.844745
C4    C     C_R   0.740221 0.508940 0.497897 0.802777
Cu1   Cu    Cu3+1 0.514140 0.517380 0.684380 0.979036
Cu2   Cu    Cu3+1 0.485860 0.482620 0.315620 0.972031
N1    N     N_2   0.464560 0.456420 0.038510 -0.089151
N2    N     N_2   0.535440 0.543580 0.961490 -0.088868
C5    C     C_3   0.028347 0.427483 0.635115 0.596216
C6    C     C_3   0.968751 0.560041 0.364231 0.556341
C7    C     C_3   0.932710 0.349560 0.475971 0.027955
C8    C     C_3   0.063067 0.638722 0.524566 0.000905
C9    C     C_3   0.876948 0.503538 0.491957 -0.239854
C10   C     C_3   0.120862 0.486519 0.507412 -0.217729
C11   C     C_3   0.970798 0.580232 0.654290 -0.318215
C12   C     C_3   0.025687 0.406087 0.346164 -0.262273
H1    H     H_    0.942546 0.653107 0.775706 0.216302
H2    H     H_    0.052643 0.332731 0.224161 0.217865
C13   C     C_2   0.497344 0.034827 0.430686 -0.386331
C14   C     C_2   0.516865 0.967386 0.568409 -0.357166
H3    H     H_    0.475572 0.966203 0.297028 0.165673
H4    H     H_    0.538582 0.036258 0.702154 0.166956
C15   C     C_3   0.834799 0.200092 0.445700 -0.367690
C16   C     C_3   0.884175 0.057444 0.487499 -0.690728
H5    H     H_    0.969685 0.038994 0.417007 0.286892
H6    H     H_    0.904231 0.067760 0.631627 0.276228
H7    H     H_    0.807735 0.956316 0.448215 0.244134
H8    H     H_    0.757444 0.221113 0.533158 0.221739
H9    H     H_    0.794213 0.173974 0.305023 0.209101
C17   C     C_3   0.132806 0.806526 0.582898 -0.366681
C18   C     C_3   0.197033 0.869751 0.434797 -0.711379
H10   H     H_    0.256013 0.786466 0.365994 0.276355
H11   H     H_    0.127037 0.894274 0.337628 0.269475
H12   H     H_    0.256199 0.983275 0.493337 0.241040
H13   H     H_    0.064567 0.884504 0.635300 0.228662
H14   H     H_    0.204572 0.809561 0.693731 0.208164
S1    S     S_3+6 0.076149 0.328381 0.800280 -0.023809
O9    O     O_2   0.131839 0.191483 0.704028 -0.442004
O10   O     O_2   0.174052 0.434090 0.931645 -0.242475
O11   O     O_3   0.952280 0.265096 0.905433 -0.507652
H15   H     H_    0.974036 0.170191 0.944487 0.335601
S2    S     S_3+6 0.937076 0.633466 0.170645 -0.018579
O12   O     O_2   0.841301 0.519042 0.043538 -0.228643
O13   O     O_2   0.886694 0.782926 0.226454 -0.440677
O14   O     O_3   0.070770 0.670423 0.072943 -0.492679
H16   H     H_    0.067731 0.771668 0.035437 0.334349
C19   C     C_3   0.418508 0.299680 0.933850 0.040047
C20   C     C_3   0.326601 0.190408 0.017994 -0.732161
H17   H     H_    0.374267 0.100561 0.066394 0.203662
H18   H     H_    0.273699 0.253416 0.120578 0.283842
H19   H     H_    0.257676 0.114519 0.915251 0.236612
H20   H     H_    0.363746 0.312137 0.813778 0.241702
H21   H     H_    0.501032 0.238598 0.905448 0.148355
C21   C     C_3   0.583099 0.699104 0.067426 0.015039
C22   C     C_3   0.675717 0.808373 0.985238 -0.722055
H22   H     H_    0.736592 0.745116 0.894398 0.285541
H23   H     H_    0.629122 0.893292 0.926516 0.208677
H24   H     H_    0.735553 0.892442 0.092894 0.230501
H25   H     H_    0.501268 0.761252 0.096078 0.150563
H26   H     H_    0.638294 0.684766 0.186512 0.231538

loop_
_geom_bond_atom_site_label_1
_geom_bond_atom_site_label_2
_geom_bond_distance
_ccdc_geom_bond_type
S2    O13   1.482650 D    
O7    Cu2   1.971662 S    
C22   H23   1.103475 S    
C17   H14   1.111318 S    
C21   C22   1.535055 S    
C13   H3    1.080483 S    
C6    C9    1.531084 S    
C8    C17   1.530985 S    
C3    C10   1.487096 S    
C5    C10   1.543973 S    
Cu2   N1    2.092518 S    
C20   H19   1.102258 S    
C21   H26   1.100340 S    
O6    C4    1.324225 A    
C7    C15   1.538598 S    
C16   H5    1.106277 S    
C19   C20   1.539205 S    
C14   H4    1.081735 S    
C7    C12   1.550985 S    
C22   H24   1.104382 S    
C17   H13   1.108658 S    
C18   H11   1.102223 S    
C5    C11   1.536562 S    
O14   H16   0.990607 S    
O5    C3    1.326329 A    
O7    C3    1.326141 A    
C1    C13   1.441389 S    
C19   H20   1.098602 S    
O2    C2    1.326440 A    
O3    Cu2   1.972842 S    
O8    C4    1.324411 A    
C21   H25   1.106132 S    
O1    C1    1.325962 A    
C19   H21   1.107141 S    
C10   C12   1.551583 S    
C13   C14   1.329355 D    
O11   H15   0.990831 S    
C7    C9    1.537944 S    
C20   H18   1.101873 S    
S2    O12   1.501234 D    
C18   H12   1.106609 S    
C6    C8    1.538522 S    
S1    O10   1.498293 D    
C9    C11   1.542776 S    
C17   C18   1.518591 S    
O2    Cu2   1.987652 S    
C5    S1    1.763696 S    
C6    C12   1.543232 S    
S1    O11   1.680742 S    
S2    O14   1.678874 S    
O1    Cu1   1.987650 S    
N1    N2    1.258549 D    
C16   H7    1.107771 S    
S1    O9    1.498955 D    
O5    Cu1   1.988693 S    
C11   H1    1.105700 S    
C20   H17   1.107213 S    
C6    S2    1.766422 S    
C12   H2    1.105517 S    
O4    C2    1.317335 A    
Cu1   N2    2.092517 S    
C18   H10   1.107767 S    
C15   H8    1.109080 S    
O6    Cu2   1.988695 S    
C15   H9    1.111838 S    
C5    C7    1.538951 S    
C16   H6    1.100091 S    
Cu1   Cu2   2.784654 S    
C8    C11   1.551984 S    
C4    C9    1.479471 S    
N2    C21   1.457596 S    
C2    C14   1.443626 S    
C15   C16   1.507253 S    
O4    Cu1   1.972843 S    
C8    C10   1.534478 S    
C22   H22   1.104633 S    
O3    C1    1.316736 A    
O8    Cu1   1.971662 S    
N1    C19   1.459272 S    
