data_mof_unit_9171.cif
_audit_creation_date              2013-03-05T16:00:54-0500
_audit_creation_method            fapswitch 2.2
_symmetry_space_group_name_H-M    P1
_symmetry_Int_Tables_number       1
_space_group_crystal_system       triclinic
_cell_length_a                    20.900652
_cell_length_b                    21.515072
_cell_length_c                    14.005492
_cell_angle_alpha                 89.414196
_cell_angle_beta                  89.429482
_cell_angle_gamma                 89.757458
_cell_volume                      6297.28096285

loop_
_atom_site_label
_atom_site_type_symbol
_atom_site_description
_atom_site_fract_x
_atom_site_fract_y
_atom_site_fract_z
_atom_type_partial_charge
O1    O     O_R   0.066090 0.433930 0.580280 -0.639805
O2    O     O_R   0.933910 0.566070 0.419720 -0.619197
O3    O     O_R   0.933910 0.566070 0.580280 -0.632651
O4    O     O_R   0.066090 0.433930 0.419720 -0.577180
O5    O     O_R   0.933910 0.433930 0.419720 -0.613819
O6    O     O_R   0.066090 0.566070 0.580280 -0.629257
O7    O     O_R   0.066090 0.566070 0.419720 -0.598240
O8    O     O_R   0.933910 0.433930 0.580280 -0.625128
O9    O     O_R   0.566090 0.933930 0.580280 -0.626469
O10   O     O_R   0.433910 0.066070 0.419720 -0.572380
O11   O     O_R   0.433910 0.066070 0.580280 -0.638814
O12   O     O_R   0.566090 0.933930 0.419720 -0.618073
O13   O     O_R   0.433910 0.933930 0.419720 -0.577725
O14   O     O_R   0.566090 0.066070 0.580280 -0.615688
O15   O     O_R   0.566090 0.066070 0.419720 -0.626414
O16   O     O_R   0.433910 0.933930 0.580280 -0.639177
C1    C     C_R   0.088558 0.415403 0.499724 0.912500
C2    C     C_R   0.912776 0.585752 0.499881 0.949385
C3    C     C_R   0.912031 0.414568 0.501148 0.937370
C4    C     C_R   0.087144 0.586166 0.499757 0.878000
C5    C     C_R   0.587225 0.914245 0.500039 0.858945
C6    C     C_R   0.411441 0.084573 0.499680 0.935406
C7    C     C_R   0.413115 0.913598 0.500921 0.889940
C8    C     C_R   0.587949 0.085499 0.498808 0.859199
Zn1   Zn    Zn3+2 0.000000 0.500000 0.607200 0.974467
Zn2   Zn    Zn3+2 0.000000 0.500000 0.392800 1.001846
Zn3   Zn    Zn3+2 0.500000 0.000000 0.607200 0.958458
Zn4   Zn    Zn3+2 0.500000 0.000000 0.392800 1.006343
C9    C     C_R   0.117868 0.693892 0.480668 -0.200624
C10   C     C_R   0.854266 0.334030 0.421763 -0.209382
C11   C     C_R   0.879894 0.689951 0.463474 -0.264052
C12   C     C_R   0.118583 0.308679 0.520777 -0.278968
C13   C     C_R   0.644341 0.167357 0.577665 -0.207414
C14   C     C_R   0.383850 0.805272 0.490083 -0.206837
C15   C     C_R   0.383692 0.192506 0.508730 -0.282859
C16   C     C_R   0.621077 0.810857 0.540109 -0.236691
C17   C     C_R   0.136200 0.632896 0.500432 -0.146701
C18   C     C_R   0.861806 0.368853 0.503737 -0.140108
C19   C     C_R   0.863507 0.631851 0.498972 -0.070718
C20   C     C_R   0.137686 0.368806 0.499068 -0.048933
C21   C     C_R   0.637213 0.132245 0.495843 -0.178487
C22   C     C_R   0.364429 0.866498 0.503587 -0.163212
C23   C     C_R   0.363100 0.131798 0.498004 -0.044183
C24   C     C_R   0.636482 0.868097 0.500460 -0.111530
C25   C     C_R   0.198868 0.618466 0.529278 -0.044013
C26   C     C_R   0.823430 0.358416 0.585867 -0.008688
C27   C     C_R   0.802061 0.618429 0.533885 -0.039297
C28   C     C_R   0.202036 0.383876 0.479950 -0.050062
C29   C     C_R   0.674475 0.143923 0.412940 -0.049499
C30   C     C_R   0.300339 0.881559 0.524264 -0.039207
C31   C     C_R   0.298130 0.117560 0.484761 -0.063432
C32   C     C_R   0.696560 0.880422 0.459784 -0.042428
C33   C     C_R   0.246126 0.663922 0.514346 0.121608
C34   C     C_R   0.777669 0.311114 0.583809 0.082148
C35   C     C_R   0.756565 0.666556 0.536486 0.009951
C36   C     C_R   0.248591 0.337185 0.493065 0.010603
C37   C     C_R   0.719592 0.191764 0.414695 0.092887
C38   C     C_R   0.253850 0.835923 0.508072 0.119619
C39   C     C_R   0.253245 0.164563 0.504351 0.002390
C40   C     C_R   0.743195 0.833218 0.461841 0.049802
C41   C     C_R   0.227013 0.726455 0.501234 0.010011
C42   C     C_R   0.770692 0.275701 0.499796 0.027999
C43   C     C_R   0.773029 0.726203 0.499742 0.067382
C44   C     C_R   0.228554 0.274983 0.508589 0.070532
C45   C     C_R   0.726563 0.227106 0.498772 0.031378
C46   C     C_R   0.273422 0.773194 0.500212 0.009288
C47   C     C_R   0.274038 0.227069 0.506423 0.076290
C48   C     C_R   0.727260 0.774016 0.500845 0.047532
C49   C     C_R   0.161445 0.742219 0.491865 0.107901
C50   C     C_R   0.807860 0.288806 0.416900 0.097760
C51   C     C_R   0.835043 0.737752 0.461019 0.042522
C52   C     C_R   0.162904 0.260373 0.522263 0.034585
C53   C     C_R   0.689660 0.213724 0.581848 0.093351
C54   C     C_R   0.339251 0.757141 0.494186 0.108865
C55   C     C_R   0.340163 0.241431 0.502779 0.035243
C56   C     C_R   0.665566 0.762725 0.540895 0.036618
C57   C     C_R   0.311342 0.648267 0.509239 -0.219125
C58   C     C_R   0.738940 0.298433 0.664121 -0.247732
C59   C     C_R   0.694867 0.655992 0.573514 -0.192528
C60   C     C_R   0.314384 0.350526 0.487383 -0.191442
C61   C     C_R   0.757825 0.204907 0.334005 -0.247870
C62   C     C_R   0.188787 0.851317 0.499273 -0.217208
C63   C     C_R   0.188601 0.150809 0.521852 -0.202709
C64   C     C_R   0.805362 0.844185 0.427062 -0.149119
C65   C     C_R   0.799900 0.254332 0.332625 -0.028449
C66   C     C_R   0.142287 0.805438 0.490747 -0.051617
C67   C     C_R   0.143350 0.197871 0.534438 -0.015664
C68   C     C_R   0.851091 0.797068 0.423660 -0.041907
C69   C     C_R   0.357946 0.693694 0.494160 -0.047088
C70   C     C_R   0.697050 0.248808 0.665711 -0.027373
C71   C     C_R   0.649499 0.703400 0.578247 -0.006410
C72   C     C_R   0.360573 0.303810 0.494677 -0.017181
H1    H     H_    0.068757 0.702840 0.460979 0.175182
H2    H     H_    0.887252 0.340893 0.362808 0.209743
H3    H     H_    0.928814 0.696982 0.440264 0.134837
H4    H     H_    0.068005 0.300329 0.531091 0.124924
H5    H     H_    0.611879 0.159710 0.637016 0.215473
H6    H     H_    0.434534 0.796223 0.483030 0.188404
H7    H     H_    0.434296 0.200473 0.517823 0.125665
H8    H     H_    0.572832 0.804500 0.566739 0.131031
H9    H     H_    0.326116 0.599952 0.510018 0.183922
H10   H     H_    0.742076 0.325867 0.728177 0.179110
H11   H     H_    0.681551 0.610734 0.601100 0.183557
H12   H     H_    0.331055 0.397435 0.476769 0.181883
H13   H     H_    0.754439 0.177765 0.269686 0.182363
H14   H     H_    0.173668 0.899498 0.497161 0.186236
H15   H     H_    0.173328 0.103264 0.531643 0.188499
H16   H     H_    0.819029 0.889701 0.401135 0.233010
C73   C     C_R   0.943274 0.503534 0.798945 0.004015
C74   C     C_R   0.056777 0.497218 0.201042 -0.037776
C75   C     C_R   0.056788 0.496751 0.797294 -0.032710
C76   C     C_R   0.943185 0.502647 0.202692 -0.021657
C77   C     C_R   0.443226 0.003391 0.798876 -0.039752
C78   C     C_R   0.556694 0.995916 0.201066 0.005422
C79   C     C_R   0.556781 0.996751 0.797319 -0.017771
C80   C     C_R   0.443270 0.003836 0.202636 -0.028618
N1    N     N_R   0.000000 0.500000 0.750030 -0.111948
N2    N     N_R   0.000000 0.500000 0.249970 -0.118722
N3    N     N_R   0.500000 0.000000 0.750030 -0.111351
N4    N     N_R   0.500000 0.000000 0.249970 -0.117267
C81   C     C_R   0.058167 0.496741 0.897958 0.012873
C82   C     C_R   0.941807 0.502760 0.102021 0.011353
C83   C     C_R   0.941859 0.503173 0.899607 0.017943
C84   C     C_R   0.058148 0.496936 0.100369 0.004633
C85   C     C_R   0.558155 0.996624 0.897975 0.012627
C86   C     C_R   0.441887 0.003873 0.101984 0.004915
C87   C     C_R   0.441866 0.003676 0.899568 0.014986
C88   C     C_R   0.558112 0.996239 0.100390 0.015437
C89   C     C_R   0.000000 0.499858 0.949377 0.082135
C90   C     C_R   0.999982 0.499825 0.050605 0.087920
C91   C     C_R   0.500011 0.000173 0.949360 0.086821
C92   C     C_R   0.500007 0.000147 0.050589 0.084177
C93   C     C_R   0.116007 0.493734 0.948192 -0.179046
C94   C     C_R   0.883966 0.505792 0.051773 -0.159050
C95   C     C_R   0.883998 0.506100 0.951426 -0.165897
C96   C     C_R   0.116000 0.493894 0.048528 -0.176575
C97   C     C_R   0.615964 0.992986 0.948237 -0.168487
C98   C     C_R   0.384074 0.007494 0.051749 -0.175905
C99   C     C_R   0.384059 0.007330 0.951413 -0.181764
C100  C     C_R   0.615937 0.992697 0.048584 -0.151121
H17   H     H_    0.899216 0.506854 0.759368 0.119375
H18   H     H_    0.100934 0.495215 0.240613 0.189628
H19   H     H_    0.100940 0.494306 0.756364 0.140055
H20   H     H_    0.899015 0.504742 0.243612 0.157385
H21   H     H_    0.399081 0.005906 0.759172 0.138807
H22   H     H_    0.600725 0.992197 0.240655 0.146163
H23   H     H_    0.600927 0.994194 0.756412 0.141958
H24   H     H_    0.399150 0.006720 0.243460 0.184827
H25   H     H_    0.161232 0.491334 0.909911 0.162853
H26   H     H_    0.838731 0.508040 0.090046 0.162274
H27   H     H_    0.838790 0.508559 0.914365 0.150582
H28   H     H_    0.161224 0.491617 0.085559 0.164463
H29   H     H_    0.661172 0.990255 0.909970 0.158883
H30   H     H_    0.338880 0.010379 0.090033 0.160898
H31   H     H_    0.338855 0.010083 0.914389 0.159423
H32   H     H_    0.661117 0.989764 0.085654 0.171179
C101  C     C_2   0.212269 0.559349 0.582269 0.375179
H33   H     H_    0.178650 0.521251 0.580925 0.069442
O17   O     O_2   0.258992 0.553702 0.633318 -0.570311
C102  C     C_2   0.831381 0.396213 0.673251 0.420348
H34   H     H_    0.824307 0.446026 0.670133 0.075242
O18   O     O_2   0.848469 0.371949 0.748023 -0.566308
C103  C     C_2   0.785630 0.554062 0.564578 0.348178
H35   H     H_    0.761810 0.545463 0.632556 0.049347
O19   O     O_2   0.797581 0.510255 0.512583 -0.589426
C104  C     C_2   0.219877 0.446541 0.442044 0.313525
H36   H     H_    0.262648 0.469750 0.465517 0.088441
O20   O     O_2   0.187285 0.472815 0.382042 -0.577974
C105  C     C_2   0.666002 0.106944 0.324878 0.423872
H37   H     H_    0.673702 0.057269 0.326657 0.089616
O21   O     O_2   0.647780 0.131747 0.251130 -0.551385
C106  C     C_2   0.284769 0.941094 0.573540 0.394327
H38   H     H_    0.319467 0.978250 0.575499 0.080503
O22   O     O_2   0.235053 0.947981 0.618765 -0.575592
C107  C     C_2   0.277390 0.057723 0.441285 0.322131
H39   H     H_    0.228106 0.042739 0.444234 0.101418
O23   O     O_2   0.314642 0.025254 0.396186 -0.596656
C108  C     C_2   0.708936 0.942771 0.416757 0.369107
H40   H     H_    0.694472 0.984189 0.455058 0.027988
O24   O     O_2   0.731807 0.948081 0.336535 -0.583895
C109  C     C_2   0.832701 0.268231 0.240183 0.409832
H41   H     H_    0.845662 0.230394 0.192976 0.081329
O25   O     O_2   0.841463 0.321598 0.212750 -0.552392
C110  C     C_2   0.074651 0.826677 0.487521 0.423065
H42   H     H_    0.063192 0.871056 0.454157 0.112267
O26   O     O_2   0.031889 0.797506 0.527238 -0.568561
C111  C     C_2   0.076473 0.179960 0.560013 0.423576
H43   H     H_    0.044150 0.212312 0.594615 0.067178
O27   O     O_2   0.056824 0.127698 0.544298 -0.542568
C112  C     C_2   0.914099 0.811251 0.377539 0.478698
H44   H     H_    0.944300 0.774901 0.348647 0.051585
O28   O     O_2   0.932743 0.864790 0.369264 -0.558222
C113  C     C_2   0.424844 0.671570 0.480863 0.410746
H45   H     H_    0.440294 0.629085 0.516389 0.122819
O29   O     O_2   0.461908 0.697554 0.425846 -0.557601
C114  C     C_2   0.663897 0.235368 0.758011 0.406395
H46   H     H_    0.649915 0.273519 0.803984 0.082422
O30   O     O_2   0.656023 0.182165 0.786799 -0.557248
C115  C     C_2   0.586411 0.689183 0.624072 0.431114
H47   H     H_    0.557034 0.725281 0.655459 0.052668
O31   O     O_2   0.566738 0.635852 0.628996 -0.554023
C116  C     C_2   0.429288 0.321717 0.486474 0.425095
H48   H     H_    0.465607 0.288742 0.464294 0.066215
O32   O     O_2   0.446274 0.374724 0.503212 -0.541295

loop_
_geom_bond_atom_site_label_1
_geom_bond_atom_site_label_2
_geom_bond_distance
_ccdc_geom_bond_type
C78   C88   1.409978 A    
O1    Zn1   2.013662 S    
C112  H44   1.082130 S    
O8    Zn1   2.027025 S    
C75   C81   1.410422 A    
C105  H37   1.080214 S    
C57   H9    1.083113 S    
C103  H35   1.084547 S    
C14   C22   1.390980 A    
C23   C31   1.407804 A    
C74   N2    1.365806 A    
C108  H40   1.085124 S    
C73   N1    1.365612 A    
C107  O23   1.219757 D    
C109  H41   1.085715 S    
O10   C6    1.276795 A    
C68   C112  1.492332 S    
O13   C7    1.286558 A    
C101  H33   1.082308 S    
C7    C22   1.439070 S    
C116  O32   1.221550 D    
C60   H12   1.077482 S    
C54   C69   1.418286 A    
C27   C35   1.403370 A    
C103  O19   1.220428 D    
C39   C63   1.403004 A    
C53   C70   1.412760 A    
C38   C62   1.404559 A    
C95   H27   1.083416 S    
O6    Zn1   2.016472 S    
C58   H10   1.081605 S    
C77   H21   1.082884 S    
C27   C103  1.486424 S    
C46   C54   1.419056 A    
C79   H23   1.082737 S    
C114  H46   1.085701 S    
C29   C37   1.399446 A    
C110  H42   1.085602 S    
C42   C50   1.417088 A    
O3    C2    1.280987 A    
C20   C28   1.407276 A    
O14   C8    1.291102 A    
C74   H18   1.081721 S    
C82   C94   1.405812 A    
C16   C56   1.388861 A    
C39   C47   1.415718 A    
C77   N3    1.365837 A    
C33   C41   1.412539 A    
C41   C46   1.399993 A    
C38   C46   1.413652 A    
C70   C114  1.486966 S    
C107  H39   1.080917 S    
C62   H14   1.082630 S    
C110  O26   1.220590 D    
C113  O29   1.220380 D    
C35   C43   1.420162 A    
C93   C96   1.405294 A    
C112  O28   1.221597 D    
C36   C44   1.417989 A    
O13   Zn4   2.016475 S    
C86   C92   1.408239 A    
O14   Zn3   2.016472 S    
C15   C23   1.387014 A    
C80   N4    1.365961 A    
C59   C71   1.391350 A    
C75   H19   1.082876 S    
C74   C84   1.410063 A    
C61   C65   1.382615 A    
C98   H30   1.083352 S    
O16   Zn3   2.027025 S    
C12   C20   1.385375 A    
C26   C102  1.487374 S    
C115  H47   1.082131 S    
C101  O17   1.220953 D    
C80   C86   1.410253 A    
C83   C89   1.408102 A    
C66   C110  1.484790 S    
C8    C21   1.442387 S    
C105  O21   1.221268 D    
C59   H11   1.080455 S    
C87   C99   1.405722 A    
C15   H7    1.081162 S    
C88   C92   1.408248 A    
C21   C29   1.412615 A    
C10   C50   1.379393 A    
C24   C32   1.398947 A    
C106  O22   1.220810 D    
O11   Zn3   2.013370 S    
C31   C39   1.403755 A    
C9    C49   1.396224 A    
C109  O25   1.220995 D    
C100  H32   1.083438 S    
C97   C100  1.405354 A    
C61   H13   1.081619 S    
O8    C3    1.277530 A    
C111  O27   1.221546 D    
C116  H48   1.082264 S    
C84   C96   1.405812 A    
C97   H29   1.083317 S    
C30   C38   1.405911 A    
C44   C47   1.399683 A    
C64   C68   1.391147 A    
O3    Zn1   2.013370 S    
C104  O20   1.219924 D    
C25   C101  1.492928 S    
C13   C21   1.388584 A    
C78   H22   1.081361 S    
C12   C52   1.389420 A    
Zn4   N4    2.000406 S    
C45   C53   1.417289 A    
C37   C45   1.417283 A    
C80   H24   1.082055 S    
C9    H1    1.081475 S    
C73   C83   1.409779 A    
C67   C111  1.490757 S    
C34   C42   1.417369 A    
C85   C97   1.405890 A    
C62   C66   1.394987 A    
O12   C5    1.280042 A    
C58   C70   1.383482 A    
C51   C68   1.414709 A    
C83   C95   1.405709 A    
C1    C20   1.432070 S    
C102  O18   1.221240 D    
C60   C72   1.394367 A    
C33   C57   1.403976 A    
C2    C19   1.426759 S    
C76   C82   1.410495 A    
C3    C18   1.441494 S    
C5    C24   1.427259 S    
C35   C59   1.403651 A    
C85   C91   1.408362 A    
C108  O24   1.221091 D    
C6    C23   1.430044 S    
C99   H31   1.083351 S    
C69   C113  1.485688 S    
C26   C34   1.400251 A    
C93   H25   1.083358 S    
O2    Zn2   2.013662 S    
C31   C107  1.497341 S    
O7    Zn2   2.027022 S    
C115  O31   1.221573 D    
C55   C72   1.413102 A    
C22   C30   1.404880 A    
C77   C87   1.410324 A    
O4    C1    1.278544 A    
C13   C53   1.380629 A    
O15   C8    1.277332 A    
C12   H4    1.081035 S    
O12   Zn4   2.013370 S    
C43   C51   1.421893 A    
C113  H45   1.085718 S    
O16   C7    1.279370 A    
C79   N3    1.365993 A    
C104  H36   1.081452 S    
C37   C61   1.404652 A    
C15   C55   1.390777 A    
C47   C55   1.417771 A    
C17   C25   1.407020 A    
C91   C92   1.417764 A    
C29   C105  1.486970 S    
C52   C67   1.415277 A    
C72   C116  1.491548 S    
C106  H38   1.082364 S    
O9    Zn3   2.013662 S    
C19   C27   1.399834 A    
C89   C90   1.417736 A    
O10   Zn4   2.013662 S    
C28   C36   1.407537 A    
C43   C48   1.401869 A    
C86   C98   1.405759 A    
C65   C109  1.487228 S    
C42   C45   1.397406 A    
C73   H17   1.081251 S    
C57   C69   1.395841 A    
Zn2   N2    2.000406 S    
C81   C89   1.408539 A    
O2    C2    1.277945 A    
Zn1   N1    2.000404 S    
C63   C67   1.393928 A    
O4    Zn2   2.013370 S    
C16   H8    1.080378 S    
C94   C95   1.405345 A    
O5    C3    1.290250 A    
Zn3   N3    2.000404 S    
C48   C56   1.421891 A    
O6    C4    1.278356 A    
O11   C6    1.285733 A    
O1    C1    1.284273 A    
C36   C60   1.407238 A    
C75   N1    1.365945 A    
C41   C49   1.417394 A    
C102  H34   1.081747 S    
C76   H20   1.082765 S    
C87   C91   1.408514 A    
C88   C100  1.405638 A    
C71   C115  1.492199 S    
C111  H43   1.082639 S    
C10   H2    1.079778 S    
C84   C90   1.408154 A    
C76   N2    1.366054 A    
C4    C17   1.439184 S    
C40   C64   1.403143 A    
O9    C5    1.278950 A    
O15   Zn4   2.027022 S    
C11   H3    1.080591 S    
C79   C85   1.410284 A    
C11   C51   1.389018 A    
C14   H6    1.080001 S    
C63   H15   1.079878 S    
C13   H5    1.079474 S    
C44   C52   1.419651 A    
C32   C108  1.487561 S    
C18   C26   1.412365 A    
C114  O30   1.220942 D    
C16   C24   1.383656 A    
C98   C99   1.405298 A    
C56   C71   1.414940 A    
C25   C33   1.405588 A    
O5    Zn2   2.016475 S    
C14   C54   1.396584 A    
C64   H16   1.079572 S    
C28   C104  1.491439 S    
C40   C48   1.420383 A    
C32   C40   1.404943 A    
O7    C4    1.287817 A    
C9    C17   1.391427 A    
C11   C19   1.383686 A    
C30   C106  1.494318 S    
C10   C18   1.387962 A    
C81   C93   1.405670 A    
C96   H28   1.083357 S    
C50   C65   1.412024 A    
C82   C90   1.408480 A    
C78   N4    1.365702 A    
C49   C66   1.416218 A    
C34   C58   1.404400 A    
C94   H26   1.083321 S    
