data_mof_unit_28910.cif
_audit_creation_date              2012-10-26T20:53:37-0400
_audit_creation_method            fapswitch 2.2
_symmetry_space_group_name_H-M    P1
_symmetry_Int_Tables_number       1
_space_group_crystal_system       triclinic
_cell_length_a                    13.030861
_cell_length_b                    17.755429
_cell_length_c                    16.577941
_cell_angle_alpha                 90.54299
_cell_angle_beta                  96.185092
_cell_angle_gamma                 93.995938
_cell_volume                      3803.45878703

loop_
_atom_site_label
_atom_site_type_symbol
_atom_type_description
_atom_site_fract_x
_atom_site_fract_y
_atom_site_fract_z
_atom_type_partial_charge
C1    C     C_R   0.499876 0.355793 0.499640 0.599197
C2    C     C_R   0.473932 0.115080 0.486424 -0.089939
C3    C     C_1   0.462631 0.966178 0.487610 0.147205
C4    C     C_1   0.467426 0.033884 0.486387 0.155140
C5    C     C_R   0.553778 0.554679 0.835930 0.211712
C6    C     C_R   0.450748 0.442201 0.164035 0.194595
C7    C     C_R   0.567043 0.547607 0.752331 0.156114
C8    C     C_R   0.452003 0.441238 0.249942 0.131647
C9    C     C_R   0.434057 0.448376 0.735351 0.370291
C10   C     C_R   0.549273 0.559683 0.262211 0.381928
C11   C     C_R   0.435048 0.444215 0.822085 -0.022075
C12   C     C_R   0.497320 0.645070 0.499869 0.584103
C13   C     C_R   0.545061 0.564059 0.175530 -0.018951
C14   C     C_R   0.490654 0.501067 0.872532 -0.057305
C15   C     C_R   0.498443 0.503258 0.126035 -0.059699
C16   C     C_R   0.300739 0.504087 0.484739 0.545391
C17   C     C_R   0.699630 0.498394 0.515207 0.558978
C18   C     C_1   0.492452 0.501690 0.962123 0.114971
C19   C     C_1   0.495287 0.502940 0.036373 0.114974
C20   C     C_R   0.812591 0.496836 0.524553 -0.050914
C21   C     C_R   0.188534 0.511566 0.475312 -0.041996
C22   C     C_R   0.025744 0.532174 0.394754 0.281406
C23   C     C_R   0.485183 0.728349 0.497576 -0.027489
C24   C     C_R   0.976635 0.487524 0.607586 0.284448
C25   C     C_R   0.133856 0.526658 0.399549 0.275623
C26   C     C_R   0.868190 0.481118 0.599595 0.276273
C27   C     C_R   0.136119 0.504355 0.544308 -0.195122
C28   C     C_R   0.865608 0.511470 0.456834 -0.180051
C29   C     C_R   0.028921 0.502378 0.538682 -0.048105
C30   C     C_R   0.973128 0.514808 0.462938 -0.037132
C31   C     C_R   0.461071 0.848379 0.565305 0.013142
C32   C     C_R   0.561514 0.155066 0.459674 0.040293
C33   C     C_R   0.485641 0.771988 0.569755 0.214929
C34   C     C_R   0.493251 0.273211 0.497574 0.009286
C35   C     C_R   0.569842 0.234822 0.464077 0.203393
C36   C     C_3   0.269677 0.392578 0.696383 -0.020706
C37   C     C_3   0.707710 0.620534 0.305658 -0.058051
C38   C     C_2   0.385116 0.377699 0.859356 0.572989
C39   C     C_2   0.587014 0.633246 0.137578 0.549324
C40   C     C_3   0.798547 0.382236 0.665566 -0.046055
C41   C     C_3   0.155323 0.498630 0.266249 -0.052555
C42   C     C_3   0.978485 0.633078 0.320592 -0.134099
C43   C     C_3   0.044199 0.539727 0.728636 -0.100088
C44   C     C_2   0.433595 0.887266 0.639656 0.600336
C45   C     C_R   0.468489 0.764498 0.421590 0.202289
C46   C     C_2   0.646151 0.114073 0.429378 0.592176
C47   C     C_3   0.605419 0.773390 0.680914 -0.059719
C48   C     C_3   0.656391 0.282626 0.360101 -0.039133
C49   C     C_3   0.353250 0.703704 0.326279 -0.031211
C50   C     C_3   0.253673 0.287006 0.500799 -0.089632
C51   C     C_2   0.462014 0.880468 0.337466 0.623576
C52   C     C_2   0.307469 0.112655 0.553173 0.630157
C53   C     C_3   0.551777 0.672254 0.889321 -0.099487
C54   C     C_3   0.299455 0.391312 0.097796 -0.059000
C55   C     C_2   0.665766 0.582557 0.727653 0.660650
C56   C     C_R   0.407594 0.233190 0.525836 0.222557
C57   C     C_2   0.399761 0.374277 0.283785 0.629776
C58   C     C_R   0.464227 0.843367 0.417980 0.022045
C59   C     C_R   0.397640 0.153867 0.520862 0.036311
C60   C     C_R   0.460202 0.885158 0.490127 -0.107110
Cu1   Cu    Cu3+1 0.500000 0.499980 0.580420 1.091278
Cu2   Cu    Cu3+1 0.500000 0.500020 0.419580 1.055994
H1    H     H_    0.822758 0.519460 0.398648 0.175615
H2    H     H_    0.676522 0.678653 0.056143 0.346327
H3    H     H_    0.872116 0.353445 0.671623 0.149429
H4    H     H_    0.748741 0.361712 0.609792 0.135858
H5    H     H_    0.756496 0.366436 0.718325 0.161308
H6    H     H_    0.093973 0.524483 0.226387 0.162590
H7    H     H_    0.128603 0.440234 0.282419 0.143460
H8    H     H_    0.221629 0.494434 0.230248 0.127589
H9    H     H_    0.059777 0.656003 0.318344 0.154006
H10   H     H_    0.945710 0.658439 0.373013 0.107429
H11   H     H_    0.932792 0.650423 0.264356 0.142300
H12   H     H_    0.179255 0.499716 0.602941 0.170993
H13   H     H_    0.968596 0.559019 0.742793 0.194342
H14   H     H_    0.087960 0.585325 0.698231 0.105459
H15   H     H_    0.090035 0.528391 0.787040 0.147593
H16   H     H_    0.369993 0.877229 0.745189 0.341945
H17   H     H_    0.686518 0.027345 0.362702 0.349397
H18   H     H_    0.599240 0.832041 0.702309 0.130218
H19   H     H_    0.666762 0.772515 0.639074 0.118017
H20   H     H_    0.630922 0.741410 0.735582 0.157885
H21   H     H_    0.612317 0.235182 0.324198 0.154284
H22   H     H_    0.737060 0.284741 0.344198 0.151843
H23   H     H_    0.245637 0.445077 0.724204 0.088114
H24   H     H_    0.624492 0.336799 0.341345 0.163189
H25   H     H_    0.311164 0.754617 0.309424 0.111064
H26   H     H_    0.316097 0.672600 0.374754 0.126709
H27   H     H_    0.346211 0.665837 0.272044 0.170662
H28   H     H_    0.181556 0.290774 0.530056 0.146933
H29   H     H_    0.237054 0.242468 0.452317 0.105730
H30   H     H_    0.271706 0.342535 0.473819 0.135311
H31   H     H_    0.511553 0.882672 0.226209 0.350936
H32   H     H_    0.209173 0.106525 0.639404 0.343141
H33   H     H_    0.489905 0.659329 0.929389 0.135309
H34   H     H_    0.249234 0.343138 0.733236 0.179159
H35   H     H_    0.516929 0.690351 0.828904 0.129243
H36   H     H_    0.602238 0.720672 0.916926 0.151159
H37   H     H_    0.286644 0.445852 0.066980 0.119806
H38   H     H_    0.265352 0.345161 0.055614 0.197551
H39   H     H_    0.257411 0.387245 0.152528 0.100873
H40   H     H_    0.742416 0.643263 0.648206 0.307587
H41   H     H_    0.276113 0.330160 0.334022 0.308190
H42   H     H_    0.223291 0.382976 0.636898 0.148916
H43   H     H_    0.730328 0.667098 0.265630 0.157599
H44   H     H_    0.736021 0.566859 0.284003 0.100885
H45   H     H_    0.747838 0.634409 0.366935 0.126547
H46   H     H_    0.364117 0.264200 0.862743 0.352468
N1    N     N_R   0.499970 0.499970 0.701220 -0.277867
N2    N     N_R   0.500030 0.500030 0.298780 -0.286363
O1    O     O_R   0.499990 0.391240 0.567930 -0.431441
O2    O     O_3   0.600012 0.617514 0.310700 -0.458953
O3    O     O_2   0.328511 0.386218 0.912375 -0.549179
O4    O     O_R   0.402662 0.305073 0.833196 -0.635187
O5    O     O_2   0.567155 0.695372 0.161607 -0.456730
O6    O     O_R   0.650426 0.627495 0.075299 -0.677173
O7    O     O_3   0.817664 0.461409 0.666285 -0.519542
O8    O     O_3   0.188654 0.545773 0.334450 -0.574818
O9    O     O_3   0.971231 0.553521 0.323366 -0.592154
O10   O     O_3   0.030885 0.472601 0.681417 -0.579986
O11   O     O_2   0.454366 0.954971 0.651354 -0.514313
O12   O     O_R   0.500010 0.608760 0.432070 -0.422257
O13   O     O_R   0.384188 0.845289 0.697147 -0.655129
O14   O     O_2   0.736561 0.136564 0.447912 -0.468078
O15   O     O_R   0.622492 0.050159 0.379085 -0.683935
O16   O     O_3   0.509475 0.739692 0.644685 -0.504733
O17   O     O_3   0.658760 0.275277 0.445077 -0.560638
O18   O     O_3   0.459226 0.723085 0.349718 -0.457820
O19   O     O_3   0.334423 0.271678 0.560874 -0.488003
O20   O     O_2   0.409117 0.933883 0.322335 -0.490289
O21   O     O_R   0.519719 0.853334 0.278404 -0.605087
O22   O     O_2   0.264497 0.056402 0.517766 -0.504400
O23   O     O_R   0.500000 0.391270 0.432120 -0.506866
O24   O     O_R   0.270927 0.138898 0.623820 -0.618883
O25   O     O_3   0.612319 0.609986 0.883310 -0.517084
O26   O     O_3   0.405705 0.381198 0.117026 -0.513767
O27   O     O_2   0.746063 0.575967 0.771790 -0.469881
O28   O     O_R   0.669436 0.624065 0.657181 -0.666863
O29   O     O_2   0.430096 0.311796 0.272467 -0.516273
O30   O     O_R   0.310775 0.381067 0.322087 -0.712134
O31   O     O_R   0.500000 0.608730 0.567880 -0.429076
O32   O     O_R   0.348990 0.499980 0.556880 -0.510135
O33   O     O_R   0.651010 0.500020 0.443120 -0.519160
O34   O     O_R   0.349000 0.500000 0.421060 -0.427756
O35   O     O_R   0.651000 0.500000 0.578940 -0.444796
O36   O     O_3   0.375715 0.395360 0.684314 -0.467092

loop_
_geom_bond_atom_site_label_1
_geom_bond_atom_site_label_2
_ccdc_geom_bond_type
C34   C56   A    
C16   C21   S    
H2    O6    S    
C53   H33   S    
C52   O24   S    
C49   H25   S    
C54   H39   S    
C17   O35   A    
C53   O25   S    
C26   O7    S    
C7    C55   S    
Cu2   O33   S    
Cu1   N1    S    
C25   O8    S    
C15   C19   S    
C12   C23   S    
C55   O28   S    
C23   C45   A    
Cu2   O23   S    
C16   O34   A    
C24   C26   A    
C34   C35   A    
C38   O4    S    
C11   C14   A    
C42   O9    S    
C27   C29   A    
C45   O18   S    
C58   C60   A    
C9    O36   S    
C17   C20   S    
C12   O31   A    
C57   O29   D    
C2    C32   A    
C18   C19   T    
H40   O28   S    
C47   H20   S    
H46   O4    S    
C14   C18   S    
C24   C29   A    
C42   H9    S    
C37   O2    S    
C6    O26   S    
C46   O15   S    
C6    C15   A    
C50   H28   S    
C23   C33   A    
C22   C25   A    
C31   C33   A    
C10   O2    S    
C36   H34   S    
C41   O8    S    
C27   H12   S    
C56   O19   S    
C43   O10   S    
C3    C60   S    
C40   O7    S    
C21   C27   A    
C40   H4    S    
C9    N1    A    
C49   H26   S    
C46   O14   D    
C47   H18   S    
C1    O23   A    
C51   O20   D    
C54   H38   S    
C1    C34   S    
C41   H6    S    
C43   H13   S    
C22   O9    S    
C50   O19   S    
C45   C58   A    
C24   O10   S    
C31   C44   S    
C52   O22   D    
C32   C35   A    
C49   H27   S    
C5    C7    A    
C38   O3    D    
C51   O21   S    
C2    C59   A    
C6    C8    A    
C20   C28   A    
C53   H35   S    
C40   H5    S    
C7    N1    A    
C57   O30   S    
C31   C60   A    
C11   C38   S    
C16   O32   A    
C37   H43   S    
C29   C30   A    
C52   C59   S    
C8    N2    A    
C8    C57   S    
C50   H29   S    
Cu2   N2    S    
C54   O26   S    
C42   H10   S    
C51   C58   S    
C35   O17   S    
H16   O13   S    
C9    C11   A    
C5    C14   A    
C36   O36   S    
C39   O5    D    
C40   H3    S    
C13   C15   A    
C53   H36   S    
C48   H24   S    
C54   H37   S    
C3    C4    T    
Cu1   O1    S    
C44   O11   D    
Cu2   O12   S    
C47   O16   S    
C41   H7    S    
Cu1   O31   S    
C43   H14   S    
C5    O25   S    
C49   O18   S    
C21   C25   A    
C50   H30   S    
C42   H11   S    
C22   C30   A    
C32   C46   S    
Cu2   O34   S    
C10   C13   A    
C48   H21   S    
C37   H45   S    
C36   H23   S    
C43   H15   S    
C44   O13   S    
C55   O27   D    
C56   C59   A    
C17   O33   A    
C36   H42   S    
C28   C30   A    
C37   H44   S    
H41   O30   S    
C1    O1    A    
C48   O17   S    
C20   C26   A    
C2    C4    S    
Cu1   O35   S    
C33   O16   S    
H32   O24   S    
C10   N2    A    
C47   H19   S    
H17   O15   S    
Cu1   Cu2   S    
C13   C39   S    
C28   H1    S    
C48   H22   S    
Cu1   O32   S    
C12   O12   A    
C39   O6    S    
H31   O21   S    
C41   H8    S    
