data_mof_unit_35407.cif
_audit_creation_date              2012-12-10T18:48:42-0500
_audit_creation_method            fapswitch 2.2
_symmetry_space_group_name_H-M    P1
_symmetry_Int_Tables_number       1
_space_group_crystal_system       triclinic
_cell_length_a                    15.220706
_cell_length_b                    15.083794
_cell_length_c                    9.805951
_cell_angle_alpha                 87.271345
_cell_angle_beta                  89.999698
_cell_angle_gamma                 89.999978
_cell_volume                      2248.75645135

loop_
_atom_site_label
_atom_site_type_symbol
_atom_type_description
_atom_site_fract_x
_atom_site_fract_y
_atom_site_fract_z
_atom_type_partial_charge
C1    C     C_R   0.126570 0.386478 0.501996 0.918655
C2    C     C_R   0.000002 0.422018 0.933758 0.499984
C3    C     C_R   0.000002 0.421953 0.077777 0.515201
C4    C     C_R   0.999998 0.578047 0.922223 0.515202
C5    C     C_R   0.499998 0.077982 0.066242 0.499983
C6    C     C_R   0.500002 0.922018 0.933758 0.499984
C7    C     C_R   0.500002 0.921952 0.077777 0.515202
C8    C     C_R   0.499998 0.078047 0.922223 0.515202
C9    C     C_R   0.760601 0.305565 0.381995 0.136528
C10   C     C_R   0.239399 0.694434 0.618005 0.136527
C11   C     C_R   0.218278 0.724987 0.372798 0.172789
C12   C     C_R   0.873430 0.613522 0.498003 0.918655
C13   C     C_R   0.781721 0.275013 0.627202 0.172789
C14   C     C_R   0.218280 0.275015 0.627201 0.172793
C15   C     C_R   0.781720 0.724984 0.372799 0.172792
C16   C     C_R   0.760603 0.694437 0.618006 0.136531
C17   C     C_R   0.239397 0.305563 0.381994 0.136530
C18   C     C_R   0.260601 0.805565 0.381995 0.136527
C19   C     C_R   0.739399 0.194435 0.618005 0.136528
C20   C     C_R   0.718278 0.224987 0.372798 0.172789
C21   C     C_R   0.281721 0.775013 0.627202 0.172789
C22   C     C_R   0.718280 0.775015 0.627201 0.172792
C23   C     C_R   0.873430 0.386478 0.501997 0.918654
C24   C     C_R   0.281720 0.224984 0.372799 0.172792
C25   C     C_R   0.260603 0.194437 0.618006 0.136530
C26   C     C_R   0.739397 0.805563 0.381994 0.136530
C27   C     C_R   0.199908 0.674244 0.493789 -0.274489
C28   C     C_R   0.800092 0.325756 0.506211 -0.274489
C29   C     C_R   0.800092 0.674244 0.493790 -0.274495
C30   C     C_R   0.199908 0.325756 0.506209 -0.274495
C31   C     C_R   0.699908 0.174244 0.493789 -0.274490
C32   C     C_R   0.300092 0.825756 0.506211 -0.274489
C33   C     C_R   0.300092 0.174244 0.493790 -0.274495
C34   C     C_R   0.126570 0.613522 0.498003 0.918654
C35   C     C_R   0.699908 0.825756 0.506209 -0.274495
C36   C     C_R   0.626570 0.886478 0.501996 0.918655
C37   C     C_R   0.373430 0.113522 0.498003 0.918655
C38   C     C_R   0.373430 0.886478 0.501997 0.918654
C39   C     C_R   0.626570 0.113522 0.498003 0.918654
C40   C     C_R   0.999998 0.577982 0.066242 0.499984
F1    F     F_    0.999995 0.656070 0.128873 -0.556148
F2    F     F_    0.000005 0.343930 0.871127 -0.556148
F3    F     F_    0.000004 0.343760 0.151800 -0.554789
F4    F     F_    0.999996 0.656240 0.848200 -0.554789
F5    F     F_    0.499995 0.156070 0.128873 -0.556148
F6    F     F_    0.500005 0.843930 0.871127 -0.556148
F7    F     F_    0.500004 0.843760 0.151800 -0.554789
F8    F     F_    0.499996 0.156240 0.848200 -0.554789
I1    I     I_    0.748000 0.403143 0.215680 -0.137828
I2    I     I_    0.752000 0.096857 0.784320 -0.137828
I3    I     I_    0.706295 0.173902 0.173504 -0.061101
I4    I     I_    0.293705 0.826098 0.826496 -0.061102
I5    I     I_    0.706300 0.826105 0.826490 -0.061095
I6    I     I_    0.293700 0.173895 0.173510 -0.061095
I7    I     I_    0.248002 0.096863 0.784324 -0.137818
I8    I     I_    0.751997 0.903137 0.215675 -0.137818
I9    I     I_    0.252000 0.596857 0.784320 -0.137828
I10   I     I_    0.206295 0.673902 0.173503 -0.061102
I11   I     I_    0.793705 0.326098 0.826496 -0.061102
I12   I     I_    0.206300 0.326104 0.826490 -0.061095
I13   I     I_    0.793700 0.673895 0.173510 -0.061095
I14   I     I_    0.748003 0.596863 0.784325 -0.137818
I15   I     I_    0.251997 0.403137 0.215675 -0.137818
I16   I     I_    0.247999 0.903143 0.215680 -0.137828
N1    N     N_R   0.000000 0.500000 0.857200 -0.258863
N2    N     N_R   0.000000 0.500000 0.142800 -0.258863
N3    N     N_R   0.500000 0.000000 0.857200 -0.258863
N4    N     N_R   0.500000 0.000000 0.142800 -0.258863
O1    O     O_R   0.091610 0.408380 0.614620 -0.571794
O2    O     O_R   0.408390 0.091620 0.385380 -0.571794
O3    O     O_R   0.408390 0.091620 0.614620 -0.561435
O4    O     O_R   0.591610 0.908380 0.385380 -0.561436
O5    O     O_R   0.408390 0.908380 0.385380 -0.561437
O6    O     O_R   0.591610 0.091620 0.614620 -0.561437
O7    O     O_R   0.591610 0.091620 0.385380 -0.571799
O8    O     O_R   0.408390 0.908380 0.614620 -0.571799
O9    O     O_R   0.908390 0.591620 0.385380 -0.571794
O10   O     O_R   0.908390 0.591620 0.614620 -0.561435
O11   O     O_R   0.091610 0.408380 0.385380 -0.561436
O12   O     O_R   0.908390 0.408380 0.385380 -0.561437
O13   O     O_R   0.091610 0.591620 0.614620 -0.561437
O14   O     O_R   0.091610 0.591620 0.385380 -0.571799
O15   O     O_R   0.908390 0.408380 0.614620 -0.571799
O16   O     O_R   0.591610 0.908380 0.614620 -0.571794
Zn1   Zn    Zn3+2 0.000000 0.500000 0.653120 1.111959
Zn2   Zn    Zn3+2 0.000000 0.500000 0.346880 1.111959
Zn3   Zn    Zn3+2 0.500000 1.000000 0.653120 1.111959
Zn4   Zn    Zn3+2 0.500000 1.000000 0.346880 1.111959

loop_
_geom_bond_atom_site_label_1
_geom_bond_atom_site_label_2
_ccdc_geom_bond_type
C10   C27   A    
C11   C18   A    
C12   C29   S    
C35   C36   S    
O16   Zn3   S    
C2    N1    A    
O2    Zn4   S    
C38   O8    A    
C22   C35   A    
C3    F3    S    
C23   O15   A    
C2    F2    S    
C20   I3    S    
C4    N1    A    
N4    Zn4   S    
C24   I6    S    
C39   O6    A    
O12   Zn2   S    
C7    N4    A    
C4    C40   A    
C12   O10   A    
C13   C28   A    
C34   O13   A    
C32   C38   S    
O6    Zn3   S    
C11   I10   S    
C19   C31   A    
C10   C21   A    
C40   N2    A    
C37   O2    A    
C17   C30   A    
C16   I14   S    
C14   C30   A    
C5    N4    A    
O4    Zn4   S    
C15   C29   A    
C22   I5    S    
C27   C34   S    
C21   C32   A    
C17   C24   A    
C13   C19   A    
C10   I9    S    
C9    I1    S    
C15   C26   A    
C4    F4    S    
C16   C29   A    
O14   Zn2   S    
C5    F5    S    
C1    O1    A    
C7    F7    S    
C8    F8    S    
O5    Zn4   S    
C26   C35   A    
C9    C20   A    
C11   C27   A    
C12   O9    A    
C15   I13   S    
C23   C28   S    
O8    Zn3   S    
O3    Zn3   S    
O10   Zn1   S    
C6    N3    A    
O15   Zn1   S    
O9    Zn2   S    
C39   O7    A    
C37   O3    A    
C23   O12   A    
C3    N2    A    
C18   C32   A    
O1    Zn1   S    
C40   F1    S    
C16   C22   A    
C6    F6    S    
C25   I7    S    
C26   I8    S    
N2    Zn2   S    
C5    C8    A    
N1    Zn1   S    
C6    C7    A    
C13   I11   S    
C14   I12   S    
N3    Zn3   S    
C24   C33   A    
C2    C3    A    
C17   I15   S    
C19   I2    S    
C18   I16   S    
C36   O16   A    
C1    O11   A    
C1    C30   S    
C31   C39   S    
O11   Zn2   S    
C14   C25   A    
C33   C37   S    
O7    Zn4   S    
C8    N3    A    
C34   O14   A    
C20   C31   A    
C21   I4    S    
O13   Zn1   S    
C36   O4    A    
C9    C28   A    
C25   C33   A    
C38   O5    A    
