data_mof_unit_43381.cif
_audit_creation_date              2012-12-10T20:31:56-0500
_audit_creation_method            fapswitch 2.2
_symmetry_space_group_name_H-M    P1
_symmetry_Int_Tables_number       1
_space_group_crystal_system       triclinic
_cell_length_a                    9.890384
_cell_length_b                    10.723312
_cell_length_c                    15.405125
_cell_angle_alpha                 90.078118
_cell_angle_beta                  68.198829
_cell_angle_gamma                 88.984051
_cell_volume                      1516.6831245

loop_
_atom_site_label
_atom_site_type_symbol
_atom_type_description
_atom_site_fract_x
_atom_site_fract_y
_atom_site_fract_z
_atom_type_partial_charge
C1    C     C_R   0.497018 0.739955 0.502592 0.953198
C2    C     C_R   0.429560 0.426394 0.905414 -0.000692
C3    C     C_R   0.291368 0.375910 0.954514 0.099740
C4    C     C_R   0.538512 0.419202 0.943599 -0.042126
C5    C     C_R   0.495436 0.403594 0.040782 -0.012247
C6    C     C_R   0.353966 0.359009 0.091351 -0.184298
C7    C     C_R   0.256083 0.338920 0.047025 -0.194368
C8    C     C_R   0.689275 0.422306 0.887542 0.517628
C9    C     C_R   0.790022 0.440304 0.929687 -0.365074
C10   C     C_R   0.743573 0.453570 0.026440 0.081694
C11   C     C_R   0.596017 0.433512 0.082909 0.087373
C12   C     C_R   0.409160 0.499688 0.676236 0.906638
C13   C     C_R   0.842771 0.487457 0.067232 -0.241995
C14   C     C_R   0.797927 0.501539 0.164000 -0.008126
C15   C     C_R   0.551191 0.453128 0.179080 -0.234838
C16   C     C_R   0.372454 0.943521 0.540141 -0.032959
C17   C     C_R   0.498099 0.871744 0.493965 -0.205805
C18   C     C_R   0.621724 0.929125 0.428031 0.433213
C19   C     C_R   0.630276 0.059984 0.428902 -0.145177
C20   C     C_R   0.508053 0.129096 0.487455 -0.172222
C21   C     C_R   0.379865 0.069399 0.536165 0.005500
C22   C     C_3   0.267067 0.092638 0.630440 -0.293355
C23   C     C_R   0.504089 0.260815 0.495058 0.921851
C24   C     C_3   0.245532 0.950874 0.633658 0.299967
C25   C     C_R   0.886589 0.551844 0.572069 0.278883
C26   C     C_R   0.965520 0.431568 0.436393 -0.166448
C27   C     C_R   0.108739 0.428519 0.437830 0.014799
C28   C     C_R   0.027467 0.549620 0.573016 0.142676
C29   C     C_3   0.011018 0.676068 0.613913 -0.276380
C30   C     C_3   0.860718 0.682616 0.607193 -0.527124
C31   C     C_R   0.591475 0.497536 0.323494 0.851406
C32   C     C_R   0.355196 0.476263 0.776582 -0.204824
C33   C     C_R   0.649713 0.485015 0.220857 -0.106378
C34   C     C_R   0.190097 0.367474 0.910936 -0.233141
C35   C     C_R   0.223937 0.414121 0.820884 -0.247634
C36   C     C_R   0.450306 0.493660 0.823928 0.486496
H1    H     H_    0.150067 0.301267 0.086593 0.153313
H2    H     H_    0.954664 0.506095 0.023511 0.159405
H3    H     H_    0.172094 0.148985 0.629741 0.128535
H4    H     H_    0.142531 0.924987 0.625306 0.050929
H5    H     H_    0.941208 0.378217 0.384659 0.175673
H6    H     H_    0.437312 0.448886 0.222094 0.172766
H7    H     H_    0.091219 0.742699 0.569274 0.171670
H8    H     H_    0.768297 0.688291 0.674708 0.251291
H9    H     H_    0.854110 0.749086 0.553490 0.216184
H10   H     H_    0.904080 0.446720 0.886296 0.182573
H11   H     H_    0.087265 0.321768 0.945255 0.149751
H12   H     H_    0.150458 0.397957 0.784772 0.180397
H13   H     H_    0.319121 0.333761 0.163903 0.161867
N1    N     N_R   0.856900 0.500860 0.500610 -0.123138
N2    N     N_R   0.142540 0.500820 0.500610 -0.140371
O1    O     O_R   0.385310 0.683210 0.499990 -0.635271
O2    O     O_R   0.614650 0.683240 0.500000 -0.572672
O3    O     O_R   0.319830 0.499970 0.632240 -0.618468
O4    O     O_R   0.549170 0.500000 0.632250 -0.582859
O5    O     O_R   0.385350 0.316760 0.500000 -0.614899
O6    O     O_R   0.614690 0.316790 0.500010 -0.630115
O7    O     O_R   0.450830 0.500000 0.367750 -0.619256
O8    O     O_R   0.680170 0.500030 0.367760 -0.593192
Zn1   Zn    Zn3+2 0.346870 0.499980 0.499990 0.952361
Zn2   Zn    Zn3+2 0.653130 0.500020 0.500010 0.988240
O9    O     O_3   0.733936 0.855544 0.366918 -0.624835
C37   C     C_3   0.740455 0.867552 0.273508 0.086961
H14   H     H_    0.830399 0.805124 0.229163 0.182783
H15   H     H_    0.770428 0.962930 0.246209 0.141242
C38   C     C_3   0.599210 0.829857 0.260957 -0.394209
H16   H     H_    0.562613 0.739302 0.295039 0.229010
H17   H     H_    0.511781 0.900675 0.294496 0.216550
C39   C     C_3   0.621135 0.819709 0.157785 -0.936559
H18   H     H_    0.706550 0.748489 0.121851 0.275745
H19   H     H_    0.517677 0.791709 0.151403 0.272725
H20   H     H_    0.653576 0.911037 0.123013 0.264316
C40   C     C_1   0.763633 0.120391 0.372755 0.211047
N3    N     N_1   0.870550 0.167903 0.327266 -0.239000
C41   C     C_1   0.335856 0.139527 0.694241 0.250767
N4    N     N_1   0.391860 0.173855 0.743548 -0.233035
O10   O     O_3   0.267511 0.891912 0.709813 -0.636410
C42   C     C_3   0.141444 0.915170 0.791887 0.100239
H21   H     H_    0.040882 0.885225 0.782367 0.138683
H22   H     H_    0.126569 0.016126 0.809949 0.136295
C43   C     C_3   0.155018 0.847198 0.875309 -0.333148
H23   H     H_    0.176843 0.746510 0.858228 0.228450
H24   H     H_    0.246828 0.886830 0.890551 0.209228
C44   C     C_3   0.016356 0.861099 0.962505 -0.966868
H25   H     H_    0.990361 0.961158 0.981093 0.260495
H26   H     H_    0.031914 0.813133 0.022069 0.265324
H27   H     H_    0.923647 0.817847 0.950505 0.274363
C45   C     C_1   0.212860 0.339260 0.379229 0.228231
N5    N     N_1   0.295350 0.265413 0.333360 -0.239374
C46   C     C_1   0.004427 0.664462 0.710232 0.279483
N6    N     N_1   0.998283 0.651745 0.786077 -0.243934
C47   C     C_1   0.905775 0.537418 0.201317 0.175193
N7    N     N_1   0.992727 0.566271 0.230749 -0.200306
O11   O     O_3   0.551836 0.588126 0.798333 -0.589232
C48   C     C_3   0.476962 0.703585 0.829392 0.051943
H28   H     H_    0.379445 0.694489 0.895435 0.116616
H29   H     H_    0.441675 0.740680 0.773706 0.155086
C49   C     C_3   0.573541 0.800730 0.849635 -0.349313
H30   H     H_    0.666939 0.824694 0.785591 0.207276
H31   H     H_    0.507958 0.888035 0.874162 0.178885
C50   C     C_3   0.628420 0.758122 0.925242 -0.787774
H32   H     H_    0.537056 0.725179 0.987703 0.250903
H33   H     H_    0.680517 0.837349 0.946265 0.226724
H34   H     H_    0.710430 0.682004 0.897988 0.292972
O12   O     O_3   0.740266 0.404038 0.791700 -0.606823
C51   C     C_3   0.749799 0.274286 0.773423 0.040448
H35   H     H_    0.640530 0.231467 0.805003 0.152844
H36   H     H_    0.826217 0.228123 0.802004 0.124934
C52   C     C_3   0.807203 0.251751 0.667843 -0.287897
H37   H     H_    0.734141 0.299864 0.638017 0.260042
H38   H     H_    0.917923 0.290893 0.635563 0.204803
C53   C     C_3   0.814882 0.112874 0.644082 -0.970751
H39   H     H_    0.888820 0.062724 0.672257 0.244559
H40   H     H_    0.857486 0.100122 0.566955 0.276803
H41   H     H_    0.704765 0.072041 0.673824 0.276938

loop_
_geom_bond_atom_site_label_1
_geom_bond_atom_site_label_2
_ccdc_geom_bond_type
C38   H17   S    
C37   H15   S    
C16   C21   A    
C40   N3    T    
C30   H9    S    
C48   H28   S    
C44   H27   S    
C4    C8    A    
C8    O12   S    
C14   C33   A    
C53   H40   S    
C43   H23   S    
C48   C49   S    
C23   O5    A    
O3    Zn1   S    
O10   C42   S    
C25   C28   A    
C26   C27   A    
O9    C37   S    
C27   C45   S    
C32   C36   A    
C31   O7    A    
C28   C29   S    
C44   H26   S    
C5    C11   A    
C3    C7    A    
C52   H38   S    
C5    C6    A    
C28   N2    A    
C42   H22   S    
C38   C39   S    
C51   H35   S    
O7    Zn1   S    
C34   C35   A    
C31   O8    A    
C39   H19   S    
C1    O2    A    
C25   N1    A    
C53   H39   S    
O1    Zn1   S    
O2    Zn2   S    
C19   C20   A    
C8    C9    A    
C31   C33   S    
C9    C10   A    
C38   H16   S    
C37   C38   S    
C9    H10   S    
C16   C24   S    
C21   C22   S    
C12   C32   S    
C30   H8    S    
C39   H18   S    
C11   C15   A    
C22   C41   S    
C35   H12   S    
C29   C46   S    
C43   H24   S    
C27   N2    A    
O8    Zn2   S    
C50   H32   S    
C19   C40   S    
C44   H25   S    
C52   C53   S    
C42   H21   S    
C18   C19   A    
C3    C34   A    
O5    Zn1   S    
C39   H20   S    
C2    C4    A    
C41   N4    T    
C32   C35   A    
C29   C30   S    
C20   C23   S    
C17   C18   A    
C7    H1    S    
C20   C21   A    
C14   C47   S    
C13   H2    S    
C29   H7    S    
C50   H34   S    
C49   H31   S    
C22   C24   S    
C43   C44   S    
C2    C36   A    
C25   C30   S    
C23   O6    A    
C18   O9    S    
C15   H6    S    
C4    C5    A    
C10   C13   A    
C48   H29   S    
O6    Zn2   S    
C6    C7    A    
N2    Zn1   S    
C49   C50   S    
O12   C51   S    
C1    C17   S    
C26   N1    A    
C2    C3    A    
C52   H37   S    
C42   C43   S    
C46   N6    T    
C16   C17   A    
C51   H36   S    
C22   H3    S    
O4    Zn2   S    
C47   N7    T    
C24   H4    S    
C6    H13   S    
O11   C48   S    
C1    O1    A    
C12   O4    A    
C10   C11   A    
C37   H14   S    
C36   O11   S    
C24   O10   S    
C45   N5    T    
C50   H33   S    
C49   H30   S    
N1    Zn2   S    
C34   H11   S    
C13   C14   A    
C15   C33   A    
C53   H41   S    
C12   O3    A    
C26   H5    S    
C51   C52   S    
