data_mof_unit_56426.cif
_audit_creation_date              2012-12-11T18:04:47-0500
_audit_creation_method            fapswitch 2.2
_symmetry_space_group_name_H-M    P1
_symmetry_Int_Tables_number       1
_space_group_crystal_system       triclinic
_cell_length_a                    8.321144
_cell_length_b                    12.813757
_cell_length_c                    22.905385
_cell_angle_alpha                 96.717607
_cell_angle_beta                  89.546327
_cell_angle_gamma                 98.965117
_cell_volume                      2395.75845209

loop_
_atom_site_label
_atom_site_type_symbol
_atom_type_description
_atom_site_fract_x
_atom_site_fract_y
_atom_site_fract_z
_atom_type_partial_charge
Ba1   Ba    Ba6+2 0.856210 0.551220 0.472190 1.699323
Ba2   Ba    Ba6+2 0.333620 0.448870 0.527810 1.686885
C1    C     C_3   0.675496 0.909954 0.273850 -0.256719
C2    C     C_3   0.685910 0.830601 0.318709 0.289237
C3    C     C_3   0.409386 0.240949 0.347094 0.303844
C4    C     C_3   0.319013 0.158640 0.299397 -0.297219
C5    C     C_3   0.983066 0.209936 0.684580 0.439468
C6    C     C_3   0.933304 0.163537 0.741679 -0.037181
C7    C     C_3   0.486662 0.178541 0.690432 0.320563
C8    C     C_3   0.409904 0.089324 0.724858 -0.298218
C9    C     C_R   0.334401 0.537346 0.333663 -0.260123
C10   C     C_R   0.089746 0.598846 0.943795 -0.082868
C11   C     C_R   0.052467 0.589679 0.881990 0.587774
C12   C     C_3   0.129645 0.819793 0.305781 0.609706
C13   C     C_R   0.960976 0.402777 0.880626 0.583489
C14   C     C_R   0.006094 0.406746 0.939969 -0.012884
C15   C     C_R   0.070040 0.504656 0.971952 -0.039633
C16   C     C_R   0.148558 0.697426 0.978678 -0.050258
C17   C     C_R   0.192364 0.697972 0.038125 -0.033003
C18   C     C_R   0.175416 0.604293 0.065481 -0.037535
C19   C     C_R   0.113406 0.507471 0.032427 -0.050146
C20   C     C_R   0.987119 0.313333 0.967949 -0.065690
C21   C     C_R   0.031283 0.316325 0.026663 -0.059063
C22   C     C_R   0.094597 0.412950 0.059742 -0.029544
C23   C     C_3   0.090437 0.876575 0.252860 -0.321407
C24   C     C_R   0.140102 0.416630 0.119448 0.606294
C25   C     C_R   0.216747 0.605950 0.125640 0.601146
C26   C     C_2   0.791839 0.430334 0.769110 -0.128431
C27   C     C_3   0.759285 0.400365 0.703888 -0.057759
C28   C     C_1   0.005293 0.526177 0.686706 0.001890
C29   C     C_2   0.053044 0.531218 0.742925 -0.121724
C30   C     C_2   0.938915 0.484565 0.788566 0.212975
C31   C     C_R   0.403960 0.565779 0.233215 -0.120033
C32   C     C_R   0.446848 0.576067 0.292859 -0.015374
C33   C     C_R   0.185254 0.477905 0.315126 -0.018280
C34   C     C_3   0.225724 0.771953 0.591191 0.331437
C35   C     C_R   0.140438 0.467846 0.255086 -0.106051
C36   C     C_R   0.247614 0.515459 0.213687 0.199242
C37   C     C_2   0.862058 0.474479 0.667058 -0.257411
C38   C     C_R   0.756643 0.179066 0.525170 -0.271008
C39   C     C_R   0.441254 0.808923 0.469767 -0.271378
C40   C     C_R   0.411498 0.987462 0.453257 -0.107300
C41   C     C_R   0.351977 0.879078 0.446990 0.006042
C42   C     C_R   0.582623 0.846532 0.503727 0.060067
C43   C     C_R   0.643651 0.958046 0.511209 -0.055706
C44   C     C_R   0.556410 0.028798 0.485192 -0.052438
C45   C     C_3   0.273798 0.891722 0.604343 -0.357256
C46   C     C_R   0.614355 0.139689 0.493010 0.031347
C47   C     C_R   0.849312 0.110778 0.547235 -0.010410
C48   C     C_R   0.789768 0.001472 0.542846 -0.104826
C49   C     C_3   0.933390 0.216471 0.390446 0.427472
C50   C     C_3   0.846189 0.113520 0.357982 -0.322248
C51   C     C_3   0.703011 0.706030 0.652280 0.267729
C52   C     C_3   0.727182 0.753353 0.717627 -0.125792
H1    H     H_    0.769845 0.870001 0.354757 0.082645
H2    H     H_    0.386856 0.909688 0.631297 0.096029
H3    H     H_    0.295879 0.928468 0.563194 0.078251
H4    H     H_    0.174717 0.927151 0.627947 0.180203
H5    H     H_    0.841514 0.261894 0.411838 0.020922
H6    H     H_    0.776262 0.132188 0.320743 0.188542
H7    H     H_    0.762469 0.069073 0.387566 0.042711
H8    H     H_    0.936980 0.063138 0.340728 0.116215
H9    H     H_    0.811154 0.671262 0.635728 -0.028121
H10   H     H_    0.595001 0.642975 0.647225 0.078163
H11   H     H_    0.605379 0.971669 0.293139 0.033985
H12   H     H_    0.669050 0.826138 0.724921 0.180173
H13   H     H_    0.568314 0.810187 0.340302 -0.049379
H14   H     H_    0.314783 0.269674 0.376008 0.045259
H15   H     H_    0.257593 0.091315 0.321768 0.076041
H16   H     H_    0.223474 0.193934 0.278582 0.074255
H17   H     H_    0.797828 0.951812 0.264996 0.092652
H18   H     H_    0.181011 0.868643 0.217426 0.107067
H19   H     H_    0.055872 0.290387 0.695020 0.056769
H20   H     H_    0.869011 0.218807 0.661943 -0.273626
H21   H     H_    0.853779 0.215587 0.764999 0.106683
H22   H     H_    0.618451 0.191659 0.700369 -0.061606
H23   H     H_    0.465714 0.153535 0.642571 0.045123
H24   H     H_    0.416691 0.116782 0.772724 0.155878
H25   H     H_    0.476136 0.020500 0.716392 0.084920
H26   H     H_    0.281142 0.062959 0.711336 0.176594
H27   H     H_    0.015023 0.242350 0.046135 0.139148
H28   H     H_    0.938463 0.236798 0.944326 0.138095
H29   H     H_    0.236389 0.773390 0.063871 0.157083
H30   H     H_    0.492308 0.596091 0.201965 0.138837
H31   H     H_    0.175617 0.568481 0.755997 0.127979
H32   H     H_    0.703024 0.397654 0.799732 0.123122
H33   H     H_    0.021986 0.425112 0.240986 0.136800
H34   H     H_    0.368797 0.545707 0.379632 0.101945
H35   H     H_    0.825887 0.472106 0.621441 0.073602
H36   H     H_    0.337991 0.038782 0.435450 0.105093
H37   H     H_    0.861443 0.952020 0.563017 0.121744
H38   H     H_    0.802182 0.263492 0.529335 0.049242
H39   H     H_    0.391970 0.725088 0.465680 0.058615
H40   H     H_    0.971154 0.840703 0.232870 0.179645
H41   H     H_    0.089684 0.962314 0.266061 0.075620
H42   H     H_    0.331427 0.736939 0.573009 -0.021075
H43   H     H_    0.125325 0.755527 0.558371 0.080836
N1    N     N_R   0.985535 0.492797 0.851277 -0.410984
N2    N     N_R   0.199619 0.512597 0.152155 -0.423140
O1    O     O_2   0.890290 0.440320 0.360790 -0.391460
O2    O     O_3   0.677951 0.788945 0.620478 -0.647574
O3    O     O_3   0.066947 0.870299 0.357508 -0.591817
O4    O     O_2   0.299410 0.559720 0.639240 -0.454979
O5    O     O_3   0.058870 0.558650 0.568170 -0.504714
O6    O     O_3   0.517310 0.362160 0.604450 -0.465729
O7    O     O_3   0.176274 0.730540 0.643457 -0.603922
O8    O     O_3   0.614910 0.369290 0.471050 -0.431534
O9    O     O_3   0.099190 0.306290 0.575790 -0.479500
O10   O     O_2   0.191844 0.116692 0.544500 -0.479766
O11   O     O_3   0.076350 0.144308 0.650075 -0.599219
O12   O     O_3   0.130840 0.441440 0.431840 -0.502139
O13   O     O_3   0.574800 0.630800 0.528960 -0.487977
O14   O     O_2   0.344900 0.234690 0.472540 -0.461482
O15   O     O_3   0.521389 0.193897 0.376953 -0.649075
O16   O     O_2   0.457638 0.474471 0.705020 -0.494490
O17   O     O_3   0.417997 0.270581 0.707963 -0.568993
O18   O     O_2   0.080167 0.667549 0.855512 -0.624043
O19   O     O_2   0.899921 0.317577 0.854924 -0.631180
O20   O     O_2   0.128864 0.333987 0.142024 -0.585425
O21   O     O_2   0.266838 0.690952 0.154507 -0.622152
O22   O     O_3   0.672400 0.637930 0.395560 -0.450394
O23   O     O_2   0.764806 0.543862 0.293509 -0.427592
O24   O     O_3   0.022911 0.271167 0.348886 -0.635902
O25   O     O_3   0.747496 0.741824 0.291189 -0.561270
O26   O     O_2   0.844800 0.765340 0.527490 -0.463571
O27   O     O_3   0.090520 0.693800 0.424220 -0.485541
O28   O     O_2   0.032485 0.881563 0.470253 -0.484830
P1    P     P_3+3 0.057140 0.408270 0.369700 1.004798
P2    P     P_3+3 0.667360 0.749400 0.544670 0.979614
P3    P     P_3+3 0.138934 0.831189 0.422858 0.966170
P4    P     P_3+3 0.132580 0.591820 0.630310 0.988866
P5    P     P_3+3 0.055093 0.167827 0.577370 0.975116
P6    P     P_3+3 0.656253 0.625580 0.318518 1.062596
P7    P     P_3+3 0.526093 0.234559 0.453200 0.973611
P8    P     P_3+3 0.539350 0.378415 0.681086 0.966124
N3    N     N_3   0.045702 0.193083 0.433401 -0.465714
H44   H     H_    0.052039 0.253354 0.468390 0.191674
H45   H     H_    0.004566 0.120310 0.448915 0.147030
C53   C     C_2   0.904505 0.784519 0.733491 0.564021
H46   H     H_    0.962247 0.739739 0.762261 0.059775
O29   O     O_2   0.986017 0.859275 0.713366 -0.574153
N4    N     N_3   0.649831 0.680778 0.757768 -0.511094
H47   H     H_    0.524023 0.668603 0.750492 0.222266
H48   H     H_    0.691381 0.608168 0.748633 0.165714
C54   C     C_2   0.600122 0.860084 0.215779 0.573940
H49   H     H_    0.486319 0.880839 0.201707 0.013195
O30   O     O_2   0.667515 0.798162 0.183351 -0.544197
C55   C     C_2   0.497786 0.335333 0.322369 0.473583
H50   H     H_    0.491098 0.344739 0.275999 -0.009376
O31   O     O_2   0.575723 0.405010 0.355859 -0.545922
C56   C     C_2   0.422270 0.115188 0.250864 0.478394
H51   H     H_    0.366265 0.051224 0.218768 0.007413
O32   O     O_2   0.565884 0.150859 0.246015 -0.582127
C57   C     C_2   0.833438 0.055069 0.730459 0.566893
H52   H     H_    0.819318 0.012849 0.686391 0.014365
O33   O     O_2   0.765773 0.013814 0.771378 -0.575105
N5    N     N_3   0.076208 0.160408 0.777860 -0.461665
H53   H     H_    0.138838 0.237909 0.787235 0.202516
H54   H     H_    0.037048 0.136101 0.818349 0.238484
N6    N     N_3   0.053820 0.708285 0.295338 -0.396726
H55   H     H_    0.075008 0.677783 0.252124 0.171630
H56   H     H_    0.109667 0.664440 0.322022 0.168758
C58   C     C_2   0.157336 0.802670 0.956556 0.557609
H57   H     H_    0.069469 0.816303 0.924772 0.070188
O34   O     O_2   0.261030 0.877139 0.975243 -0.556807
N7    N     N_3   0.304738 0.826818 0.310909 -0.555561
H58   H     H_    0.346441 0.784678 0.273591 0.141291
H59   H     H_    0.355439 0.906997 0.313184 0.129509

loop_
_geom_bond_atom_site_label_1
_geom_bond_atom_site_label_2
_ccdc_geom_bond_type
C4    H15   S    
N5    H53   S    
C29   H31   S    
C3    O15   S    
C49   O24   S    
C17   C18   A    
Ba1   P1    S    
C54   H49   S    
C8    H24   S    
C5    C6    S    
C5    H19   S    
O17   P8    S    
C51   C52   S    
C10   C11   A    
Ba2   O13   S    
O25   P6    S    
C20   H28   S    
C46   P7    S    
C26   C27   S    
C58   O34   D    
Ba1   O26   S    
Ba1   Ba2   S    
O8    P7    S    
Ba1   P2    S    
C50   H7    S    
Ba1   O13   S    
C28   C29   D    
Ba2   O14   S    
C12   O3    S    
O27   P3    S    
C13   C14   A    
Ba2   O8    S    
C2    O25   S    
C34   C45   S    
C38   C46   A    
C16   C17   A    
C40   C44   A    
C11   N1    Am   
C51   H9    S    
C50   H6    S    
C39   H39   S    
C52   C53   S    
C51   O2    S    
C14   C15   A    
O5    P4    S    
C10   C15   A    
C21   C22   A    
O11   P5    S    
C34   H43   S    
C7    H22   S    
O13   P2    S    
C12   N7    S    
C6    C57   S    
C7    C8    S    
C57   O33   D    
C24   N2    Am   
O6    P8    S    
C23   H40   S    
N5    H54   S    
C3    C55   S    
N7    H59   S    
C39   C41   A    
C1    H11   S    
C16   C58   S    
C3    H14   S    
C17   H29   S    
C6    N5    S    
Ba1   O1    S    
C54   O30   D    
C31   C32   A    
C5    H20   S    
C9    C32   A    
O7    P4    S    
C47   P5    S    
C44   C46   A    
Ba2   O12   S    
O9    P5    S    
C34   O7    S    
C49   C50   S    
C26   C30   D    
C55   H50   S    
N3    H45   S    
C8    H26   S    
C36   N2    S    
C32   P6    S    
C42   P2    S    
C25   O21   D    
C6    H21   S    
C15   C19   A    
C12   N6    S    
C40   H36   S    
N6    H56   S    
C1    H17   S    
O23   P6    D    
C35   C36   A    
O26   P2    D    
C45   H3    S    
C49   N3    S    
C34   H42   S    
C29   C30   S    
Ba2   O5    S    
C9    H34   S    
C56   H51   S    
C25   N2    Am   
C27   C37   S    
O10   P5    D    
Ba2   P4    S    
O15   P7    S    
C23   H18   S    
C7    H23   S    
C24   O20   D    
Ba1   O5    S    
C57   H52   S    
Ba1   O8    S    
C4    C56   S    
C52   N4    S    
C23   H41   S    
O14   P7    D    
C2    H1    S    
C26   H32   S    
N7    H58   S    
C39   C42   A    
N4    H48   S    
C49   H5    S    
C40   C41   A    
C13   N1    Am   
C1    C2    S    
C42   C43   A    
C33   C35   A    
C4    H16   S    
C14   C20   A    
C21   H27   S    
C27   P8    S    
O1    P1    D    
C7    O17   S    
C35   H33   S    
C41   P3    S    
Ba1   O27   S    
O3    P3    S    
C55   O31   D    
N3    H44   S    
C2    H13   S    
C11   O18   D    
C8    H25   S    
C5    O11   S    
C1    C54   S    
C52   H12   S    
C18   C25   A    
Ba2   O6    S    
C31   C36   A    
C13   O19   D    
N6    H55   S    
C9    C33   A    
O28   P3    D    
C50   H8    S    
C53   H46   S    
Ba1   O12   S    
C45   H4    S    
C43   C48   A    
C53   O29   D    
C22   C24   A    
O24   P1    S    
C3    C4    S    
O16   P8    D    
Ba2   O4    S    
Ba2   O9    S    
C28   P4    S    
C51   H10   S    
C30   N1    S    
C28   C37   D    
C56   O32   D    
C12   C23   S    
C33   P1    S    
C31   H30   S    
Ba1   O22   S    
C38   H38   S    
C58   H57   S    
C43   C44   A    
C48   H37   S    
C18   C19   A    
C47   C48   A    
C19   C22   A    
C10   C16   A    
O12   P1    S    
N4    H47   S    
C20   C21   A    
O22   P6    S    
O4    P4    D    
C37   H35   S    
C38   C47   A    
C45   H2    S    
O2    P2    S    
