data_mof_unit_59338.cif
_audit_creation_date              2012-12-10T20:03:13-0500
_audit_creation_method            fapswitch 2.2
_symmetry_space_group_name_H-M    P1
_symmetry_Int_Tables_number       1
_space_group_crystal_system       triclinic
_cell_length_a                    8.58297
_cell_length_b                    19.250305
_cell_length_c                    18.489964
_cell_angle_alpha                 90.339817
_cell_angle_beta                  98.479784
_cell_angle_gamma                 89.939784
_cell_volume                      3021.54982857

loop_
_atom_site_label
_atom_site_type_symbol
_atom_type_description
_atom_site_fract_x
_atom_site_fract_y
_atom_site_fract_z
_atom_type_partial_charge
C1    C     C_R   0.497122 0.365891 0.499595 0.881306
C2    C     C_R   0.366096 0.482977 0.264679 0.046229
C3    C     C_R   0.470739 0.561357 0.800406 -0.302624
C4    C     C_R   0.363084 0.483143 0.188546 -0.297906
C5    C     C_R   0.494898 0.499787 0.841046 0.169284
C6    C     C_R   0.499323 0.500483 0.158523 0.160966
C7    C     C_R   0.522294 0.438356 0.803360 -0.231376
C8    C     C_R   0.636395 0.516741 0.207272 -0.228774
C9    C     C_R   0.524949 0.439615 0.727647 -0.017541
C10   C     C_R   0.633839 0.516756 0.283000 -0.025823
C11   C     C_R   0.411420 0.448785 0.956509 0.506366
C12   C     C_R   0.495342 0.634253 0.499904 0.881675
C13   C     C_R   0.570438 0.555322 0.042072 0.508399
C14   C     C_R   0.419254 0.448632 0.033057 -0.340043
C15   C     C_R   0.571778 0.552783 0.966087 -0.345334
C16   C     C_R   0.201008 0.500586 0.480982 0.935735
C17   C     C_R   0.799012 0.499962 0.519037 0.973067
C18   C     C_R   0.497548 0.501511 0.077046 -0.077636
C19   C     C_R   0.492748 0.500087 0.922154 -0.083435
C20   C     C_2   0.036098 0.500957 0.470663 -0.417390
C21   C     C_2   0.963926 0.500135 0.529406 -0.395851
C22   C     C_R   0.534935 0.748099 0.446451 -0.266772
C23   C     C_R   0.428849 0.963984 0.560882 -0.185750
C24   C     C_R   0.565207 0.251423 0.551460 -0.276490
C25   C     C_R   0.514324 0.819455 0.444292 -0.170804
C26   C     C_R   0.546283 0.179998 0.550974 -0.164680
C27   C     C_R   0.428177 0.852248 0.493570 0.042674
C28   C     C_R   0.435682 0.148205 0.497556 0.041152
C29   C     C_R   0.362248 0.812836 0.544800 -0.261968
C30   C     C_R   0.344757 0.188619 0.444396 -0.264005
C31   C     C_R   0.382249 0.741264 0.547386 0.491679
C32   C     C_R   0.362488 0.260329 0.444644 0.497219
C33   C     C_R   0.472132 0.708894 0.498681 -0.151560
C34   C     C_R   0.399780 0.036694 0.429209 -0.184632
C35   C     C_R   0.475961 0.291505 0.497847 -0.146264
C36   C     C_3   0.176819 0.422072 0.885994 0.088952
C37   C     C_3   0.057944 0.411971 0.939356 -0.375061
C38   C     C_3   0.891662 0.431265 0.904225 -0.929923
C39   C     C_3   0.534812 0.659955 0.096985 0.086263
C40   C     C_3   0.509131 0.714605 0.036464 -0.365089
C41   C     C_3   0.401485 0.772869 0.055707 -0.952893
C42   C     C_3   0.174484 0.675098 0.572119 0.099820
C43   C     C_3   0.040437 0.722873 0.587643 -0.388733
C44   C     C_3   0.880848 0.687193 0.569375 -0.914085
C45   C     C_R   0.429059 0.035908 0.561817 -0.189476
C46   C     C_3   0.143189 0.328924 0.417046 0.101906
C47   C     C_3   0.999951 0.280588 0.404171 -0.404497
C48   C     C_3   0.853170 0.316351 0.424204 -0.883666
C49   C     C_R   0.395830 0.964725 0.428200 -0.189582
C50   C     C_R   0.418879 0.072668 0.496117 0.138195
C51   C     C_R   0.414518 0.927929 0.494092 0.138655
C52   C     C_R   0.473180 0.560267 0.724670 0.005358
H1    H     H_    0.974598 0.501389 0.414863 0.169197
H2    H     H_    0.651714 0.275349 0.592711 0.160121
H3    H     H_    0.569425 0.849088 0.405386 0.142261
H4    H     H_    0.620371 0.149581 0.591489 0.142493
H5    H     H_    0.294752 0.837434 0.582931 0.143792
H6    H     H_    0.258187 0.164809 0.403160 0.146377
H7    H     H_    0.445297 0.936778 0.612529 0.135158
H8    H     H_    0.393088 0.063959 0.377792 0.136580
H9    H     H_    0.440612 0.062723 0.613986 0.132425
H10   H     H_    0.381680 0.937879 0.376007 0.131874
H11   H     H_    0.453125 0.607884 0.694203 0.181798
H12   H     H_    0.025507 0.499626 0.585224 0.178065
H13   H     H_    0.260663 0.469410 0.286971 0.128902
H14   H     H_    0.447931 0.609902 0.826824 0.143879
H15   H     H_    0.254218 0.470635 0.153427 0.138965
H16   H     H_    0.137069 0.391374 0.835588 0.169788
H17   H     H_    0.178218 0.477505 0.868669 0.128321
H18   H     H_    0.059279 0.356793 0.956805 0.236829
H19   H     H_    0.090872 0.445123 0.988594 0.214729
H20   H     H_    0.886540 0.486752 0.887854 0.269415
H21   H     H_    0.808453 0.422980 0.944006 0.272896
H22   H     H_    0.854601 0.398198 0.855305 0.257740
H23   H     H_    0.544165 0.389814 0.832343 0.174928
H24   H     H_    0.583560 0.686115 0.149144 0.168363
H25   H     H_    0.419662 0.637045 0.105791 0.129810
H26   H     H_    0.624520 0.737026 0.028313 0.234056
H27   H     H_    0.454707 0.689903 0.984382 0.212916
H28   H     H_    0.284532 0.751667 0.063033 0.266143
H29   H     H_    0.384744 0.811417 0.010789 0.266512
H30   H     H_    0.454635 0.799605 0.106830 0.262925
H31   H     H_    0.164183 0.625049 0.600608 0.181389
H32   H     H_    0.162274 0.662568 0.512478 0.109551
H33   H     H_    0.058796 0.737913 0.646422 0.236179
H34   H     H_    0.745391 0.528839 0.187188 0.172869
H35   H     H_    0.040067 0.770742 0.554373 0.216023
H36   H     H_    0.859062 0.672002 0.510692 0.254612
H37   H     H_    0.786770 0.723503 0.580734 0.270031
H38   H     H_    0.876125 0.640249 0.603609 0.266311
H39   H     H_    0.113289 0.377310 0.385663 0.172280
H40   H     H_    0.168299 0.344364 0.475902 0.111745
H41   H     H_    0.977656 0.264749 0.345654 0.238206
H42   H     H_    0.023499 0.233210 0.438026 0.217455
H43   H     H_    0.871632 0.331498 0.482919 0.250630
H44   H     H_    0.751570 0.280151 0.414128 0.270436
H45   H     H_    0.547257 0.392024 0.699638 0.136108
H46   H     H_    0.824948 0.363419 0.390292 0.271087
H47   H     H_    0.739613 0.530146 0.319639 0.126422
H48   H     H_    0.362032 0.406890 0.058072 0.179839
H49   H     H_    0.634637 0.592821 0.941293 0.177600
H50   H     H_    0.603411 0.723697 0.408545 0.170695
N1    N     N_R   0.500020 0.499980 0.689440 -0.093711
N2    N     N_R   0.499980 0.500020 0.310560 -0.088881
O1    O     O_R   0.500010 0.398180 0.560840 -0.639992
O2    O     O_3   0.646507 0.609845 0.081592 -0.660375
O3    O     O_3   0.322040 0.704319 0.600946 -0.662802
O4    O     O_3   0.274105 0.298739 0.390234 -0.641671
O5    O     O_R   0.499990 0.601820 0.439160 -0.623726
O6    O     O_R   0.499930 0.398180 0.439210 -0.575844
O7    O     O_R   0.500070 0.601820 0.560790 -0.596408
O8    O     O_R   0.271780 0.500000 0.546590 -0.618697
O9    O     O_R   0.728220 0.500000 0.453410 -0.627910
O10   O     O_R   0.271710 0.499990 0.424960 -0.642213
O11   O     O_R   0.728290 0.500010 0.575040 -0.625369
O12   O     O_3   0.327201 0.396742 0.916303 -0.655378
Zn1   Zn    Zn3+2 0.500050 0.500000 0.581210 0.937206
Zn2   Zn    Zn3+2 0.499950 0.500000 0.418790 0.943807

loop_
_geom_bond_atom_site_label_1
_geom_bond_atom_site_label_2
_ccdc_geom_bond_type
C39   O2    S    
C52   N1    A    
C23   C45   A    
C48   H43   S    
C27   C29   A    
C14   C18   A    
C2    H13   S    
O6    Zn2   S    
C41   H28   S    
C17   O9    A    
C37   H19   S    
C23   H7    S    
C11   C19   A    
C13   C18   A    
C39   H25   S    
C36   C37   S    
C24   C26   A    
C17   O11   A    
O8    Zn1   S    
C11   C14   A    
C46   H40   S    
C24   H2    S    
C21   H12   S    
C15   C19   A    
C28   C50   S    
C49   C51   A    
C22   C25   A    
C46   O4    S    
C31   C33   A    
C42   O3    S    
C9    N1    A    
C37   H18   S    
C34   H8    S    
O1    Zn1   S    
N1    Zn1   S    
C12   O5    A    
C27   C51   S    
O5    Zn2   S    
N2    Zn2   S    
C6    C18   S    
C38   H20   S    
C34   C50   A    
C24   C35   A    
C43   H33   S    
C32   C35   A    
C42   H32   S    
C4    C6    A    
C39   C40   S    
C5    C7    A    
C1    C35   S    
C20   H1    S    
C6    C8    A    
C46   H39   S    
O11   Zn1   S    
C17   C21   S    
C16   O10   A    
C2    C4    A    
C43   C44   S    
C37   C38   S    
C1    O6    A    
C23   C51   A    
C47   C48   S    
C2    N2    A    
C16   C20   S    
C41   H29   S    
C47   H41   S    
C40   H27   S    
C39   H24   S    
C15   H49   S    
C11   O12   S    
O10   Zn2   S    
C40   C41   S    
C29   H5    S    
C13   C15   A    
C40   H26   S    
C3    H14   S    
C42   C43   S    
C36   O12   S    
C44   H38   S    
C36   H17   S    
C16   O8    A    
C38   H22   S    
C7    C9    A    
C22   C33   A    
C46   C47   S    
C34   C49   A    
C9    H45   S    
C49   H10   S    
C48   H44   S    
C31   O3    S    
C42   H31   S    
C25   H3    S    
C13   O2    S    
C3    C5    A    
C52   H11   S    
C26   H4    S    
C4    H15   S    
C7    H23   S    
C3    C52   A    
C36   H16   S    
C14   H48   S    
C5    C19   S    
C25   C27   A    
C48   H46   S    
C26   C28   A    
C22   H50   S    
O7    Zn1   S    
C43   H35   S    
C10   N2    A    
C28   C30   A    
C29   C31   A    
C30   C32   A    
C45   C50   A    
C41   H30   S    
C30   H6    S    
C45   H9    S    
C47   H42   S    
C8    H34   S    
C10   H47   S    
O9    Zn2   S    
C20   C21   D    
C8    C10   A    
C32   O4    S    
C12   C33   S    
C44   H36   S    
C12   O7    A    
C44   H37   S    
C1    O1    A    
C38   H21   S    
