data_mof_unit_63734.cif
_audit_creation_date              2012-12-10T18:20:07-0500
_audit_creation_method            fapswitch 2.2
_symmetry_space_group_name_H-M    P1
_symmetry_Int_Tables_number       1
_space_group_crystal_system       triclinic
_cell_length_a                    26.139001
_cell_length_b                    33.016285
_cell_length_c                    21.090778
_cell_angle_alpha                 90.000033
_cell_angle_beta                  128.474085
_cell_angle_gamma                 90.000014
_cell_volume                      14249.8514623

loop_
_atom_site_label
_atom_site_type_symbol
_atom_type_description
_atom_site_fract_x
_atom_site_fract_y
_atom_site_fract_z
_atom_type_partial_charge
C1    C     C_R   0.857465 0.250056 0.999794 0.514940
C2    C     C_3   0.199606 0.250071 0.001783 -0.040916
C3    C     C_3   0.763395 0.211583 0.988337 0.259246
C4    C     C_3   0.266401 0.286076 0.995368 0.235631
C5    C     C_3   0.736611 0.711583 0.011678 0.259224
C6    C     C_3   0.733564 0.286085 0.004557 0.235660
C7    C     C_3   0.263359 0.711584 0.988260 0.259205
C8    C     C_3   0.761805 0.856721 0.999751 0.020734
C9    C     C_3   0.750710 0.892463 0.946477 -0.253331
C10   C     C_3   0.724315 0.929256 0.961650 -0.490439
C11   C     C_3   0.229462 0.164860 0.088564 0.041265
C12   C     C_3   0.181756 0.132515 0.074985 -0.269632
C13   C     C_3   0.196472 0.747116 0.995201 -0.015829
C14   C     C_3   0.187995 0.125567 0.151064 -0.483028
C15   C     C_3   0.238253 0.856718 0.000389 0.020709
C16   C     C_3   0.249354 0.892448 0.053688 -0.253336
C17   C     C_3   0.275750 0.929249 0.038539 -0.490431
C18   C     C_3   0.770617 0.164804 0.911632 0.041282
C19   C     C_3   0.818312 0.132435 0.925262 -0.269622
C20   C     C_3   0.812062 0.125429 0.849189 -0.483038
C21   C     C_3   0.261727 0.356717 0.999572 0.020706
C22   C     C_3   0.250617 0.392441 0.946255 -0.253337
C23   C     C_3   0.224203 0.429242 0.961378 -0.490434
C24   C     C_3   0.800398 0.250073 0.998224 -0.040940
C25   C     C_3   0.729396 0.664811 0.088400 0.041274
C26   C     C_3   0.681705 0.632443 0.074783 -0.269620
C27   C     C_3   0.687967 0.625438 0.150866 -0.483046
C28   C     C_3   0.738198 0.356722 0.000239 0.020742
C29   C     C_3   0.749306 0.392459 0.053528 -0.253334
C30   C     C_3   0.775745 0.429245 0.038401 -0.490447
C31   C     C_3   0.270549 0.664851 0.911465 0.041266
C32   C     C_3   0.318251 0.632500 0.925051 -0.269629
C33   C     C_3   0.312005 0.625538 0.848969 -0.483034
C34   C     C_3   0.282246 0.296357 0.137802 -0.242994
C35   C     C_3   0.303529 0.247116 0.004800 -0.015827
C36   C     C_3   0.354324 0.308306 0.196375 -0.424634
C37   C     C_3   0.716276 0.700168 0.868456 -0.216650
C38   C     C_3   0.749826 0.658913 0.890794 -0.418199
C39   C     C_3   0.717718 0.296291 0.862111 -0.242984
C40   C     C_3   0.645633 0.308223 0.803522 -0.424668
C41   C     C_3   0.283693 0.700112 0.131466 -0.216647
C42   C     C_3   0.250093 0.658871 0.109067 -0.418300
C43   C     C_3   0.782281 0.796297 0.137882 -0.242988
C44   C     C_3   0.854366 0.808226 0.196476 -0.424659
C45   C     C_3   0.216314 0.200100 0.868551 -0.216647
C46   C     C_3   0.699604 0.750072 0.001780 -0.040931
C47   C     C_3   0.249924 0.158862 0.890963 -0.418329
C48   C     C_3   0.217747 0.796346 0.862183 -0.242994
C49   C     C_3   0.145667 0.808289 0.803603 -0.424640
C50   C     C_3   0.783724 0.200186 0.131562 -0.216662
C51   C     C_3   0.750199 0.158923 0.109238 -0.418101
C52   C     C_3   0.911359 0.711140 0.173496 -0.004441
C53   C     C_3   0.917517 0.672786 0.137752 -0.271397
C54   C     C_3   0.983068 0.671217 0.154026 -0.442533
C55   C     C_3   0.112317 0.309240 0.856422 0.022981
C56   C     C_3   0.039449 0.299749 0.794579 -0.256877
C57   C     C_3   0.696475 0.247120 0.995208 -0.015834
C58   C     C_3   0.998000 0.331169 0.797281 -0.471163
C59   C     C_3   0.088624 0.711171 0.826469 -0.004436
C60   C     C_3   0.082495 0.672802 0.862208 -0.271411
C61   C     C_3   0.016958 0.671214 0.845967 -0.442570
C62   C     C_3   0.887655 0.309303 0.143473 0.022934
C63   C     C_3   0.960519 0.299800 0.205301 -0.256898
C64   C     C_3   0.001973 0.331190 0.202540 -0.471098
C65   C     C_3   0.411377 0.211176 0.173537 -0.004436
C66   C     C_3   0.417497 0.172804 0.137798 -0.271413
C67   C     C_3   0.483031 0.171209 0.154033 -0.442585
C68   C     C_3   0.300394 0.750071 0.998217 -0.040916
C69   C     C_3   0.612347 0.809296 0.856521 0.022951
C70   C     C_3   0.539480 0.799799 0.794694 -0.256899
C71   C     C_3   0.498035 0.831191 0.797465 -0.471101
C72   C     C_3   0.588642 0.211146 0.826500 -0.004439
C73   C     C_3   0.582457 0.172793 0.862224 -0.271390
C74   C     C_3   0.516903 0.171240 0.845943 -0.442518
C75   C     C_3   0.387675 0.809252 0.143556 0.022980
C76   C     C_3   0.460544 0.799763 0.205394 -0.256884
C77   C     C_3   0.501988 0.831182 0.202679 -0.471158
C78   C     C_3   0.802817 0.732682 0.074519 0.221186
C79   C     C_3   0.200972 0.264378 0.933161 0.231682
C80   C     C_3   0.197169 0.732707 0.925453 0.221204
C81   C     C_R   0.141747 0.749109 0.998509 0.544008
C82   C     C_3   0.799016 0.264421 0.066814 0.231649
C83   C     C_3   0.302834 0.232712 0.074553 0.221207
C84   C     C_3   0.700983 0.764413 0.933184 0.231664
C85   C     C_3   0.697187 0.232678 0.925488 0.221181
C86   C     C_3   0.299026 0.764384 0.066835 0.231685
C87   C     C_1   0.850443 0.250047 0.701027 -0.024125
C88   C     C_1   0.149545 0.749923 0.298994 -0.017533
C89   C     C_1   0.149558 0.250047 0.298973 -0.024123
C90   C     C_1   0.850455 0.749923 0.701006 -0.017541
C91   C     C_1   0.350443 0.750047 0.701027 -0.024121
C92   C     C_R   0.142535 0.250056 0.000206 0.514970
C93   C     C_1   0.649544 0.249923 0.298994 -0.017544
C94   C     C_1   0.649557 0.750047 0.298973 -0.024123
C95   C     C_1   0.350455 0.249923 0.701006 -0.017533
C96   C     C_1   0.813005 0.250051 0.626098 -0.043008
C97   C     C_1   0.186985 0.749914 0.373927 -0.041926
C98   C     C_1   0.186996 0.250051 0.373902 -0.043000
C99   C     C_1   0.813015 0.749914 0.626073 -0.041930
C100  C     C_1   0.313005 0.750051 0.626098 -0.042999
C101  C     C_1   0.686985 0.249914 0.373927 -0.041931
C102  C     C_1   0.686995 0.750051 0.373902 -0.043005
C103  C     C_R   0.858251 0.749111 0.001488 0.543984
C104  C     C_1   0.313015 0.249914 0.626073 -0.041926
C105  C     C_1   0.768722 0.250008 0.537482 -0.004587
C106  C     C_1   0.231271 0.749958 0.462546 -0.004826
C107  C     C_1   0.231278 0.250007 0.462518 -0.004584
C108  C     C_1   0.768728 0.749958 0.537454 -0.004827
C109  C     C_1   0.268722 0.750007 0.537482 -0.004584
C110  C     C_1   0.731271 0.249958 0.462546 -0.004828
C111  C     C_1   0.731277 0.750008 0.462518 -0.004586
C112  C     C_1   0.268729 0.249957 0.537454 -0.004826
C113  C     C_1   0.000001 0.100529 0.000001 -0.030472
C114  C     C_R   0.357465 0.750056 0.999793 0.514968
C115  C     C_1   0.000000 0.899505 0.000000 -0.013822
C116  C     C_1   0.499999 0.600529 0.999999 -0.030468
C117  C     C_1   0.500000 0.399505 1.000000 -0.013820
C118  C     C_1   0.000001 0.063066 0.000001 -0.049201
C119  C     C_1   0.000000 0.936977 0.000001 -0.041673
C120  C     C_1   0.499999 0.563066 0.999999 -0.049200
C121  C     C_1   0.500000 0.436977 1.000000 -0.041671
C122  C     C_1   0.000001 0.018761 0.000001 -0.007648
C123  C     C_1   0.000001 0.981290 0.000001 -0.006709
C124  C     C_1   0.499999 0.518761 0.999999 -0.007648
C125  C     C_R   0.641749 0.249112 0.998513 0.543968
C126  C     C_1   0.500000 0.481290 0.999999 -0.006709
C127  C     C_R   0.104469 0.249979 0.208840 0.485664
C128  C     C_R   0.895520 0.750021 0.791145 0.488081
C129  C     C_R   0.895531 0.249979 0.791160 0.485686
C130  C     C_R   0.104480 0.750022 0.208855 0.488079
C131  C     C_R   0.604469 0.749979 0.208840 0.485683
C132  C     C_R   0.395519 0.250022 0.791145 0.488075
C133  C     C_R   0.395531 0.749979 0.791160 0.485667
C134  C     C_R   0.604480 0.250021 0.208855 0.488079
C135  C     C_R   0.000000 0.145588 0.000000 0.481771
C136  C     C_R   0.642535 0.750055 0.000207 0.514952
C137  C     C_R   0.000000 0.854423 0.000000 0.505448
C138  C     C_R   0.500000 0.645588 1.000000 0.481770
C139  C     C_R   0.500000 0.354423 1.000000 0.505449
C140  C     C_R   0.000000 0.354411 1.000000 0.481926
C141  C     C_R   0.000000 0.645590 0.999999 0.476924
C142  C     C_R   0.500000 0.854411 0.000000 0.481923
C143  C     C_R   0.500000 0.145590 0.000001 0.476928
C144  C     C_1   1.000000 0.399484 0.000000 -0.024020
C145  C     C_1   1.000000 0.600523 0.999999 -0.025670
C146  C     C_1   0.500000 0.899484 0.000000 -0.024019
C147  C     C_R   0.358253 0.249109 0.001492 0.544013
C148  C     C_1   0.500000 0.100524 0.000000 -0.025666
C149  C     C_1   0.000000 0.436955 0.000000 -0.046796
C150  C     C_1   1.000000 0.563055 1.000000 -0.046016
C151  C     C_1   0.500000 0.936955 0.000000 -0.046796
C152  C     C_1   0.500000 0.063055 0.000000 -0.046015
C153  C     C_1   1.000000 0.481269 0.000000 -0.009251
C154  C     C_1   1.000000 0.518742 1.000000 -0.008393
C155  C     C_1   0.500000 0.981269 0.000000 -0.009251
C156  C     C_1   0.500000 0.018742 0.000000 -0.008393
C157  C     C_3   0.266114 0.271848 0.065626 -0.060164
C158  C     C_3   0.803526 0.747118 0.004794 -0.015830
C159  C     C_3   0.737535 0.725389 0.942376 -0.000332
C160  C     C_3   0.733868 0.271817 0.934332 -0.060159
C161  C     C_3   0.262445 0.725363 0.057583 -0.000345
C162  C     C_3   0.766131 0.771821 0.065664 -0.060164
C163  C     C_3   0.237559 0.225358 0.942425 -0.000350
C164  C     C_3   0.233883 0.771843 0.934367 -0.060169
C165  C     C_3   0.762468 0.225396 0.057633 -0.000322
C166  C     C_3   0.766432 0.786082 0.995434 0.235652
C167  C     C_3   0.236647 0.211585 0.011752 0.259199
C168  C     C_3   0.233594 0.786077 0.004620 0.235628
H1    H     H_    0.799442 0.865565 0.063990 0.141446
H2    H     H_    0.131029 0.142186 0.024962 0.204832
H3    H     H_    0.877753 0.671558 0.071537 0.168947
H4    H     H_    0.986435 0.696328 0.121764 0.161253
H5    H     H_    0.987508 0.642038 0.131667 0.142557
H6    H     H_    0.023976 0.673613 0.219983 0.136193
H7    H     H_    0.122520 0.338097 0.839137 0.146026
H8    H     H_    0.124021 0.313936 0.916317 0.110538
H9    H     H_    0.025328 0.299155 0.732809 0.170325
H10   H     H_    0.029524 0.269387 0.807500 0.198799
H11   H     H_    0.009181 0.330790 0.857459 0.148620
H12   H     H_    0.945416 0.324025 0.750216 0.152395
H13   H     H_    0.191395 0.103606 0.057069 0.165410
H14   H     H_    0.007589 0.361918 0.785435 0.142441
H15   H     H_    0.053595 0.708417 0.759461 0.144377
H16   H     H_    0.073704 0.739079 0.840088 0.155456
H17   H     H_    0.087295 0.645775 0.834833 0.161730
H18   H     H_    0.122273 0.671568 0.928418 0.168941
H19   H     H_    0.013589 0.696318 0.878238 0.161235
H20   H     H_    0.012544 0.642029 0.868335 0.142556
H21   H     H_    0.976036 0.673607 0.780014 0.136209
H22   H     H_    0.877477 0.338177 0.160740 0.146002
H23   H     H_    0.875931 0.313974 0.083563 0.110570
H24   H     H_    0.238468 0.115906 0.202093 0.148642
H25   H     H_    0.974660 0.299235 0.267082 0.170315
H26   H     H_    0.970420 0.269423 0.192406 0.198786
H27   H     H_    0.990775 0.330779 0.142354 0.148652
H28   H     H_    0.054555 0.324041 0.249600 0.152384
H29   H     H_    0.992404 0.361953 0.214355 0.142421
H30   H     H_    0.446409 0.208423 0.240545 0.144381
H31   H     H_    0.426301 0.239081 0.159914 0.155461
H32   H     H_    0.412694 0.145780 0.165175 0.161731
H33   H     H_    0.377717 0.171570 0.071588 0.168940
H34   H     H_    0.486405 0.196311 0.121763 0.161226
H35   H     H_    0.153453 0.101455 0.139380 0.156668
H36   H     H_    0.487437 0.142023 0.131659 0.142557
H37   H     H_    0.523956 0.173599 0.219985 0.136215
H38   H     H_    0.622531 0.838167 0.839251 0.146007
H39   H     H_    0.624073 0.813972 0.916431 0.110567
H40   H     H_    0.525337 0.799235 0.732912 0.170307
H41   H     H_    0.529575 0.769422 0.807586 0.198792
H42   H     H_    0.509235 0.830778 0.857653 0.148653
H43   H     H_    0.445450 0.824046 0.750406 0.152384
H44   H     H_    0.507608 0.861954 0.785656 0.142421
H45   H     H_    0.553628 0.208392 0.759491 0.144365
H46   H     H_    0.175972 0.153770 0.168070 0.148042
H47   H     H_    0.573738 0.239068 0.840104 0.155424
H48   H     H_    0.587245 0.145754 0.834866 0.161730
H49   H     H_    0.622217 0.171558 0.928439 0.168940
H50   H     H_    0.513551 0.196348 0.878222 0.161270
H51   H     H_    0.512441 0.142060 0.868280 0.142550
H52   H     H_    0.475998 0.173649 0.779987 0.136190
H53   H     H_    0.377472 0.838111 0.160839 0.146028
H54   H     H_    0.375964 0.813944 0.083657 0.110543
H55   H     H_    0.474671 0.799173 0.267168 0.170325
H56   H     H_    0.470468 0.769400 0.192477 0.198795
H57   H     H_    0.200615 0.865572 0.936156 0.141461
H58   H     H_    0.490799 0.830800 0.142497 0.148624
H59   H     H_    0.554573 0.824039 0.249739 0.152394
H60   H     H_    0.492400 0.861932 0.214522 0.142440
H61   H     H_    0.284520 0.850381 0.010571 0.104913
H62   H     H_    0.202429 0.900656 0.040759 0.179131
H63   H     H_    0.284772 0.883634 0.118480 0.171956
H64   H     H_    0.323539 0.921979 0.053122 0.144592
H65   H     H_    0.715537 0.850380 0.989562 0.104925
H66   H     H_    0.282819 0.954705 0.077702 0.151003
H67   H     H_    0.240721 0.938903 0.974237 0.151565
H68   H     H_    0.777155 0.192455 0.886996 0.137962
H69   H     H_    0.719972 0.153360 0.866161 0.178877
H70   H     H_    0.869043 0.142108 0.975263 0.204847
H71   H     H_    0.808667 0.103548 0.943232 0.165396
H72   H     H_    0.761584 0.115765 0.798181 0.148640
H73   H     H_    0.846592 0.101298 0.860908 0.156680
H74   H     H_    0.824093 0.153608 0.832130 0.148044
H75   H     H_    0.299361 0.365580 0.063800 0.141459
H76   H     H_    0.797637 0.900676 0.959415 0.179127
H77   H     H_    0.215462 0.350378 0.989392 0.104912
H78   H     H_    0.297542 0.400653 0.959188 0.179125
H79   H     H_    0.215207 0.383618 0.881467 0.171961
H80   H     H_    0.176414 0.421968 0.946791 0.144588
H81   H     H_    0.217129 0.454693 0.922204 0.151002
H82   H     H_    0.259224 0.438905 0.025675 0.151565
H83   H     H_    0.722858 0.692464 0.113030 0.137966
H84   H     H_    0.780042 0.653368 0.133873 0.178872
H85   H     H_    0.630971 0.642116 0.024788 0.204830
H86   H     H_    0.691343 0.603555 0.056808 0.165409
H87   H     H_    0.715293 0.883660 0.881679 0.171977
H88   H     H_    0.738446 0.615773 0.201867 0.148641
H89   H     H_    0.653438 0.601309 0.139154 0.156680
H90   H     H_    0.675943 0.653617 0.167930 0.148045
H91   H     H_    0.700569 0.365575 0.936003 0.141435
H92   H     H_    0.784464 0.350375 0.010427 0.104929
H93   H     H_    0.702377 0.400686 0.040573 0.179109
H94   H     H_    0.784702 0.383644 0.118321 0.172009
H95   H     H_    0.823538 0.421957 0.053012 0.144582
H96   H     H_    0.782816 0.454707 0.077554 0.151002
H97   H     H_    0.740739 0.438900 0.974097 0.151567
H98   H     H_    0.676524 0.921982 0.947058 0.144592
H99   H     H_    0.277082 0.692520 0.886867 0.137984
H100  H     H_    0.219906 0.653408 0.865975 0.178837
H101  H     H_    0.368980 0.642170 0.975066 0.204825
H102  H     H_    0.308612 0.603596 0.942980 0.165414
H103  H     H_    0.261530 0.615877 0.797947 0.148641
H104  H     H_    0.346544 0.601422 0.860658 0.156670
H105  H     H_    0.324028 0.653735 0.831949 0.148043
H106  H     H_    0.384594 0.281900 0.233633 0.180753
H107  H     H_    0.371942 0.319734 0.163542 0.170127
H108  H     H_    0.361123 0.332338 0.237837 0.127087
H109  H     H_    0.717251 0.954721 0.922507 0.151000
H110  H     H_    0.251248 0.323887 0.115520 0.132883
H111  H     H_    0.270450 0.277817 0.171138 0.174064
H112  H     H_    0.803610 0.662104 0.930562 0.172432
H113  H     H_    0.736217 0.639805 0.921445 0.194768
H114  H     H_    0.733869 0.643070 0.834717 0.131648
H115  H     H_    0.662636 0.695263 0.829695 0.177612
H116  H     H_    0.726833 0.717533 0.832678 0.173499
H117  H     H_    0.615376 0.281801 0.766320 0.180686
H118  H     H_    0.628017 0.319677 0.836341 0.170139
H119  H     H_    0.638816 0.332230 0.762010 0.127101
H120  H     H_    0.759343 0.938899 0.025959 0.151564
H121  H     H_    0.748698 0.323827 0.884343 0.132915
H122  H     H_    0.729522 0.277730 0.828805 0.174041
H123  H     H_    0.196316 0.662089 0.069385 0.172441
H124  H     H_    0.263616 0.639783 0.078302 0.194784
H125  H     H_    0.266088 0.642992 0.165128 0.131661
H126  H     H_    0.337326 0.695181 0.170195 0.177636
H127  H     H_    0.273175 0.717467 0.167294 0.173516
H128  H     H_    0.884619 0.781805 0.233685 0.180712
H129  H     H_    0.871990 0.819675 0.163662 0.170123
H130  H     H_    0.861183 0.832237 0.237982 0.127096
H131  H     H_    0.222934 0.192534 0.113158 0.137993
H132  H     H_    0.751302 0.823835 0.115647 0.132905
H133  H     H_    0.770471 0.777740 0.171187 0.174043
H134  H     H_    0.303699 0.162087 0.930623 0.172444
H135  H     H_    0.236422 0.139779 0.921756 0.194791
H136  H     H_    0.233919 0.142975 0.834906 0.131663
H137  H     H_    0.162682 0.195164 0.829829 0.177641
H138  H     H_    0.226823 0.217453 0.832712 0.173521
H139  H     H_    0.115403 0.781880 0.766350 0.180745
H140  H     H_    0.128045 0.819717 0.836430 0.170122
H141  H     H_    0.138865 0.832319 0.762137 0.127088
H142  H     H_    0.280104 0.153416 0.134055 0.178826
H143  H     H_    0.248740 0.823878 0.884455 0.132884
H144  H     H_    0.229548 0.777802 0.828854 0.174060
H145  H     H_    0.696410 0.162099 0.069371 0.172399
H146  H     H_    0.763900 0.139800 0.078702 0.194742
H147  H     H_    0.766091 0.143106 0.165309 0.131643
H148  H     H_    0.837368 0.195294 0.170349 0.177597
H149  H     H_    0.773137 0.217552 0.167309 0.173498
H150  H     H_    0.946379 0.708381 0.240503 0.144370
H151  H     H_    0.926271 0.739059 0.159895 0.155427
H152  H     H_    0.912716 0.645748 0.165102 0.161729
O1    O     O_3   1.000000 0.249970 0.000000 -0.391781
O2    O     O_R   0.639300 0.228000 0.044020 -0.554134
O3    O     O_R   0.639300 0.772000 0.044020 -0.566278
O4    O     O_R   0.360700 0.228000 0.955980 -0.554114
O5    O     O_R   0.053260 0.227940 0.168030 -0.531805
O6    O     O_R   0.946740 0.772060 0.831970 -0.540711
O7    O     O_R   0.946740 0.227940 0.831970 -0.531814
O8    O     O_R   0.053260 0.772060 0.168030 -0.540709
O9    O     O_R   0.553260 0.727940 0.168030 -0.531811
O10   O     O_R   0.446740 0.272060 0.831970 -0.540711
O11   O     O_R   0.446740 0.727940 0.831970 -0.531805
O12   O     O_3   0.000000 0.750030 0.000000 -0.400590
O13   O     O_R   0.553260 0.272060 0.168030 -0.540711
O14   O     O_R   0.991280 0.165970 0.044070 -0.533367
O15   O     O_R   0.008720 0.834030 0.955930 -0.518315
O16   O     O_R   0.008720 0.165970 0.955930 -0.533353
O17   O     O_R   0.991280 0.834030 0.044070 -0.518308
O18   O     O_R   0.491280 0.665970 0.044070 -0.533354
O19   O     O_R   0.508720 0.334030 0.955930 -0.518304
O20   O     O_R   0.508720 0.665970 0.955930 -0.533363
O21   O     O_R   0.491280 0.334030 0.044070 -0.518317
O22   O     O_R   0.947220 0.333980 0.955950 -0.532684
O23   O     O_3   0.500000 0.749970 0.000000 -0.391783
O24   O     O_R   0.052780 0.666020 0.044050 -0.537237
O25   O     O_R   0.052780 0.333980 0.044050 -0.532672
O26   O     O_R   0.947220 0.666020 0.955950 -0.537221
O27   O     O_R   0.447220 0.833980 0.955950 -0.532674
O28   O     O_R   0.552780 0.166020 0.044050 -0.537206
O29   O     O_R   0.552780 0.833980 0.044050 -0.532683
O30   O     O_R   0.447220 0.166020 0.955950 -0.537244
O31   O     O_R   0.114750 0.271990 0.168010 -0.530573
O32   O     O_R   0.885250 0.728010 0.831990 -0.525252
O33   O     O_R   0.885250 0.271990 0.831990 -0.530562
O34   O     O_3   0.500000 0.250030 0.000000 -0.400592
O35   O     O_R   0.114750 0.728010 0.168010 -0.525248
O36   O     O_R   0.614750 0.771990 0.168010 -0.530563
O37   O     O_R   0.385250 0.228010 0.831990 -0.525247
O38   O     O_R   0.385250 0.771990 0.831990 -0.530573
O39   O     O_R   0.614750 0.228010 0.168010 -0.525255
O40   O     O_R   0.904750 0.227950 0.044080 -0.511972
O41   O     O_R   0.095250 0.772050 0.955920 -0.522217
O42   O     O_R   0.095250 0.227950 0.955920 -0.511964
O43   O     O_R   0.904750 0.772050 0.044080 -0.522180
O44   O     O_R   0.404750 0.727950 0.044080 -0.511962
O45   O     O_R   0.860700 0.272000 0.955980 -0.566276
O46   O     O_R   0.595250 0.272050 0.955920 -0.522174
O47   O     O_R   0.595250 0.727950 0.955920 -0.511964
O48   O     O_R   0.404750 0.272050 0.044080 -0.522220
O49   O     O_3   0.784745 0.823454 0.981907 -0.544113
O50   O     O_3   0.218102 0.171858 0.014668 -0.572203
O51   O     O_3   0.215312 0.823443 0.018213 -0.544131
O52   O     O_3   0.781983 0.171853 0.985517 -0.572168
O53   O     O_3   0.284678 0.323441 0.981766 -0.544136
O54   O     O_3   0.718027 0.671853 0.014511 -0.572182
O55   O     O_3   0.715239 0.323458 0.018062 -0.544114
O56   O     O_R   0.139300 0.728000 0.044020 -0.554117
O57   O     O_3   0.281911 0.671857 0.985359 -0.572198
O58   O     O_3   0.848397 0.714204 0.151247 -0.595823
O59   O     O_3   0.148398 0.278031 0.854617 -0.561881
O60   O     O_3   0.151577 0.714258 0.848696 -0.595811
O61   O     O_3   0.851566 0.278119 0.145331 -0.561900
O62   O     O_3   0.348427 0.214270 0.151315 -0.595811
O63   O     O_3   0.648428 0.778107 0.854665 -0.561887
O64   O     O_3   0.651611 0.214194 0.848766 -0.595819
O65   O     O_3   0.351599 0.778044 0.145373 -0.561878
O66   O     O_R   0.139300 0.272000 0.044020 -0.566275
O67   O     O_R   0.860700 0.728000 0.955980 -0.554139
O68   O     O_R   0.360700 0.772000 0.955980 -0.566276
Zn1   Zn    Zn3+2 0.075390 0.281440 0.062920 0.916894
Zn2   Zn    Zn3+2 0.012460 0.781490 0.937050 0.953159
Zn3   Zn    Zn3+2 0.012460 0.218510 0.937050 0.939884
Zn4   Zn    Zn3+2 0.987540 0.781490 0.062950 0.953175
Zn5   Zn    Zn3+2 0.487540 0.718510 0.062950 0.939885
Zn6   Zn    Zn3+2 0.512460 0.281490 0.937050 0.953176
Zn7   Zn    Zn3+2 0.512460 0.718510 0.937050 0.939867
Zn8   Zn    Zn3+2 0.487540 0.281490 0.062950 0.953157
Zn9   Zn    Zn3+2 0.924610 0.718560 0.937080 0.920222
Zn10  Zn    Zn3+2 0.924610 0.281440 0.937080 0.916897
Zn11  Zn    Zn3+2 0.075390 0.718560 0.062920 0.920231
Zn12  Zn    Zn3+2 0.575390 0.781440 0.062920 0.916895
Zn13  Zn    Zn3+2 0.424610 0.218560 0.937080 0.920231
Zn14  Zn    Zn3+2 0.424610 0.781440 0.937080 0.916893
Zn15  Zn    Zn3+2 0.575390 0.218560 0.062920 0.920227
Zn16  Zn    Zn3+2 0.987540 0.218510 0.062950 0.939856

loop_
_geom_bond_atom_site_label_1
_geom_bond_atom_site_label_2
_ccdc_geom_bond_type
C105  C110  T    
C3    C85   S    
C107  C112  T    
C142  C146  S    
C19   C20   S    
C140  O22   A    
C96   C105  S    
C62   H22   S    
C51   H146  S    
C76   H56   S    
C69   H38   S    
C8    O49   S    
O18   Zn5   S    
O7    Zn3   S    
C18   H68   S    
C4    O53   S    
O8    Zn4   S    
C64   H27   S    
C6    O55   S    
C73   C74   S    
C23   H80   S    
C27   H90   S    
C149  C153  S    
C7    C68   S    
C65   H31   S    
C66   H33   S    
C152  C156  S    
O20   Zn7   S    
C137  O17   A    
C21   O53   S    
C45   H137  S    
C91   C100  T    
C88   C97   T    
C67   H37   S    
C18   H69   S    
C141  C145  S    
C5    O54   S    
O12   Zn9   S    
C72   H45   S    
C34   H110  S    
C59   C60   S    
C21   C22   S    
C33   H103  S    
C61   H21   S    
C102  C111  S    
C117  C139  S    
O56   Zn11  S    
O23   Zn5   S    
O3    Zn12  S    
C36   H106  S    
C84   C159  S    
C45   C47   S    
C20   H73   S    
C27   H89   S    
C164  C168  S    
C69   O63   S    
C19   H70   S    
C93   C101  T    
O12   Zn2   S    
C101  C110  S    
C61   H20   S    
C35   C163  S    
O34   Zn8   S    
C48   H143  S    
C75   C76   S    
C37   C38   S    
C54   H4    S    
C12   H13   S    
C83   C157  S    
C28   H91   S    
C50   C165  S    
C37   H116  S    
C46   C84   S    
O42   Zn3   S    
C71   H43   S    
C95   C132  S    
C44   H130  S    
O66   Zn1   S    
C8    H1    S    
O22   Zn10  S    
C22   H78   S    
C89   C127  S    
C136  O47   A    
C11   O50   S    
C72   C73   S    
C6    C160  S    
C87   C96   T    
C11   H131  S    
C48   C164  S    
C119  C123  S    
C5    C46   S    
C108  C111  T    
O45   Zn10  S    
O68   Zn14  S    
C54   H6    S    
C84   O63   S    
C45   C163  S    
O1    Zn10  S    
C25   H83   S    
C128  O32   A    
C2    C157  S    
C57   C85   S    
C130  O35   A    
C69   C70   S    
O12   Zn11  S    
C116  C120  T    
C72   H47   S    
C94   C102  T    
C77   H60   S    
C113  C135  S    
C74   H52   S    
C155  C156  T    
O5    Zn16  S    
C22   C23   S    
C58   H12   S    
C36   H108  S    
O27   Zn14  S    
C66   H32   S    
O4    Zn13  S    
C82   C165  S    
C39   C160  S    
C39   H121  S    
O31   Zn1   S    
C49   H140  S    
O12   Zn4   S    
C56   H10   S    
C17   H66   S    
C99   C108  S    
C7    C161  S    
C1    O40   A    
O43   Zn4   S    
C125  O2    A    
O34   Zn6   S    
O35   Zn11  S    
C18   C19   S    
C23   H82   S    
C57   C125  S    
C131  O9    A    
C51   H147  S    
C80   O60   S    
C38   H113  S    
C78   C158  S    
C115  C137  S    
C65   H30   S    
C28   O55   S    
C62   O61   S    
C73   H48   S    
C85   C160  S    
C141  O26   A    
C27   H88   S    
C145  C150  T    
C21   H75   S    
C14   H24   S    
C143  O30   A    
C66   C67   S    
C14   H35   S    
C3    C24   S    
C9    H87   S    
C17   H64   S    
C143  C148  S    
C78   O58   S    
C31   H99   S    
C10   H120  S    
C86   C168  S    
C137  O15   A    
C39   C40   S    
C104  C112  S    
C53   H3    S    
C13   C168  S    
C25   C26   S    
C20   H72   S    
C83   C167  S    
C75   O65   S    
C29   C30   S    
C127  O31   A    
C19   H71   S    
C142  O29   A    
C4    C157  S    
C74   H50   S    
C29   H94   S    
C63   H26   S    
C30   H97   S    
C59   H15   S    
C81   O56   A    
O1    Zn3   S    
C72   O64   S    
C130  O8    A    
C41   H127  S    
C115  C119  T    
C44   H128  S    
C53   H152  S    
C90   C99   T    
C52   C53   S    
C3    C165  S    
O17   Zn4   S    
C124  C126  T    
C166  O49   S    
C42   H123  S    
C10   H98   S    
C139  O19   A    
C52   O58   S    
C148  C152  T    
C26   H85   S    
C133  O11   A    
C62   H23   S    
C51   H145  S    
C16   H63   S    
C151  C155  S    
C89   C98   T    
C132  O37   A    
C87   C129  S    
O38   Zn14  S    
C33   H105  S    
C64   H28   S    
C56   C58   S    
C34   C36   S    
C10   H109  S    
O1    Zn1   S    
O33   Zn10  S    
C4    C35   S    
O26   Zn9   S    
C146  C151  T    
C34   C157  S    
C77   H58   S    
C1    C24   S    
C133  O38   A    
C147  O48   A    
C79   O59   S    
O19   Zn6   S    
C106  C109  T    
C92   O66   A    
C34   H111  S    
C60   H17   S    
O23   Zn14  S    
C41   C161  S    
C41   C42   S    
O48   Zn8   S    
C32   H102  S    
C47   H136  S    
C32   H101  S    
O47   Zn7   S    
C20   H74   S    
C26   C27   S    
O16   Zn3   S    
C92   O42   A    
C28   C29   S    
C100  C109  S    
C12   H2    S    
O44   Zn5   S    
C142  O27   A    
C57   C165  S    
O34   Zn15  S    
C13   C81   S    
C40   H117  S    
C61   H19   S    
C14   H46   S    
C136  O3    A    
C30   H95   S    
C59   O60   S    
C48   H144  S    
C80   C164  S    
C2    C79   S    
C162  C166  S    
C114  O68   A    
C75   H54   S    
C16   C17   S    
C28   H92   S    
C52   H151  S    
C70   C71   S    
C37   H115  S    
C86   C161  S    
O14   Zn16  S    
O30   Zn13  S    
C68   C164  S    
C13   C80   S    
C64   H29   S    
C15   H61   S    
O28   Zn15  S    
C6    C57   S    
C45   H138  S    
C76   H55   S    
C69   H39   S    
C168  O51   S    
O25   Zn1   S    
C8    H65   S    
O46   Zn6   S    
O36   Zn12  S    
O23   Zn7   S    
C35   C83   S    
C103  O43   A    
C53   C54   S    
C98   C107  S    
C60   C61   S    
C62   C63   S    
O10   Zn6   S    
C132  O10   A    
C50   C51   S    
C97   C106  S    
C38   H112  S    
C48   C49   S    
C15   H57   S    
C77   H59   S    
C3    O52   S    
C33   H104  S    
C128  O6    A    
C47   H134  S    
C140  O25   A    
C158  C166  S    
O15   Zn2   S    
C114  O44   A    
C140  C144  S    
C49   H139  S    
C103  C158  S    
O34   Zn13  S    
C40   H119  S    
C94   C131  S    
C58   H14   S    
C32   C33   S    
C23   H81   S    
C134  O39   A    
C37   C159  S    
C16   H62   S    
C55   O59   S    
C38   H114  S    
C65   O62   S    
C147  O4    A    
C31   O57   S    
C71   H44   S    
O6    Zn2   S    
C44   H129  S    
C5    C78   S    
C7    C80   S    
C82   O61   S    
C6    C82   S    
C68   C86   S    
O40   Zn16  S    
O13   Zn8   S    
C88   C130  S    
C43   C44   S    
O39   Zn15  S    
C43   H133  S    
O37   Zn13  S    
C11   H142  S    
O9    Zn5   S    
C127  O5    A    
C54   H5    S    
C138  O20   A    
C118  C122  S    
C22   H79   S    
C25   H84   S    
C15   O51   S    
C83   O62   S    
C70   H40   S    
C15   C16   S    
C43   H132  S    
C24   C82   S    
C117  C121  T    
C67   H36   S    
O32   Zn9   S    
C125  O46   A    
C8    C9    S    
C5    C159  S    
C74   H51   S    
C29   H93   S    
C63   H25   S    
C58   H11   S    
O23   Zn12  S    
O24   Zn11  S    
O67   Zn9   S    
C50   H148  S    
C41   H126  S    
C52   H150  S    
C39   H122  S    
C129  O7    A    
C49   H141  S    
C116  C138  S    
C56   H9    S    
C17   H67   S    
C55   H8    S    
C42   H124  S    
C76   C77   S    
C4    C79   S    
C93   C134  S    
C26   H86   S    
C50   H149  S    
C135  O16   A    
C85   O64   S    
C21   H77   S    
C143  O28   A    
C103  O67   A    
C131  O36   A    
C63   C64   S    
C141  O24   A    
C163  C167  S    
C43   C162  S    
C144  C149  T    
C139  O21   A    
C91   C133  S    
C42   H125  S    
C71   H42   S    
C25   O54   S    
C55   C56   S    
C73   H49   S    
C86   O65   S    
C35   C147  S    
O1    Zn16  S    
C2    C92   S    
O21   Zn8   S    
C55   H7    S    
O2    Zn15  S    
O29   Zn12  S    
C12   C14   S    
C78   C162  S    
C150  C154  S    
C95   C104  T    
C9    C10   S    
C129  O33   A    
C134  O13   A    
C60   H18   S    
C36   H107  S    
C1    O45   A    
C31   H100  S    
C138  O18   A    
C31   C32   S    
C47   H135  S    
C79   C163  S    
C11   C12   S    
C24   C160  S    
C13   C161  S    
C167  O50   S    
C153  C154  T    
C121  C126  S    
C67   H34   S    
O11   Zn7   S    
C158  C159  S    
C7    O57   S    
C135  O14   A    
C40   H118  S    
C30   H96   S    
C59   H16   S    
C81   O41   A    
C84   C166  S    
C46   C136  S    
C113  C118  T    
C75   H53   S    
C65   C66   S    
C46   C162  S    
C18   O52   S    
C70   H41   S    
C90   C128  S    
C122  C123  T    
C9    H76   S    
C2    C167  S    
C120  C124  S    
C68   C114  S    
O41   Zn2   S    
