data_mof_unit_25497.cif
_audit_creation_date              2012-10-26T20:22:08-0400
_audit_creation_method            fapswitch 2.2
_symmetry_space_group_name_H-M    P1
_symmetry_Int_Tables_number       1
_space_group_crystal_system       triclinic
_cell_length_a                    10.767457
_cell_length_b                    9.659653
_cell_length_c                    10.690622
_cell_angle_alpha                 90.898904
_cell_angle_beta                  93.081054
_cell_angle_gamma                 90.101737
_cell_volume                      1110.18274586

loop_
_atom_site_label
_atom_site_type_symbol
_atom_type_description
_atom_site_fract_x
_atom_site_fract_y
_atom_site_fract_z
_atom_type_partial_charge
C1    C     C_R   0.871106 0.500105 0.500888 0.074845
C2    C     C_3   0.391396 0.545922 0.037945 0.194793
C3    C     C_3   0.482169 0.630075 0.963162 0.042967
C4    C     C_3   0.517884 0.369743 0.036800 0.049430
C5    C     C_3   0.498955 0.503613 0.875410 0.046251
C6    C     C_3   0.501067 0.496233 0.124554 0.051884
C7    C     C_R   0.435563 0.071377 0.407662 0.369907
C8    C     C_R   0.564427 0.928617 0.592346 0.368571
C9    C     C_R   0.564010 0.075051 0.592635 0.373491
C10   C     C_R   0.435975 0.924946 0.407376 0.371906
C11   C     C_R   0.059559 0.437371 0.400394 0.069874
C12   C     C_R   0.128800 0.500122 0.501086 0.053149
C13   C     C_R   0.940236 0.562494 0.601562 0.094915
C14   C     C_R   0.929313 0.437241 0.400409 0.066393
C15   C     C_R   0.069883 0.562782 0.601983 0.063692
C16   C     C_R   0.262885 0.499999 0.500430 0.578704
C17   C     C_R   0.737111 0.500089 0.500788 0.618537
C18   C     C_R   0.500459 0.498813 0.260267 0.630724
C19   C     C_R   0.499565 0.501163 0.739722 0.605380
C20   C     C_3   0.591865 0.580421 0.048610 0.187370
C21   C     C_3   0.408212 0.419356 0.951340 0.175428
C22   C     C_3   0.608627 0.453879 0.961968 0.203058
Cu1   Cu    Cu3+1 0.500000 0.640660 0.500000 1.016118
Cu2   Cu    Cu3+1 0.500000 0.359340 0.500000 1.034314
H1    H     H_    0.340109 0.224257 0.341310 0.376046
H2    H     H_    0.267278 0.301814 0.970847 0.345653
H3    H     H_    0.772047 0.381050 0.996464 0.344551
H4    H     H_    0.226858 0.615273 0.002703 0.353802
H5    H     H_    0.097853 0.272937 0.288485 0.248109
H6    H     H_    0.093710 0.427969 0.215483 0.260624
H7    H     H_    0.903854 0.726655 0.713717 0.269186
H8    H     H_    0.908104 0.572037 0.786441 0.280354
H9    H     H_    0.874841 0.427649 0.215723 0.243739
H10   H     H_    0.878404 0.272533 0.288738 0.246445
H11   H     H_    0.201550 0.549545 0.744530 0.262776
H12   H     H_    0.659962 0.775768 0.658673 0.375863
H13   H     H_    0.191246 0.707030 0.676176 0.267610
H14   H     H_    0.665164 0.226514 0.658071 0.372504
H15   H     H_    0.334822 0.773476 0.341952 0.374205
H16   H     H_    0.439150 0.829420 0.004144 0.286363
H17   H     H_    0.545661 0.810946 0.897170 0.285240
H18   H     H_    0.560818 0.170379 0.995790 0.284123
H19   H     H_    0.454402 0.188892 0.102856 0.284386
H20   H     H_    0.733002 0.697702 0.029269 0.343370
N1    N     N_R   0.500000 0.852070 0.500000 -0.321878
N2    N     N_R   0.500000 0.147930 0.500000 -0.320246
N3    N     N_3   0.460901 0.772276 0.924472 -0.563748
N4    N     N_3   0.539143 0.227536 0.075480 -0.556521
N5    N     N_3   0.122548 0.377415 0.297697 -0.612727
N6    N     N_3   0.877853 0.622498 0.704558 -0.601313
N7    N     N_3   0.854961 0.376985 0.297970 -0.591559
N8    N     N_3   0.139949 0.623535 0.707106 -0.622649
O1    O     O_R   0.319640 0.618740 0.499990 -0.547669
O2    O     O_3   0.634869 0.867736 0.687291 -0.662027
O3    O     O_3   0.631551 0.140064 0.689465 -0.615318
O4    O     O_3   0.368420 0.859932 0.310557 -0.615215
O5    O     O_3   0.687929 0.663747 0.101222 -0.664523
O6    O     O_3   0.312278 0.335767 0.898847 -0.676665
O7    O     O_3   0.721844 0.406324 0.919860 -0.676571
O8    O     O_3   0.278052 0.593547 0.079683 -0.673913
O9    O     O_R   0.680360 0.381260 0.500010 -0.516234
O10   O     O_R   0.680360 0.618740 0.500010 -0.510326
O11   O     O_R   0.319640 0.381260 0.499990 -0.505617
O12   O     O_R   0.499970 0.618770 0.316850 -0.457508
O13   O     O_R   0.500030 0.381230 0.683150 -0.461395
O14   O     O_R   0.500030 0.618770 0.683150 -0.512097
O15   O     O_R   0.499970 0.381230 0.316850 -0.498192
O16   O     O_3   0.365112 0.132250 0.312722 -0.662739

loop_
_geom_bond_atom_site_label_1
_geom_bond_atom_site_label_2
_ccdc_geom_bond_type
C7    C10   A    
C11   C12   A    
Cu1   O1    S    
Cu2   O9    S    
Cu1   N1    S    
C16   O11   A    
C17   O10   A    
H9    N7    S    
C4    C22   S    
H19   N4    S    
C1    C17   S    
C14   N7    S    
C12   C15   A    
H20   O5    S    
Cu1   Cu2   S    
Cu2   N2    S    
C2    C21   S    
C13   C15   A    
C2    C3    S    
H17   N3    S    
C5    C21   S    
C3    C20   S    
H18   N4    S    
C15   N8    S    
H5    N5    S    
C7    O16   S    
C4    C21   S    
H2    O6    S    
C21   O6    S    
H8    N6    S    
H10   N7    S    
C2    C6    S    
H1    O16   S    
Cu2   O13   S    
C10   N1    A    
C11   N5    S    
Cu1   O14   S    
C3    N3    S    
Cu1   O12   S    
H6    N5    S    
C20   C22   S    
C5    C19   S    
C19   O13   A    
Cu2   O11   S    
H4    O8    S    
C9    O3    S    
C6    C18   S    
C11   C14   A    
C2    O8    S    
H12   O2    S    
C5    C22   S    
H7    N6    S    
C13   N6    S    
C18   O12   A    
C7    N2    A    
C12   C16   S    
C1    C13   A    
C9    N2    A    
C6    C20   S    
C19   O14   A    
C4    C6    S    
C10   O4    S    
C4    N4    S    
C8    O2    S    
C22   O7    S    
C20   O5    S    
H13   N8    S    
C8    N1    A    
H11   N8    S    
H3    O7    S    
C1    C14   A    
Cu2   O15   S    
C17   O9    A    
C18   O15   A    
C16   O1    A    
H16   N3    S    
Cu1   O10   S    
H14   O3    S    
H15   O4    S    
C8    C9    A    
C3    C5    S    
