data_mof_unit_50853.cif
_audit_creation_date              2012-12-11T16:12:50-0500
_audit_creation_method            fapswitch 2.2
_symmetry_space_group_name_H-M    P1
_symmetry_Int_Tables_number       1
_space_group_crystal_system       triclinic
_cell_length_a                    7.00495
_cell_length_b                    21.237869
_cell_length_c                    23.654162
_cell_angle_alpha                 89.999921
_cell_angle_beta                  89.999562
_cell_angle_gamma                 89.999738
_cell_volume                      3519.03465865

loop_
_atom_site_label
_atom_site_type_symbol
_atom_type_description
_atom_site_fract_x
_atom_site_fract_y
_atom_site_fract_z
_atom_type_partial_charge
O1    O     O_R   0.615270 0.806540 0.192260 -0.534562
O2    O     O_R   0.384730 0.193460 0.807740 -0.534562
O3    O     O_R   0.384730 0.193460 0.692260 -0.534561
O4    O     O_R   0.615270 0.806540 0.307740 -0.534561
O5    O     O_R   0.115270 0.693460 0.307740 -0.534560
O6    O     O_R   0.884730 0.306540 0.692260 -0.534560
O7    O     O_R   0.884730 0.306540 0.807740 -0.534561
O8    O     O_R   0.115270 0.693460 0.192260 -0.534561
O9    O     O_R   0.285500 0.813970 0.307340 -0.536949
O10   O     O_R   0.714500 0.186030 0.692660 -0.536949
O11   O     O_R   0.714500 0.186030 0.807340 -0.536949
O12   O     O_R   0.285500 0.813970 0.192660 -0.536949
O13   O     O_R   0.785500 0.686030 0.192660 -0.536949
O14   O     O_R   0.214500 0.313970 0.807340 -0.536949
O15   O     O_R   0.214500 0.313970 0.692660 -0.536949
O16   O     O_R   0.785500 0.686030 0.307340 -0.536949
C1    C     C_R   0.453380 0.828981 0.326692 0.724145
C2    C     C_R   0.546620 0.171019 0.673308 0.724146
C3    C     C_R   0.546620 0.171020 0.826692 0.724146
C4    C     C_R   0.453380 0.828980 0.173307 0.724145
C5    C     C_R   0.953380 0.671020 0.173308 0.724145
C6    C     C_R   0.046620 0.328980 0.826692 0.724144
C7    C     C_R   0.046621 0.328980 0.673308 0.724144
C8    C     C_R   0.953379 0.671020 0.326692 0.724145
O17   O     O_3   0.448760 0.710460 0.250000 -0.369223
O18   O     O_3   0.551240 0.289540 0.750000 -0.369223
O19   O     O_3   0.948760 0.789540 0.250000 -0.369223
O20   O     O_3   0.051240 0.210460 0.750000 -0.369223
V1    V     V_3+5 0.173900 0.757330 0.250000 1.439491
V2    V     V_3+5 0.826100 0.242670 0.750000 1.439492
V3    V     V_3+5 0.673900 0.742670 0.250000 1.439490
V4    V     V_3+5 0.326100 0.257330 0.750000 1.439490
C9    C     C_3   0.085088 0.528954 0.543570 0.109838
C10   C     C_3   0.914914 0.471046 0.456430 0.109838
C11   C     C_3   0.914914 0.471046 0.043571 0.109841
C12   C     C_3   0.085087 0.528954 0.956429 0.109841
C13   C     C_3   0.585084 0.971047 0.956429 0.109838
C14   C     C_3   0.414911 0.028953 0.043571 0.109842
C15   C     C_3   0.414913 0.028954 0.456430 0.109839
C16   C     C_3   0.585086 0.971046 0.543570 0.109842
C17   C     C_3   0.889645 0.547340 0.518401 -0.076716
C18   C     C_3   0.110357 0.452660 0.481599 -0.076719
C19   C     C_3   0.110354 0.452659 0.018400 -0.076715
C20   C     C_3   0.889647 0.547341 0.981600 -0.076713
C21   C     C_3   0.389641 0.952660 0.981599 -0.076717
C22   C     C_3   0.610353 0.047341 0.018401 -0.076712
C23   C     C_3   0.610353 0.047342 0.481601 -0.076710
C24   C     C_3   0.389646 0.952658 0.518399 -0.076713
C25   C     C_1   0.957531 0.625366 0.372309 -0.177697
C26   C     C_1   0.042469 0.374634 0.627691 -0.177696
C27   C     C_1   0.042465 0.374634 0.872309 -0.177696
C28   C     C_1   0.957535 0.625366 0.127691 -0.177697
C29   C     C_1   0.457534 0.874634 0.127691 -0.177696
C30   C     C_1   0.542466 0.125366 0.872309 -0.177697
C31   C     C_1   0.542466 0.125365 0.627692 -0.177697
C32   C     C_1   0.457534 0.874635 0.372308 -0.177696
C33   C     C_3   0.167989 0.523138 0.483052 0.113468
C34   C     C_3   0.832013 0.476862 0.516948 0.113467
C35   C     C_3   0.832010 0.476863 0.983053 0.113474
C36   C     C_3   0.167991 0.523137 0.016947 0.113474
C37   C     C_3   0.667986 0.976862 0.016947 0.113461
C38   C     C_3   0.332009 0.023138 0.983053 0.113471
C39   C     C_3   0.332009 0.023136 0.516948 0.113469
C40   C     C_3   0.667991 0.976864 0.483052 0.113474
C41   C     C_3   0.972201 0.541480 0.457938 0.044448
C42   C     C_3   0.027801 0.458520 0.542062 0.044445
C43   C     C_3   0.027796 0.458520 0.957938 0.044447
C44   C     C_3   0.972205 0.541480 0.042062 0.044448
C45   C     C_3   0.472199 0.958519 0.042061 0.044442
C46   C     C_3   0.527796 0.041481 0.957939 0.044454
C47   C     C_3   0.527794 0.041479 0.542063 0.044450
C48   C     C_3   0.472206 0.958521 0.457937 0.044450
C49   C     C_1   0.959207 0.587465 0.410771 -0.004137
C50   C     C_1   0.040794 0.412535 0.589229 -0.004135
C51   C     C_1   0.040788 0.412535 0.910771 -0.004134
C52   C     C_1   0.959212 0.587465 0.089229 -0.004135
C53   C     C_1   0.459208 0.912534 0.089228 -0.004137
C54   C     C_1   0.540790 0.087466 0.910772 -0.004137
C55   C     C_1   0.540788 0.087464 0.589230 -0.004137
C56   C     C_1   0.459212 0.912536 0.410770 -0.004135
C57   C     C_1   0.773411 0.599821 0.539460 0.308547
N1    N     N_1   0.681965 0.641229 0.556110 -0.337664
C58   C     C_1   0.226594 0.400180 0.460540 0.308548
N2    N     N_1   0.318042 0.358772 0.443891 -0.337664
C59   C     C_1   0.226587 0.400178 0.039458 0.308548
N3    N     N_1   0.318032 0.358770 0.056106 -0.337664
C60   C     C_1   0.773415 0.599823 0.960542 0.308547
N4    N     N_1   0.681972 0.641231 0.943893 -0.337665
C61   C     C_1   0.273403 0.900180 0.960541 0.308544
N5    N     N_1   0.181953 0.858774 0.943891 -0.337664
C62   C     C_1   0.726584 0.099821 0.039461 0.308543
N6    N     N_1   0.818027 0.141229 0.056112 -0.337662
C63   C     C_1   0.726584 0.099824 0.460543 0.308543
N7    N     N_1   0.818027 0.141233 0.443895 -0.337664
C64   C     C_1   0.273413 0.900177 0.539456 0.308544
N8    N     N_1   0.181968 0.858768 0.556104 -0.337663
C65   C     C_3   0.183499 0.561604 0.592837 -0.717920
H1    H     H_    0.210085 0.611677 0.581993 0.233889
H2    H     H_    0.091233 0.559070 0.630900 0.208680
H3    H     H_    0.321525 0.538075 0.601855 0.208874
C66   C     C_3   0.816504 0.438396 0.407163 -0.717915
H4    H     H_    0.789918 0.388322 0.418008 0.233888
H5    H     H_    0.678478 0.461924 0.398145 0.208873
H6    H     H_    0.908771 0.440929 0.369100 0.208679
C67   C     C_3   0.816508 0.438396 0.092839 -0.717923
H7    H     H_    0.789912 0.388324 0.081994 0.233890
H8    H     H_    0.908782 0.440926 0.130900 0.208681
H9    H     H_    0.678487 0.461927 0.101860 0.208870
C68   C     C_3   0.183494 0.561603 0.907161 -0.717926
H10   H     H_    0.210090 0.611676 0.918006 0.233890
H11   H     H_    0.321514 0.538073 0.898140 0.208870
H12   H     H_    0.091219 0.559073 0.869100 0.208682
C69   C     C_3   0.683492 0.938397 0.907161 -0.717916
H13   H     H_    0.710082 0.888324 0.918006 0.233887
H14   H     H_    0.591222 0.940929 0.869100 0.208680
H15   H     H_    0.821515 0.961926 0.898142 0.208871
C70   C     C_3   0.316499 0.061601 0.092839 -0.717927
H16   H     H_    0.289911 0.111675 0.081996 0.233891
H17   H     H_    0.178474 0.038072 0.101857 0.208874
H18   H     H_    0.408766 0.059068 0.130902 0.208680
C71   C     C_3   0.316508 0.061605 0.407163 -0.717929
H19   H     H_    0.289909 0.111678 0.418009 0.233891
H20   H     H_    0.408784 0.059077 0.369102 0.208683
H21   H     H_    0.178490 0.038075 0.398140 0.208868
C72   C     C_3   0.683490 0.938394 0.592837 -0.717922
H22   H     H_    0.710087 0.888322 0.581991 0.233890
H23   H     H_    0.821510 0.961925 0.601859 0.208867
H24   H     H_    0.591215 0.940923 0.630898 0.208682
C73   C     C_3   0.648309 0.446136 0.537589 -0.756468
H25   H     H_    0.537249 0.450241 0.504990 0.225910
H26   H     H_    0.672249 0.395155 0.545017 0.224342
H27   H     H_    0.600598 0.468591 0.577491 0.204848
C74   C     C_3   0.351695 0.553864 0.462412 -0.756481
H28   H     H_    0.462739 0.549770 0.495016 0.225913
H29   H     H_    0.399431 0.531399 0.422518 0.204848
H30   H     H_    0.327749 0.604842 0.454970 0.224341
C75   C     C_3   0.351700 0.553860 0.037585 -0.756516
H31   H     H_    0.462734 0.549772 0.004979 0.225926
H32   H     H_    0.327758 0.604835 0.045033 0.224344
H33   H     H_    0.399446 0.531391 0.077474 0.204853
C76   C     C_3   0.648301 0.446140 0.962414 -0.756511
H34   H     H_    0.537260 0.450234 0.995019 0.225924
H35   H     H_    0.600567 0.468605 0.922522 0.204853
H36   H     H_    0.672240 0.395163 0.954972 0.224345
C77   C     C_3   0.148301 0.053864 0.962415 -0.756518
H37   H     H_    0.037273 0.049781 0.995025 0.225921
H38   H     H_    0.172252 0.104838 0.954963 0.224345
H39   H     H_    0.100543 0.031392 0.922529 0.204852
C78   C     C_3   0.851690 0.946136 0.037587 -0.756440
H40   H     H_    0.962761 0.950249 0.004990 0.225909
H41   H     H_    0.899385 0.968585 0.077494 0.204846
H42   H     H_    0.827751 0.895153 0.045007 0.224340
C79   C     C_3   0.851702 0.946143 0.462413 -0.756514
H43   H     H_    0.962738 0.950233 0.495018 0.225926
H44   H     H_    0.827765 0.895167 0.454965 0.224345
H45   H     H_    0.899443 0.968612 0.422523 0.204852
C80   C     C_3   0.148296 0.053857 0.537587 -0.756494
H46   H     H_    0.037270 0.049774 0.504976 0.225926
H47   H     H_    0.100537 0.031380 0.577473 0.204848
H48   H     H_    0.172239 0.104832 0.545043 0.224340

loop_
_geom_bond_atom_site_label_1
_geom_bond_atom_site_label_2
_ccdc_geom_bond_type
O17   V3    S    
C60   N4    T    
O18   V4    S    
C63   N7    T    
C24   C64   S    
O12   V1    S    
C46   C54   S    
C45   C53   S    
C64   N8    T    
C10   C18   S    
C77   H39   S    
C47   C55   S    
C77   H37   S    
C12   C43   S    
O15   V4    S    
C59   N3    T    
O16   V3    S    
C73   H26   S    
C75   H32   S    
O11   C3    A    
C80   H46   S    
O8    V1    S    
C11   C35   S    
C16   C47   S    
C27   C51   T    
C17   C34   S    
C73   H25   S    
C78   H41   S    
C20   C44   S    
O19   V1    S    
O6    C7    A    
C20   C35   S    
C42   C50   S    
C21   C38   S    
O1    V3    S    
C41   C49   S    
C10   C41   S    
O3    C2    A    
O2    V4    S    
C71   H21   S    
C68   H11   S    
C35   C43   S    
C14   C70   S    
C34   C42   S    
O11   V2    S    
C38   C77   S    
C72   H24   S    
C15   C48   S    
C79   H44   S    
C20   C60   S    
C11   C19   S    
O9    V1    S    
C36   C75   S    
C73   H27   S    
C24   C39   S    
O15   C7    A    
C14   C45   S    
C80   H47   S    
O7    V2    S    
C13   C46   S    
O14   C6    A    
C38   C46   S    
C33   C74   S    
C24   C48   S    
C18   C33   S    
C65   H2    S    
C9    C42   S    
C65   H1    S    
O5    V1    S    
O17   V1    S    
C75   H33   S    
C10   C66   S    
C22   C46   S    
C77   H38   S    
C22   C37   S    
O19   V3    S    
C19   C59   S    
C66   H4    S    
O20   V4    S    
C18   C42   S    
C76   H36   S    
O14   V4    S    
C23   C40   S    
C7    C26   S    
C17   C41   S    
C22   C62   S    
C28   C52   T    
C21   C45   S    
C40   C79   S    
C57   N1    T    
C68   H12   S    
C69   H14   S    
C76   H35   S    
C29   C53   T    
C19   C43   S    
C11   C67   S    
C72   H23   S    
C67   H8    S    
C74   H30   S    
C31   C55   T    
O10   V2    S    
C58   N2    T    
C17   C57   S    
O12   C4    A    
O8    C5    A    
C23   C63   S    
O13   C5    A    
C67   H9    S    
C79   H45   S    
C10   C34   S    
C1    C32   S    
C23   C47   S    
C71   H19   S    
C19   C36   S    
O4    C1    A    
C78   H42   S    
C3    C30   S    
O9    C1    A    
O6    V2    S    
C39   C47   S    
O18   V2    S    
C66   H6    S    
C72   H22   S    
C25   C49   T    
C70   H18   S    
C43   C51   S    
C39   C80   S    
C13   C21   S    
C62   N6    T    
C65   H3    S    
C21   C61   S    
C15   C23   S    
C69   H13   S    
C67   H7    S    
C37   C45   S    
C8    C25   S    
C16   C24   S    
O1    C4    A    
C9    C33   S    
O2    C3    A    
O13   V3    S    
C18   C58   S    
C33   C41   S    
C4    C29   S    
C12   C36   S    
C15   C71   S    
C13   C37   S    
C80   H48   S    
O7    C6    A    
C15   C39   S    
C75   H31   S    
C70   H16   S    
C32   C56   T    
C66   H5    S    
C36   C44   S    
C9    C17   S    
C69   H15   S    
C70   H17   S    
C79   H43   S    
C48   C56   S    
C76   H34   S    
C14   C22   S    
C44   C52   S    
C26   C50   T    
C74   H28   S    
O5    C8    A    
C11   C44   S    
O10   C2    A    
C2    C31   S    
C16   C72   S    
O20   V2    S    
C9    C65   S    
C40   C48   S    
O3    V4    S    
C71   H20   S    
O4    V3    S    
C12   C20   S    
C13   C69   S    
C35   C76   S    
O16   C8    A    
C68   H10   S    
C12   C68   S    
C74   H29   S    
C16   C40   S    
C34   C73   S    
C30   C54   T    
C61   N5    T    
C78   H40   S    
C37   C78   S    
C5    C28   S    
C6    C27   S    
C14   C38   S    
