data_mof_unit_66767.cif
_audit_creation_date              2012-12-11T14:19:35-0500
_audit_creation_method            fapswitch 2.2
_symmetry_space_group_name_H-M    P1
_symmetry_Int_Tables_number       1
_space_group_crystal_system       triclinic
_cell_length_a                    8.339131
_cell_length_b                    12.674476
_cell_length_c                    15.103563
_cell_angle_alpha                 94.992663
_cell_angle_beta                  98.360195
_cell_angle_gamma                 97.973441
_cell_volume                      1554.73618581

loop_
_atom_site_label
_atom_site_type_symbol
_atom_type_description
_atom_site_fract_x
_atom_site_fract_y
_atom_site_fract_z
_atom_type_partial_charge
Ba1   Ba    Ba6+2 0.153570 0.551840 0.456200 1.711931
Ba2   Ba    Ba6+2 0.656590 0.448150 0.543720 1.679237
C1    C     C_3   0.313788 0.768796 0.113153 -0.263935
C2    C     C_R   0.723005 0.816496 0.474275 -0.216119
C3    C     C_R   0.688066 0.995710 0.439044 -0.014397
C4    C     C_3   0.956023 0.837051 0.208447 0.720100
C5    C     C_R   0.623012 0.887432 0.437978 0.082390
C6    C     C_R   0.885957 0.851148 0.515281 0.048369
C7    C     C_R   0.951394 0.963046 0.518623 -0.064054
C8    C     C_R   0.851450 0.036262 0.479350 -0.038897
C9    C     C_R   0.919027 0.147827 0.482465 0.068344
C10   C     C_R   0.179688 0.111945 0.557835 0.005610
C11   C     C_R   0.113985 0.004305 0.559115 -0.082496
C12   C     C_3   0.331854 0.755441 0.213266 0.320168
C13   C     C_R   0.229217 0.473714 0.768060 -0.309835
C14   C     C_R   0.129512 0.437244 0.828564 -0.000910
C15   C     C_R   0.192626 0.449571 0.921412 -0.116983
C16   C     C_3   0.033459 0.923137 0.155740 -0.268135
C17   C     C_R   0.357426 0.499157 0.954570 0.068324
C18   C     C_R   0.451592 0.538512 0.890169 -0.009487
C19   C     C_R   0.387236 0.527092 0.798762 0.044063
C20   C     C_R   0.595751 0.561188 0.085641 -0.063913
C21   C     C_R   0.662988 0.572149 0.177115 0.088671
C22   C     C_R   0.412349 0.477796 0.210747 -0.001944
C23   C     C_3   0.580501 0.780483 0.665953 0.266382
C24   C     C_R   0.342185 0.467322 0.119433 -0.105499
C25   C     C_R   0.431353 0.510450 0.054105 0.027591
C26   C     C_R   0.569469 0.533609 0.239231 -0.281968
C27   C     C_3   0.744668 0.315475 0.271619 0.335180
C28   C     C_3   0.688910 0.283792 0.171121 0.379499
C29   C     C_3   0.080299 0.691188 0.730635 0.296227
C30   C     C_3   0.086055 0.717867 0.831805 0.366678
C31   C     C_3   0.334756 0.222062 0.340199 0.285304
C32   C     C_3   0.258777 0.105724 0.334091 -0.359206
C33   C     C_3   0.910651 0.019050 0.853288 -0.210195
C34   C     C_3   0.500359 0.880470 0.659095 -0.280992
C35   C     C_3   0.750730 0.966496 0.878557 -0.277010
C36   C     C_3   0.824959 0.157672 0.747131 0.347977
C37   C     C_3   0.894416 0.052860 0.757162 -0.255140
C38   C     C_3   0.330319 0.214890 0.772339 0.430706
C39   C     C_3   0.283337 0.172496 0.857616 0.255979
C40   C     C_R   0.081673 0.182492 0.521786 -0.275227
H1    H     H_    0.218185 0.710286 0.228332 0.061305
H2    H     H_    0.378705 0.711975 0.077978 0.125358
H3    H     H_    0.283012 0.062417 0.271775 0.122750
H4    H     H_    0.124809 0.098340 0.335023 0.145843
H5    H     H_    0.316866 0.070191 0.392570 0.091715
H6    H     H_    0.427006 0.704578 0.227237 0.085433
H7    H     H_    0.366121 0.851189 0.102660 0.224607
H8    H     H_    0.715542 0.802535 0.674543 -0.009096
H9    H     H_    0.539151 0.729450 0.601071 0.029951
H10   H     H_    0.551696 0.942597 0.715547 0.130522
H11   H     H_    0.515321 0.913735 0.595128 0.044824
H12   H     H_    0.568777 0.230534 0.161204 0.048837
H13   H     H_    0.369067 0.859661 0.662243 0.179279
H14   H     H_    0.183918 0.751462 0.080749 0.138463
H15   H     H_    0.015499 0.004007 0.182116 0.180840
H16   H     H_    0.693622 0.143116 0.751578 0.127881
H17   H     H_    0.839958 0.178234 0.678727 0.020610
H18   H     H_    0.820450 0.987939 0.708398 0.062649
H19   H     H_    0.016742 0.062869 0.736019 0.084564
H20   H     H_    0.214361 0.229548 0.731704 -0.231934
H21   H     H_    0.414505 0.292363 0.789536 0.061213
H22   H     H_    0.188362 0.215901 0.881032 -0.008655
H23   H     H_    0.673875 0.356673 0.137476 0.005724
H24   H     H_    0.027124 0.842656 0.277308 -0.003509
H25   H     H_    0.234565 0.086396 0.844042 0.105245
H26   H     H_    0.610105 0.046534 0.406286 0.077510
H27   H     H_    0.191318 0.954316 0.592721 0.105087
H28   H     H_    0.133984 0.265908 0.523796 0.060519
H29   H     H_    0.672465 0.732602 0.470610 0.056310
H30   H     H_    0.676360 0.592247 0.041483 0.092607
H31   H     H_    0.111168 0.419829 0.965657 0.110921
H32   H     H_    0.220274 0.422954 0.101178 0.127888
H33   H     H_    0.574480 0.580943 0.908342 0.071239
H34   H     H_    0.201855 0.676082 0.716440 0.005218
H35   H     H_    0.622911 0.542209 0.309692 0.086727
H36   H     H_    0.181271 0.464120 0.696804 0.065900
H37   H     H_    0.166315 0.925287 0.161132 0.068569
H38   H     H_    0.978112 0.908702 0.083426 0.161491
H39   H     H_    0.650962 0.356001 0.299528 -0.210156
H40   H     H_    0.860748 0.371613 0.282275 0.083774
H41   H     H_    0.989536 0.249842 0.020876 0.347380
H42   H     H_    0.495649 0.832890 0.949474 0.390246
H43   H     H_    0.652428 0.016160 0.865759 0.224500
H44   H     H_    0.712759 0.886474 0.840306 0.144398
H45   H     H_    0.987984 0.618275 0.708266 -0.017878
H46   H     H_    0.770205 0.954634 0.951003 0.182355
H47   H     H_    0.995324 0.959439 0.857118 0.193734
H48   H     H_    0.965184 0.087671 0.904335 0.173545
H49   H     H_    0.348397 0.086363 0.039217 0.342912
H50   H     H_    0.639560 0.003923 0.233113 0.377145
H51   H     H_    0.102632 0.646457 0.867257 -0.070687
H52   H     H_    0.967372 0.742007 0.844146 0.007941
H53   H     H_    0.332176 0.258749 0.409450 0.049719
H54   H     H_    0.459435 0.223102 0.324760 0.056846
O1    O     O_2   0.168170 0.764170 0.543850 -0.483172
O2    O     O_2   0.786724 0.418614 0.822791 -0.446981
O3    O     O_3   0.903681 0.236979 0.816945 -0.593240
O4    O     O_3   0.898670 0.629780 0.545890 -0.492019
O5    O     O_3   0.409490 0.443300 0.392340 -0.506615
O6    O     O_2   0.674250 0.555830 0.719690 -0.481859
O7    O     O_3   0.538715 0.732714 0.741771 -0.592089
O8    O     O_2   0.525314 0.112771 0.575936 -0.532807
O9    O     O_3   0.406473 0.139364 0.726183 -0.611948
O10   O     O_3   0.365980 0.695510 0.380810 -0.498198
O11   O     O_2   0.276318 0.881124 0.424771 -0.514419
O12   O     O_3   0.248925 0.272777 0.274575 -0.569975
O13   O     O_3   0.036835 0.778768 0.687835 -0.634477
O14   O     O_3   0.372151 0.855760 0.266822 -0.600873
O15   O     O_2   0.136040 0.444100 0.280280 -0.436889
O16   O     O_3   0.934510 0.640480 0.335500 -0.480155
O17   O     O_2   0.972759 0.538782 0.178770 -0.491669
O18   O     O_2   0.969226 0.197375 0.189622 -0.289913
O19   O     O_2   0.749630 0.109133 0.072976 -0.209271
O20   O     O_3   0.909940 0.291023 0.045149 -0.484993
O21   O     O_2   0.284951 0.899686 0.811410 -0.304519
O22   O     O_2   0.197822 0.883752 0.957746 -0.357094
O23   O     O_3   0.950888 0.735709 0.160343 -0.647773
O24   O     O_3   0.418945 0.772037 0.914324 -0.542873
O25   O     O_2   0.610747 0.204977 0.913065 -0.218300
O26   O     O_2   0.438169 0.283781 0.009930 -0.378535
O27   O     O_3   0.434258 0.077958 0.001308 -0.426797
O28   O     O_2   0.658871 0.835753 0.120802 -0.346093
O29   O     O_2   0.689129 0.793128 0.277885 -0.420825
O30   O     O_3   0.754936 0.992689 0.249249 -0.514575
O31   O     O_2   0.642110 0.235770 0.456130 -0.507551
O32   O     O_3   0.911620 0.370210 0.454030 -0.493157
O33   O     O_3   0.444310 0.304480 0.619110 -0.473208
O34   O     O_3   0.764107 0.222476 0.312480 -0.598374
O35   O     O_3   0.400800 0.556680 0.607590 -0.491806
O36   O     O_3   0.875770 0.359510 0.664420 -0.500127
P1    P     P_3+3 0.998660 0.747790 0.570900 0.979864
P2    P     P_3+3 0.306970 0.411860 0.294270 1.021322
P3    P     P_3+3 0.880381 0.625528 0.216299 1.007486
P4    P     P_3+3 0.811620 0.252200 0.429030 1.012020
P5    P     P_3+3 0.920994 0.366295 0.782353 1.001173
P6    P     P_3+3 0.410243 0.833293 0.380735 0.984723
P7    P     P_3+3 0.501210 0.593228 0.718936 0.982018
P8    P     P_3+3 0.389846 0.165954 0.613994 0.937709
S1    S     S_3+6 0.832700 0.216003 0.119878 0.006919
S2    S     S_3+6 0.249002 0.823608 0.879196 -0.104218
S3    S     S_3+6 0.449631 0.188249 0.946998 -0.052532
S4    S     S_3+6 0.755899 0.863480 0.213579 -0.125881

loop_
_geom_bond_atom_site_label_1
_geom_bond_atom_site_label_2
_ccdc_geom_bond_type
C6    C7    A    
C30   H52   S    
O19   S1    D    
O25   S3    D    
C35   H46   S    
C14   P5    S    
Ba1   O32   S    
O1    P1    D    
C2    C6    A    
C1    H7    S    
C39   H25   S    
O5    P2    S    
C27   H39   S    
C28   H12   S    
C24   C25   A    
C38   H21   S    
C35   H43   S    
C33   C35   S    
C22   C24   A    
C39   S3    S    
O32   P4    S    
Ba1   O16   S    
C36   C37   S    
O10   P6    S    
C13   H36   S    
Ba2   O6    S    
O29   S4    D    
C13   C14   A    
C40   H28   S    
Ba2   O33   S    
C38   H20   S    
C9    C40   A    
Ba1   Ba2   S    
C7    C11   A    
C23   H8    S    
C10   C40   A    
C34   H11   S    
C24   H32   S    
C36   H16   S    
C29   C30   S    
C16   H37   S    
Ba2   O36   S    
C10   P8    S    
C32   H4    S    
C17   C25   S    
C7    C8    A    
C30   S2    S    
C34   H10   S    
Ba1   O10   S    
Ba2   O31   S    
C12   H1    S    
C30   H51   S    
Ba2   O4    S    
H49   O27   S    
C15   H31   S    
C31   O12   S    
O26   S3    D    
C2    C5    A    
Ba1   P1    S    
C31   H53   S    
Ba1   O4    S    
C20   H30   S    
C3    H26   S    
Ba2   O35   S    
C4    C16   S    
C1    H2    S    
C29   H45   S    
O2    P5    D    
O13   P1    S    
O18   S1    D    
C35   H44   S    
O14   P6    S    
O24   S2    S    
O31   P4    D    
O3    P5    S    
Ba1   O1    S    
C3    C5    A    
C23   O7    S    
C12   H6    S    
Ba2   O5    S    
Ba1   O35   S    
O36   P5    S    
O23   P3    S    
O8    P8    D    
C18   H33   S    
C33   C37   S    
C23   H9    S    
O12   P2    S    
C27   C28   S    
O7    P7    S    
C1    H14   S    
C16   H15   S    
C27   O34   S    
C4    H24   S    
H42   O24   S    
C31   C32   S    
C29   O13   S    
C32   H3    S    
C21   C26   A    
C18   C19   A    
C26   H35   S    
C28   S1    S    
C1    C12   S    
C27   H40   S    
C33   H47   S    
C38   C39   S    
C20   C25   A    
C19   P7    S    
O16   P3    S    
C4    S4    S    
Ba1   P2    S    
C31   H54   S    
Ba1   O5    S    
C4    O23   S    
C37   H19   S    
O4    P1    S    
C22   P2    S    
C12   O14   S    
C6    P1    S    
H41   O20   S    
O34   P4    S    
C22   C26   A    
C36   H17   S    
C36   O3    S    
O22   S2    D    
H50   O30   S    
C5    P6    S    
O15   P2    D    
C21   P3    S    
C17   C18   A    
O21   S2    D    
C3    C8    A    
C34   H13   S    
C9    P4    S    
Ba1   O15   S    
O9    P8    S    
C29   H34   S    
C14   C15   A    
O33   P8    S    
C11   H27   S    
O11   P6    D    
C37   H18   S    
O30   S4    S    
C15   C17   A    
O6    P7    D    
Ba2   P4    S    
C28   H23   S    
O35   P7    S    
C8    C9    A    
C23   C34   S    
O20   S1    S    
C33   H48   S    
C13   C19   A    
C10   C11   A    
C16   H38   S    
O17   P3    D    
O27   S3    S    
C20   C21   A    
O28   S4    D    
C32   H5    S    
C39   H22   S    
C2    H29   S    
C38   O9    S    
Ba2   O32   S    
