data_mof_unit_17161.cif
_audit_creation_date              2012-12-11T14:50:30-0500
_audit_creation_method            fapswitch 2.2
_symmetry_space_group_name_H-M    P1
_symmetry_Int_Tables_number       1
_space_group_crystal_system       triclinic
_cell_length_a                    10.845138
_cell_length_b                    10.95508
_cell_length_c                    18.826464
_cell_angle_alpha                 90.38204
_cell_angle_beta                  90.078405
_cell_angle_gamma                 60.154015
_cell_volume                      1940.0422605

loop_
_atom_site_label
_atom_site_type_symbol
_atom_type_description
_atom_site_fract_x
_atom_site_fract_y
_atom_site_fract_z
_atom_type_partial_charge
C1    C     C_R   0.236492 0.646297 0.609576 0.538625
C2    C     C_3   0.751750 0.507010 0.797722 -0.256741
C3    C     C_3   0.694716 0.664694 0.815894 0.047595
C4    C     C_3   0.670254 0.637348 0.679750 0.030453
C5    C     C_3   0.743679 0.725139 0.691762 -0.261283
C6    C     C_3   0.760565 0.488437 0.716521 -0.074007
C7    C     C_R   0.800311 0.130519 0.704591 -0.148486
C8    C     C_R   0.819719 0.096195 0.776835 -0.145133
C9    C     C_R   0.716178 0.080405 0.813507 0.019912
C10   C     C_R   0.598608 0.091430 0.776250 -0.145662
C11   C     C_R   0.580440 0.124082 0.705601 -0.146008
C12   C     C_R   0.652719 0.618272 0.602964 0.538175
C13   C     C_R   0.676517 0.151753 0.669812 0.015408
C14   C     C_R   0.200237 0.549566 0.721880 -0.153050
C15   C     C_R   0.186099 0.558342 0.795583 -0.150629
C16   C     C_R   0.166067 0.679677 0.831396 0.025007
C17   C     C_R   0.162129 0.790522 0.792789 -0.148642
C18   C     C_R   0.168787 0.784827 0.719785 -0.147821
C19   C     C_R   0.191052 0.663408 0.683555 0.019869
C20   C     C_R   0.729142 0.526330 0.271626 -0.123025
C21   C     C_R   0.727696 0.539278 0.198877 -0.129207
C22   C     C_R   0.650420 0.671908 0.167753 0.030211
C23   C     C_R   0.630360 0.224616 0.601889 0.538236
C24   C     C_R   0.561965 0.789621 0.210245 -0.128494
C25   C     C_R   0.559224 0.775377 0.283820 -0.132657
C26   C     C_R   0.647267 0.644144 0.314990 0.034570
C27   C     C_R   0.541375 0.161397 0.287096 -0.136327
C28   C     C_R   0.541348 0.156454 0.214301 -0.138738
C29   C     C_R   0.650971 0.158390 0.176224 0.037345
C30   C     C_R   0.757333 0.171866 0.211738 -0.146294
C31   C     C_R   0.756356 0.178611 0.285055 -0.146935
C32   C     C_R   0.646369 0.176778 0.322863 0.038083
C33   C     C_R   0.087033 0.803437 0.305044 -0.135566
C34   C     C_R   0.218840 0.649654 0.402470 0.549295
C35   C     C_R   0.068626 0.815585 0.232899 -0.121947
C36   C     C_R   0.106895 0.695619 0.190624 0.038432
C37   C     C_R   0.151328 0.565179 0.221774 -0.137912
C38   C     C_R   0.172064 0.552403 0.294504 -0.127396
C39   C     C_R   0.148020 0.670533 0.335316 0.031606
C40   C     C_R   0.727421 0.043123 0.888755 0.553663
C41   C     C_R   0.718020 0.683599 0.890951 0.538916
C42   C     C_R   0.115446 0.708248 0.904618 0.539247
C43   C     C_R   0.674258 0.108208 0.103911 0.557010
C44   C     C_R   0.693777 0.690158 0.097135 0.547921
C45   C     C_R   0.640165 0.619824 0.390588 0.546821
C46   C     C_R   0.082461 0.715585 0.115463 0.554455
C47   C     C_R   0.617998 0.227839 0.395083 0.544821
C48   C     C_3   0.535945 0.746670 0.795376 -0.251568
C49   C     C_3   0.521182 0.716088 0.716857 -0.241889
C50   C     C_3   0.777616 0.720732 0.771446 -0.221589
Cr1   Cr    Cr6+3 0.392930 0.397900 0.502230 1.022653
Cr2   Cr    Cr6+3 0.398240 0.708600 0.501260 1.020324
Cr3   Cr    Cr6+3 0.708800 0.393470 0.496460 1.052144
Cr4   Cr    Cr6+3 0.937620 0.938540 0.007640 1.009894
Cr5   Cr    Cr6+3 0.625150 0.937450 0.994520 1.005795
Cr6   Cr    Cr6+3 0.937990 0.625080 0.001190 1.010595
H1    H     H_    0.492710 0.861655 0.803010 0.131337
H2    H     H_    0.893643 0.652667 0.779939 0.128745
H3    H     H_    0.842837 0.684124 0.659824 0.119429
H4    H     H_    0.878761 0.144676 0.676650 0.188052
H5    H     H_    0.912684 0.085094 0.803956 0.127777
H6    H     H_    0.519228 0.073832 0.801574 0.133921
H7    H     H_    0.485865 0.134662 0.680257 0.140208
H8    H     H_    0.220946 0.453271 0.695208 0.138274
H9    H     H_    0.187329 0.472312 0.824212 0.129802
H10   H     H_    0.147205 0.885566 0.818585 0.132474
H11   H     H_    0.472898 0.715047 0.829440 0.123321
H12   H     H_    0.163339 0.873763 0.692094 0.144792
H13   H     H_    0.794623 0.422822 0.293803 0.131966
H14   H     H_    0.795717 0.446542 0.167395 0.126814
H15   H     H_    0.501758 0.893338 0.187277 0.127226
H16   H     H_    0.491664 0.866628 0.316262 0.119772
H17   H     H_    0.454726 0.160079 0.315005 0.126854
H18   H     H_    0.458901 0.144331 0.188263 0.124553
H19   H     H_    0.843987 0.171674 0.183078 0.115262
H20   H     H_    0.838492 0.189941 0.311898 0.115751
H21   H     H_    0.064847 0.895867 0.336110 0.127401
H22   H     H_    0.470375 0.649591 0.713534 0.137163
H23   H     H_    0.026975 0.919182 0.210195 0.138748
H24   H     H_    0.175324 0.473245 0.189886 0.121817
H25   H     H_    0.217903 0.448484 0.317521 0.136167
H26   H     H_    0.449737 0.817651 0.690165 0.143860
H27   H     H_    0.752006 0.826240 0.789690 0.125682
H28   H     H_    0.672057 0.835574 0.674968 0.131282
H29   H     H_    0.857245 0.436936 0.822182 0.141090
H30   H     H_    0.678533 0.472938 0.819809 0.115927
H31   H     H_    0.713719 0.421339 0.702193 0.149281
O1    O     O_R   0.507430 0.255570 0.581420 -0.525769
O2    O     O_R   0.524460 0.695920 0.424060 -0.499835
O3    O     O_R   0.736530 0.504260 0.414810 -0.525120
O4    O     O_R   0.691460 0.277160 0.422180 -0.510583
O5    O     O_3   0.499990 0.499990 0.499980 -0.255313
O6    O     O_R   0.089490 0.825610 0.930610 -0.532392
O7    O     O_R   0.818370 0.054540 0.929880 -0.500226
O8    O     O_R   0.605870 0.077310 0.915530 -0.521919
O9    O     O_R   0.646440 0.806700 0.917570 -0.524509
O10   O     O_R   0.837200 0.593290 0.915250 -0.527909
O11   O     O_R   0.065330 0.635370 0.931590 -0.504996
O12   O     O_R   0.280190 0.527390 0.578910 -0.502727
O13   O     O_R   0.068300 0.828790 0.091860 -0.527548
O14   O     O_R   0.798730 0.057480 0.079370 -0.506331
O15   O     O_R   0.584680 0.080480 0.076790 -0.523121
O16   O     O_R   0.626790 0.809640 0.067050 -0.505203
O17   O     O_R   0.816010 0.596460 0.076500 -0.520188
O18   O     O_R   0.045680 0.638310 0.081070 -0.499739
O19   O     O_3   0.833590 0.833690 0.001120 -0.264453
O20   O     O_R   0.260310 0.739740 0.584580 -0.526925
O21   O     O_R   0.532250 0.695150 0.573830 -0.513353
O22   O     O_R   0.744930 0.503430 0.576380 -0.473433
O23   O     O_R   0.699250 0.276390 0.571950 -0.490256
O24   O     O_R   0.499020 0.256400 0.419850 -0.528615
O25   O     O_R   0.272400 0.528160 0.429140 -0.507373
O26   O     O_R   0.251910 0.740570 0.423020 -0.517919
C51   C     C_2   0.916452 0.412473 0.694054 0.226784
H32   H     H_    0.985871 0.452197 0.710206 0.100167
O27   O     O_2   0.966446 0.305297 0.658145 -0.526019

loop_
_geom_bond_atom_site_label_1
_geom_bond_atom_site_label_2
_ccdc_geom_bond_type
Cr3   O23   S    
Cr1   O25   S    
C42   O6    A    
C34   O25   A    
Cr4   O14   S    
C35   C36   A    
Cr6   O11   S    
C28   H18   S    
C1    O12   A    
C51   H32   S    
C44   O17   A    
C7    C8    A    
C10   H6    S    
Cr2   O26   S    
C34   O26   A    
Cr5   O15   S    
C17   H10   S    
C33   C39   A    
C36   C37   A    
C11   H7    S    
C42   O11   A    
C38   C39   A    
C41   O9    A    
C18   H12   S    
C15   C16   A    
C15   H9    S    
C46   O18   A    
Cr5   O16   S    
C3    C48   S    
C49   H22   S    
C13   C23   S    
C2    H29   S    
C18   C19   A    
C6    C51   S    
Cr4   O6    S    
C26   C45   S    
C3    C50   S    
C22   C44   S    
Cr2   O20   S    
C8    C9    A    
Cr3   O4    S    
C36   C46   S    
C4    C12   S    
C29   C30   A    
C45   O2    A    
C9    C10   A    
C8    H5    S    
C21   C22   A    
C29   C43   S    
Cr4   O13   S    
Cr2   O2    S    
C2    C6    S    
Cr6   O10   S    
C12   O22   A    
C44   O16   A    
C50   H27   S    
Cr1   O12   S    
C37   H24   S    
C1    C19   S    
Cr4   O19   S    
Cr5   O19   S    
C34   C39   S    
C50   H2    S    
C48   H1    S    
C24   C25   A    
Cr6   O17   S    
Cr5   O8    S    
C12   O21   A    
C5    H28   S    
C5    H3    S    
C16   C17   A    
C25   C26   A    
C9    C40   S    
C6    H31   S    
C49   H26   S    
C43   O14   A    
C37   C38   A    
Cr1   O5    S    
C31   C32   A    
C7    C13   A    
C14   H8    S    
Cr3   O5    S    
C17   C18   A    
C25   H16   S    
C45   O3    A    
Cr6   O19   S    
C1    O20   A    
C4    C6    S    
C48   C49   S    
C23   O1    A    
C38   H25   S    
C32   C47   S    
C41   O10   A    
C20   H13   S    
Cr2   O5    S    
C40   O8    A    
C16   C42   S    
C7    H4    S    
C27   C28   A    
Cr3   O22   S    
C23   O23   A    
C46   O13   A    
C28   C29   A    
Cr1   O24   S    
C27   C32   A    
C47   O4    A    
C14   C19   A    
C40   O7    A    
Cr5   O9    S    
Cr1   O1    S    
C51   O27   D    
C21   H14   S    
C4    C49   S    
C2    C3    S    
C43   O15   A    
C30   H19   S    
C11   C13   A    
C33   H21   S    
C31   H20   S    
C30   C31   A    
C20   C26   A    
C47   O24   A    
C35   H23   S    
C33   C35   A    
C2    H30   S    
C22   C24   A    
C48   H11   S    
C5    C50   S    
Cr6   O18   S    
Cr4   O7    S    
C3    C41   S    
C10   C11   A    
C4    C5    S    
C20   C21   A    
Cr2   O21   S    
Cr3   O3    S    
C14   C15   A    
C27   H17   S    
C24   H15   S    
