data_mof_unit_30751.cif
_audit_creation_date              2012-12-10T17:19:23-0500
_audit_creation_method            fapswitch 2.2
_symmetry_space_group_name_H-M    P1
_symmetry_Int_Tables_number       1
_space_group_crystal_system       triclinic
_cell_length_a                    15.026131
_cell_length_b                    10.891299
_cell_length_c                    9.598823
_cell_angle_alpha                 90.010009
_cell_angle_beta                  89.043635
_cell_angle_gamma                 93.718701
_cell_volume                      1567.36008386

loop_
_atom_site_label
_atom_site_type_symbol
_atom_type_description
_atom_site_fract_x
_atom_site_fract_y
_atom_site_fract_z
_atom_type_partial_charge
C1    C     C_R   0.490410 0.262773 0.500435 0.934321
C2    C     C_R   0.911962 0.595755 0.471280 0.153314
C3    C     C_R   0.942050 0.257026 0.494893 -0.098969
C4    C     C_R   0.035561 0.258022 0.482262 0.411206
C5    C     C_R   0.088653 0.370329 0.493418 -0.085575
C6    C     C_R   0.046152 0.482420 0.485220 -0.003506
C7    C     C_R   0.097629 0.596023 0.477989 0.148263
C8    C     C_R   0.056366 0.706696 0.463775 -0.206145
C9    C     C_R   0.964196 0.706445 0.459098 -0.192171
C10   C     C_R   0.182904 0.374801 0.507646 -0.049347
C11   C     C_R   0.232215 0.489483 0.500228 -0.155746
C12   C     C_R   0.329053 0.497722 0.500720 0.837112
C13   C     C_R   0.189954 0.598136 0.483997 -0.278501
C14   C     C_R   0.410641 0.116705 0.736145 -0.202899
C15   C     C_R   0.401581 0.059721 0.865325 -0.200785
C16   C     C_R   0.434810 0.945254 0.884257 0.459270
C17   C     C_R   0.472173 0.885287 0.770424 -0.252846
C18   C     C_R   0.475536 0.937476 0.633994 -0.010155
C19   C     C_R   0.454600 0.061651 0.623519 0.063901
C20   C     C_R   0.478821 0.128311 0.501323 -0.114678
C21   C     C_R   0.504793 0.066986 0.382235 -0.230504
C22   C     C_R   0.520540 0.942881 0.386144 0.432481
C23   C     C_R   0.502333 0.738688 0.501764 0.795373
C24   C     C_R   0.501448 0.874415 0.509066 -0.201932
C25   C     C_R   0.633897 0.641437 0.139415 -0.045952
C26   C     C_R   0.706223 0.696113 0.065152 -0.205028
C27   C     C_R   0.704051 0.700913 0.921705 -0.197972
C28   C     C_R   0.631845 0.645289 0.852627 -0.121380
C29   C     C_R   0.565887 0.569295 0.923350 0.113810
C30   C     C_R   0.566001 0.568992 0.072660 0.178831
C31   C     C_R   0.436041 0.436623 0.076792 -0.172077
C32   C     C_R   0.432887 0.441230 0.928692 0.517989
C33   C     C_R   0.670822 0.499894 0.498837 0.806077
C34   C     C_R   0.819824 0.598194 0.471802 -0.279603
C35   C     C_R   0.766800 0.490920 0.495034 -0.103684
C36   C     C_R   0.804538 0.376899 0.513534 -0.007712
C37   C     C_R   0.898755 0.369939 0.498721 -0.105426
C38   C     C_R   0.952216 0.482150 0.484106 0.043994
Cu1   Cu    Cu3+1 0.499990 0.499990 0.640660 0.969120
Cu2   Cu    Cu3+1 0.500010 0.500010 0.359340 0.970452
H1    H     H_    0.788815 0.684734 0.458940 0.113970
H2    H     H_    0.381529 0.203509 0.723941 0.230948
H3    H     H_    0.370854 0.106148 0.951679 0.161618
H4    H     H_    0.503154 0.803226 0.797565 0.178596
H5    H     H_    0.384782 0.383901 0.135137 0.165545
H6    H     H_    0.631860 0.663023 0.247486 0.190974
H7    H     H_    0.761063 0.743276 0.119064 0.140460
H8    H     H_    0.755958 0.753891 0.864245 0.164730
H9    H     H_    0.628662 0.668840 0.745232 0.184202
H10   H     H_    0.229556 0.684990 0.476906 0.143461
H11   H     H_    0.095485 0.793763 0.456627 0.160391
H12   H     H_    0.933575 0.793345 0.448525 0.159099
H13   H     H_    0.520171 0.117377 0.286685 0.182844
N1    N     N_R   0.500860 0.501210 0.147910 -0.231941
N2    N     N_R   0.500890 0.501290 0.852040 -0.235440
O1    O     O_R   0.499990 0.319640 0.618810 -0.567103
O2    O     O_R   0.500000 0.319660 0.381240 -0.561768
O3    O     O_R   0.370250 0.499960 0.618800 -0.562662
O4    O     O_R   0.370260 0.499980 0.381230 -0.579421
O5    O     O_R   0.500000 0.680340 0.618760 -0.633198
O6    O     O_R   0.500010 0.680360 0.381190 -0.553395
O7    O     O_R   0.629740 0.500020 0.618770 -0.590321
O8    O     O_R   0.629750 0.500040 0.381200 -0.586368
O9    O     O_3   0.438104 0.897173 0.017230 -0.600765
C39   C     C_3   0.375364 0.795335 0.033313 0.085459
H14   H     H_    0.408713 0.721319 0.087455 0.182263
H15   H     H_    0.349989 0.755162 0.933237 0.108020
C40   C     C_3   0.297309 0.832866 0.124500 -0.334581
H16   H     H_    0.322327 0.862659 0.228347 0.235422
H17   H     H_    0.266443 0.911648 0.075221 0.210585
C41   C     C_3   0.226805 0.726783 0.143483 -0.952719
H18   H     H_    0.198075 0.699471 0.041340 0.258848
H19   H     H_    0.172249 0.756211 0.212570 0.262447
H20   H     H_    0.256436 0.646454 0.191545 0.272919
O10   O     O_3   0.558472 0.889434 0.270375 -0.576926
C42   C     C_3   0.643799 0.948175 0.239501 0.034652
H21   H     H_    0.694541 0.880769 0.256004 0.123042
H22   H     H_    0.664086 0.027250 0.308335 0.184690
C43   C     C_3   0.647438 0.993136 0.088379 -0.299990
H23   H     H_    0.626761 0.916384 0.017585 0.250964
H24   H     H_    0.600106 0.066358 0.075377 0.227773
C44   C     C_3   0.741107 0.044411 0.047066 -0.853190
H25   H     H_    0.761026 0.125561 0.112265 0.292735
H26   H     H_    0.742188 0.073368 0.936297 0.274311
H27   H     H_    0.790044 0.973243 0.059877 0.248247
C45   C     C_2   0.743981 0.270033 0.555133 0.854329
O11   O     O_2   0.687131 0.229518 0.474804 -0.621455
O12   O     O_R   0.751245 0.217216 0.686700 -0.749714
H28   H     H_    0.705669 0.145610 0.702729 0.326073
O13   O     O_3   0.360716 0.384387 0.861336 -0.611483
C46   C     C_3   0.280195 0.437390 0.901766 0.054309
H29   H     H_    0.247757 0.468378 0.806106 0.188681
H30   H     H_    0.289494 0.520573 0.969221 0.108628
C47   C     C_3   0.216176 0.341397 0.973875 -0.377880
H31   H     H_    0.203845 0.261308 0.903802 0.265116
H32   H     H_    0.245910 0.308031 0.070730 0.203813
C48   C     C_3   0.127366 0.395274 0.010502 -0.878567
H33   H     H_    0.137607 0.471039 0.087220 0.259552
H34   H     H_    0.080620 0.323146 0.057259 0.257832
H35   H     H_    0.096595 0.430889 0.915383 0.268784
C49   C     C_2   0.893384 0.134253 0.494047 0.900972
O14   O     O_2   0.905277 0.060831 0.587246 -0.557792
O15   O     O_R   0.838030 0.100213 0.383257 -0.801879
H36   H     H_    0.812935 0.011851 0.391501 0.304123
O16   O     O_3   0.073430 0.146133 0.462146 -0.572747
C50   C     C_3   0.102165 0.133516 0.321576 0.036434
H37   H     H_    0.158826 0.072803 0.321651 0.193307
H38   H     H_    0.128217 0.222005 0.273212 0.131478
C51   C     C_3   0.027632 0.072827 0.232986 -0.380814
H39   H     H_    0.994649 0.993257 0.290387 0.243692
H40   H     H_    0.977446 0.140791 0.212259 0.238082
C52   C     C_3   0.063320 0.026926 0.094005 -0.882038
H41   H     H_    0.100191 0.102763 0.035970 0.265050
H42   H     H_    0.006833 0.990204 0.029840 0.274958
H43   H     H_    0.108429 0.951980 0.111684 0.254354
C53   C     C_2   0.230089 0.262293 0.536532 0.854386
O17   O     O_2   0.291313 0.234161 0.460106 -0.668481
O18   O     O_R   0.202056 0.186464 0.648445 -0.733929
H44   H     H_    0.234128 0.107524 0.651143 0.330476

loop_
_geom_bond_atom_site_label_1
_geom_bond_atom_site_label_2
_ccdc_geom_bond_type
C27   H8    S    
C8    C9    A    
C49   O14   D    
C19   C20   A    
C42   C43   S    
C43   C44   S    
C52   H42   S    
C48   H33   S    
C7    C8    A    
C9    H12   S    
C26   C27   A    
C37   C38   A    
Cu2   O8    S    
C18   C24   A    
C28   C29   A    
C1    O1    A    
C42   H22   S    
C18   C19   A    
C51   H40   S    
C5    C6    A    
C45   O12   S    
C50   H37   S    
C15   C16   A    
C53   O17   D    
C34   C35   A    
O18   H44   S    
C12   O4    A    
C32   O13   S    
C31   C32   A    
C16   C17   A    
C39   H15   S    
C23   C24   S    
C6    C38   A    
C32   N2    A    
C14   H2    S    
C12   O3    A    
C2    C34   A    
C49   O15   S    
Cu2   O4    S    
C21   C22   A    
C34   H1    S    
C22   O10   S    
C52   H41   S    
C48   H34   S    
C23   O5    A    
Cu1   N2    S    
C42   H21   S    
C51   C52   S    
C46   H29   S    
C43   H24   S    
C45   O11   D    
C40   H16   S    
C29   N2    A    
C47   C48   S    
C36   C45   S    
C25   C26   A    
Cu1   O3    S    
C33   O7    A    
Cu2   O6    S    
C43   H23   S    
C35   C36   A    
O10   C42   S    
C29   C30   A    
C1    O2    A    
C46   H30   S    
C30   N1    A    
C28   H9    S    
C2    C38   A    
Cu1   O1    S    
C7    C13   A    
C33   O8    A    
C39   C40   S    
C17   C18   A    
C20   C21   A    
C47   H32   S    
C8    H11   S    
C26   H7    S    
C39   H14   S    
Cu2   N1    S    
C22   C24   A    
C3    C4    A    
Cu1   Cu2   S    
C48   H35   S    
C10   C53   S    
C41   H19   S    
O16   C50   S    
C25   C30   A    
Cu1   O7    S    
C36   C37   A    
C1    C20   S    
Cu2   O2    S    
C14   C19   A    
C4    C5    A    
C41   H20   S    
C11   C12   S    
C6    C7    A    
C44   H27   S    
C4    O16   S    
C44   H26   S    
O9    C39   S    
C17   H4    S    
C15   H3    S    
C5    C10   A    
C51   H39   S    
C46   C47   S    
C21   H13   S    
C11   C13   A    
C3    C49   S    
O13   C46   S    
C50   H38   S    
C40   C41   S    
Cu1   O5    S    
C33   C35   S    
C53   O18   S    
C31   N1    A    
C47   H31   S    
C10   C11   A    
C13   H10   S    
C23   O6    A    
C41   H18   S    
O12   H28   S    
C3    C37   A    
C40   H17   S    
C44   H25   S    
C31   H5    S    
O15   H36   S    
C14   C15   A    
C16   O9    S    
C2    C9    A    
C25   H6    S    
C52   H43   S    
C27   C28   A    
C50   C51   S    
