data_mof_unit_51314.cif
_audit_creation_date              2012-12-11T16:20:18-0500
_audit_creation_method            fapswitch 2.2
_symmetry_space_group_name_H-M    P1
_symmetry_Int_Tables_number       1
_space_group_crystal_system       triclinic
_cell_length_a                    6.91624
_cell_length_b                    34.32405
_cell_length_c                    38.332827
_cell_angle_alpha                 99.529828
_cell_angle_beta                  89.433429
_cell_angle_gamma                 90.3426
_cell_volume                      8973.84954739

loop_
_atom_site_label
_atom_site_type_symbol
_atom_type_description
_atom_site_fract_x
_atom_site_fract_y
_atom_site_fract_z
_atom_type_partial_charge
O1    O     O_R   0.494320 0.461440 0.460990 -0.542041
O2    O     O_R   0.821450 0.462560 0.532500 -0.547075
O3    O     O_R   0.994330 0.538560 0.539010 -0.528254
C1    C     C_R   0.651649 0.453915 0.543845 0.704272
O4    O     O_R   0.823870 0.456770 0.460860 -0.544119
O5    O     O_R   0.996760 0.532730 0.466860 -0.520405
C2    C     C_R   0.655439 0.446153 0.447864 0.697790
O6    O     O_R   0.491880 0.467270 0.533140 -0.542293
O7    O     O_3   0.661650 0.524930 0.502050 -0.347985
V1    V     V_3+5 0.935500 0.495380 0.499620 1.452881
O8    O     O_R   0.326630 0.537440 0.467500 -0.545208
C3    C     C_R   0.158164 0.547073 0.456965 0.759237
O9    O     O_R   0.324210 0.543230 0.539140 -0.544340
C4    C     C_R   0.154758 0.553917 0.552152 0.733103
V2    V     V_3+5 0.435810 0.504620 0.500380 1.442134
O10   O     O_3   0.159790 0.475070 0.497950 -0.376856
C5    C     C_R   0.060503 0.834422 0.791104 0.593260
N1    N     N_R   0.027368 0.824210 0.823840 -0.550408
C6    C     C_R   0.005465 0.785281 0.827520 0.577988
C7    C     C_R   0.017476 0.755051 0.797797 -0.031305
C8    C     C_R   0.054995 0.765158 0.764235 -0.016748
C9    C     C_R   0.076783 0.805141 0.760773 -0.038858
C10   C     C_R   0.994920 0.715009 0.800884 -0.137000
C11   C     C_R   0.009712 0.685479 0.771105 -0.136637
C12   C     C_R   0.048268 0.695217 0.737493 -0.030465
C13   C     C_R   0.071239 0.735208 0.734072 -0.015186
C14   C     C_R   0.110684 0.745318 0.700562 -0.033342
C15   C     C_R   0.132126 0.785357 0.697437 -0.134549
C16   C     C_R   0.114904 0.814895 0.727146 -0.131161
C17   C     C_R   0.064743 0.665954 0.707137 0.574165
N2    N     N_R   0.103624 0.676214 0.674661 -0.562163
C18   C     C_R   0.126948 0.715050 0.670970 0.580429
O11   O     O_2   0.076660 0.872838 0.787803 -0.502545
O12   O     O_2   0.975162 0.775710 0.859883 -0.519537
H1    H     H_    0.965838 0.706324 0.826335 0.174146
H2    H     H_    0.991363 0.654985 0.774548 0.174731
O13   O     O_2   0.043195 0.627549 0.710113 -0.515217
O14   O     O_2   0.164030 0.724409 0.638736 -0.510607
H3    H     H_    0.162143 0.794030 0.672012 0.175762
H4    H     H_    0.132434 0.845397 0.723671 0.178033
C19   C     C_R   0.296421 0.636057 0.627269 -0.080646
H5    H     H_    0.426117 0.651457 0.637583 0.120784
C20   C     C_R   0.309277 0.606302 0.597497 -0.190363
H6    H     H_    0.449695 0.599403 0.585377 0.137483
C21   C     C_R   0.142598 0.585817 0.583600 -0.054314
C22   C     C_R   0.963129 0.595903 0.600320 -0.170254
H7    H     H_    0.831731 0.580809 0.590498 0.131990
C23   C     C_R   0.950873 0.625455 0.630156 -0.087014
H8    H     H_    0.811557 0.632678 0.642620 0.117047
C24   C     C_R   0.117213 0.645743 0.643856 0.379846
C25   C     C_R   0.855904 0.860216 0.876561 -0.065259
H9    H     H_    0.730190 0.841516 0.870244 0.146800
C26   C     C_R   0.851183 0.889860 0.906453 -0.203819
H10   H     H_    0.721691 0.892874 0.922765 0.183865
C27   C     C_R   0.011008 0.915137 0.915325 -0.146013
C28   C     C_R   0.177210 0.909848 0.892948 0.344052
C29   C     C_R   0.181164 0.879674 0.863440 -0.118934
H11   H     H_    0.309400 0.875751 0.846791 0.165681
C30   C     C_R   0.021248 0.854764 0.854842 0.299703
C31   C     C_R   0.144840 0.859309 0.176318 0.584678
O15   O     O_2   0.236896 0.894535 0.181757 -0.521120
N3    N     N_R   0.033236 0.848895 0.146783 -0.554655
C32   C     C_R   0.933241 0.813761 0.141548 0.577246
C33   C     C_R   0.844599 0.890412 0.112281 -0.076064
C34   C     C_R   0.835181 0.915711 0.087144 -0.188234
C35   C     C_R   0.182300 0.911088 0.078893 -0.199515
C36   C     C_R   0.191220 0.885554 0.103765 -0.082956
C37   C     C_R   0.022729 0.875050 0.120812 0.367825
C38   C     C_R   0.064826 0.797176 0.195879 -0.036810
C39   C     C_R   0.163392 0.833630 0.201230 -0.039690
C40   C     C_R   0.273628 0.844090 0.231837 -0.123362
C41   C     C_R   0.945230 0.787565 0.166182 -0.024808
C42   C     C_R   0.004122 0.926485 0.070183 -0.051606
H12   H     H_    0.315260 0.918576 0.066341 0.131088
H13   H     H_    0.329799 0.873833 0.109752 0.131793
H14   H     H_    0.343065 0.872768 0.237679 0.170918
C43   C     C_R   0.151212 0.574902 0.430956 -0.069251
C44   C     C_R   0.250641 0.750678 0.271122 0.012788
C45   C     C_R   0.971691 0.712229 0.244059 0.056105
C46   C     C_R   0.115440 0.719209 0.270660 0.030363
C47   C     C_R   0.413708 0.751814 0.293983 -0.020530
C48   C     C_R   0.417170 0.727472 0.319942 -0.210107
C49   C     C_R   0.271948 0.699410 0.322178 -0.032194
C50   C     C_R   0.123531 0.694532 0.297021 -0.052589
C51   C     C_R   0.982597 0.664997 0.298350 -0.032578
C52   C     C_R   0.991092 0.641387 0.325101 0.585733
N4    N     N_R   0.136244 0.646704 0.349586 -0.553745
C53   C     C_R   0.275969 0.675013 0.348402 0.592997
C54   C     C_R   0.990444 0.624059 0.401936 -0.162723
C55   C     C_R   0.994817 0.601382 0.429332 -0.063289
C56   C     C_R   0.302724 0.573875 0.405985 -0.242023
C57   C     C_R   0.298042 0.597329 0.379454 -0.085278
C58   C     C_R   0.141286 0.622373 0.377020 0.369952
O16   O     O_2   0.417390 0.679921 0.372763 -0.524471
C59   C     C_R   0.215071 0.779416 0.248947 0.050467
C60   C     C_R   0.084269 0.770554 0.220449 0.073927
C61   C     C_R   0.969434 0.735823 0.216812 0.083446
C62   C     C_R   0.295428 0.817810 0.255617 -0.086257
H15   H     H_    0.871734 0.644211 0.400517 0.144632
H16   H     H_    0.539712 0.729322 0.337591 0.162137
H17   H     H_    0.372503 0.828386 0.279734 0.131257
O17   O     O_2   0.824277 0.803874 0.112391 -0.525281
C63   C     C_R   0.841480 0.751938 0.161614 -0.118185
H18   H     H_    0.695733 0.927136 0.081278 0.128020
H19   H     H_    0.713113 0.882937 0.125302 0.137657
H20   H     H_    0.749777 0.743524 0.138835 0.166178
C64   C     C_R   0.831607 0.682531 0.246226 -0.161245
C65   C     C_R   0.836272 0.659662 0.273020 -0.139332
O18   O     O_2   0.856239 0.613066 0.326359 -0.528738
C66   C     C_R   0.851743 0.726706 0.186561 -0.140984
H21   H     H_    0.711729 0.677312 0.228248 0.128723
H22   H     H_    0.424159 0.554199 0.406531 0.135306
H23   H     H_    0.724154 0.637621 0.273722 0.168355
H24   H     H_    0.415837 0.595654 0.360448 0.155862
H25   H     H_    0.769221 0.699658 0.181065 0.114746
C67   C     C_R   0.595363 0.309379 0.636091 0.619798
O19   O     O_2   0.584800 0.294440 0.601313 -0.517724
N5    N     N_R   0.609954 0.349381 0.646695 -0.538084
C68   C     C_R   0.622721 0.365270 0.681818 0.656268
C69   C     C_R   0.452110 0.398229 0.614577 0.019483
C70   C     C_R   0.466794 0.423715 0.589459 -0.276711
C71   C     C_R   0.797494 0.403406 0.576147 -0.211168
C72   C     C_R   0.784346 0.377736 0.600805 -0.121338
C73   C     C_R   0.614102 0.375107 0.620465 0.378089
C74   C     C_R   0.597735 0.299533 0.697555 -0.040274
C75   C     C_R   0.590088 0.283761 0.661260 -0.033107
C76   C     C_R   0.575265 0.242883 0.650864 -0.121546
C77   C     C_R   0.614197 0.340738 0.707853 -0.029715
C78   C     C_R   0.638803 0.426667 0.570134 -0.036699
H26   H     H_    0.931753 0.404807 0.561613 0.134020
H27   H     H_    0.907809 0.359845 0.604863 0.152512
H28   H     H_    0.566826 0.229965 0.623147 0.171244
C79   C     C_R   0.514907 0.073038 0.929720 -0.042987
C80   C     C_R   0.580703 0.207195 0.738539 0.035253
C81   C     C_R   0.568585 0.265452 0.785864 0.036035
C82   C     C_R   0.570006 0.223802 0.775021 0.068735
C83   C     C_R   0.592559 0.165578 0.729349 -0.168675
C84   C     C_R   0.587694 0.141197 0.754965 -0.117346
C85   C     C_R   0.570357 0.157161 0.790821 -0.038171
C86   C     C_R   0.560787 0.198458 0.800974 -0.040561
C87   C     C_R   0.541922 0.214348 0.837142 -0.027933
C88   C     C_R   0.532700 0.188790 0.862341 0.652846
N6    N     N_R   0.547011 0.148757 0.851944 -0.539177
C89   C     C_R   0.564253 0.132676 0.816905 0.628213
C90   C     C_R   0.370315 0.102158 0.882597 -0.116700
C91   C     C_R   0.356315 0.077725 0.908256 -0.176506
C92   C     C_R   0.687278 0.093645 0.925185 -0.281484
C93   C     C_R   0.702582 0.118741 0.899744 0.025424
C94   C     C_R   0.541149 0.123079 0.878200 0.373978
O20   O     O_2   0.576465 0.093122 0.807335 -0.505807
C95   C     C_R   0.580531 0.232544 0.712588 0.035791
C96   C     C_R   0.588885 0.274163 0.723490 0.068366
C97   C     C_R   0.588217 0.290720 0.760019 0.035745
C98   C     C_R   0.570806 0.217775 0.675891 -0.168879
H29   H     H_    0.222125 0.061993 0.910896 0.141062
H30   H     H_    0.247431 0.104922 0.865940 0.154968
H31   H     H_    0.597714 0.109561 0.746426 0.174531
H32   H     H_    0.610070 0.150731 0.702490 0.126059
H33   H     H_    0.555222 0.186819 0.665480 0.125583
O21   O     O_2   0.642294 0.404703 0.691525 -0.515965
C99   C     C_R   0.621979 0.356571 0.743820 -0.115460
H34   H     H_    0.343069 0.441474 0.585059 0.122174
H35   H     H_    0.637368 0.388108 0.752489 0.171683
C100  C     C_R   0.545662 0.280355 0.822378 -0.168881
C101  C     C_R   0.532334 0.255298 0.847384 -0.117096
O22   O     O_2   0.510850 0.203822 0.896963 -0.519615
C102  C     C_R   0.608983 0.332194 0.769382 -0.168655
H36   H     H_    0.533227 0.311412 0.832593 0.125126
H37   H     H_    0.810755 0.090201 0.941596 0.121829
H38   H     H_    0.515145 0.268316 0.874972 0.170047
H39   H     H_    0.619856 0.346872 0.796385 0.125394
C103  C     C_R   0.710340 0.178753 0.195716 0.607426
N7    N     N_R   0.552723 0.177518 0.173985 -0.557764
C104  C     C_R   0.408495 0.205143 0.181162 0.578759
C105  C     C_R   0.418654 0.235096 0.211086 -0.032512
C106  C     C_R   0.579142 0.236562 0.233589 -0.019231
C107  C     C_R   0.726812 0.208301 0.225845 -0.037489
C108  C     C_R   0.272369 0.263558 0.219020 -0.149300
C109  C     C_R   0.285396 0.293018 0.248842 -0.143410
C110  C     C_R   0.444701 0.294693 0.271586 -0.025236
C111  C     C_R   0.591700 0.266294 0.263970 -0.018815
C112  C     C_R   0.750973 0.267498 0.286703 -0.032377
C113  C     C_R   0.897904 0.239176 0.278642 -0.145522
C114  C     C_R   0.886263 0.210033 0.248551 -0.138789
C115  C     C_R   0.460918 0.324206 0.301738 0.584002
N8    N     N_R   0.615320 0.324756 0.324192 -0.554383
C116  C     C_R   0.758656 0.296843 0.317134 0.580684
O23   O     O_2   0.849572 0.151139 0.188572 -0.499275
O24   O     O_2   0.256168 0.203896 0.159278 -0.519789
H40   H     H_    0.146832 0.263110 0.202285 0.171901
H41   H     H_    0.169435 0.314313 0.254113 0.169651
O25   O     O_2   0.324154 0.352413 0.308209 -0.529907
O26   O     O_2   0.907179 0.296990 0.339710 -0.524205
H42   H     H_    0.022903 0.239492 0.295489 0.172925
H43   H     H_    0.002627 0.188841 0.243192 0.172078
C117  C     C_R   0.470923 0.361156 0.379734 -0.082861
H44   H     H_    0.342125 0.342966 0.375456 0.159259
C118  C     C_R   0.479721 0.390877 0.409523 -0.203678
H45   H     H_    0.356667 0.395120 0.427424 0.137184
C119  C     C_R   0.646538 0.414422 0.416410 -0.055393
C120  C     C_R   0.803692 0.407758 0.392632 -0.202707
H46   H     H_    0.933643 0.425593 0.397049 0.133264
C121  C     C_R   0.792863 0.378724 0.362342 -0.083676
H47   H     H_    0.913982 0.374951 0.343999 0.166111
C122  C     C_R   0.626606 0.354932 0.355559 0.352130
C123  C     C_R   0.678712 0.141593 0.116947 -0.048330
H48   H     H_    0.800768 0.161702 0.118596 0.152676
C124  C     C_R   0.664435 0.111077 0.087975 -0.154437
H49   H     H_    0.776359 0.108509 0.067763 0.135400
C125  C     C_R   0.507089 0.084523 0.084669 -0.133912
C126  C     C_R   0.363251 0.088816 0.111863 -0.072617
C127  C     C_R   0.379636 0.119943 0.140771 -0.052958
H50   H     H_    0.272721 0.123179 0.161896 0.189207
C128  C     C_R   0.536521 0.146357 0.143595 0.308862
O27   O     O_R   0.662230 0.032770 0.966890 -0.536111
O28   O     O_R   0.330090 0.043230 0.039150 -0.553380
O29   O     O_R   0.157350 0.967260 0.033130 -0.548422
C129  C     C_R   0.497980 0.053093 0.052775 0.670049
O30   O     O_R   0.332650 0.037450 0.967510 -0.539412
O31   O     O_R   0.159930 0.961430 0.960980 -0.505280
C130  C     C_R   0.502424 0.046087 0.956194 0.770916
O32   O     O_R   0.659640 0.038600 0.039040 -0.534587
O33   O     O_3   0.492510 0.975090 0.997960 -0.355304
V3    V     V_3+5 0.218600 0.004620 0.000380 1.464890
O34   O     O_R   0.830050 0.956730 0.960830 -0.530566
C131  C     C_R   0.999665 0.946589 0.947349 0.774432
O35   O     O_R   0.827490 0.962520 0.032470 -0.545506
C132  C     C_R   0.995607 0.953843 0.043856 0.691794
V4    V     V_3+5 0.718310 0.995320 0.999580 1.477873
O36   O     O_3   0.994270 0.024900 0.002040 -0.378318
Cl1   Cl    Cl    0.381865 0.941067 0.899092 -0.646325
C133  C     C_2   0.837888 0.608237 0.456250 0.400242
H51   H     H_    0.696985 0.617903 0.448906 0.059541
O37   O     O_2   0.866487 0.605582 0.487140 -0.516306
C134  C     C_2   0.596553 0.773278 0.289200 0.340802
H52   H     H_    0.692786 0.781577 0.311429 0.056584
O38   O     O_2   0.647592 0.779779 0.260140 -0.526677
C135  C     C_2   0.265073 0.396695 0.633636 0.397256
H53   H     H_    0.154220 0.418322 0.631210 0.049622
O39   O     O_2   0.229879 0.371221 0.651570 -0.523116
C136  C     C_2   0.889729 0.139302 0.896569 0.399788
H54   H     H_    0.000312 0.138487 0.916334 0.042923
O40   O     O_2   0.925208 0.156681 0.871914 -0.522738
C137  C     C_2   0.201645 0.060091 0.111948 0.410982
H55   H     H_    0.208852 0.031000 0.095933 0.044326
O41   O     O_2   0.058446 0.068413 0.130532 -0.505745

loop_
_geom_bond_atom_site_label_1
_geom_bond_atom_site_label_2
_ccdc_geom_bond_type
C103  C107  A    
C65   H23   S    
N4    C53   A    
C75   C76   A    
C9    C16   A    
C134  O38   D    
C81   C100  A    
C59   C60   A    
C84   H31   S    
C82   C86   A    
C38   C60   A    
C80   C83   A    
C90   C91   A    
C120  C121  A    
C59   C62   A    
C81   C82   A    
C26   H10   S    
C28   C29   A    
C121  C122  A    
C13   C14   A    
V4    O36   S    
C83   H32   S    
C54   H15   S    
C63   C66   A    
C33   C37   A    
C27   C131  S    
C71   H26   S    
C100  C101  A    
O28   C129  A    
N1    C6    A    
O5    C3    A    
C17   N2    A    
C108  H40   S    
C44   C46   A    
C29   C30   A    
O30   C130  A    
C70   H34   S    
N6    C89   A    
C35   H12   S    
C111  C112  A    
C117  C122  A    
C113  H42   S    
C34   C42   A    
C137  H55   S    
C31   N3    A    
C136  H54   S    
C19   H5    S    
C95   C98   A    
O33   V4    S    
C2    C119  S    
N5    C68   A    
C77   C99   A    
C89   O20   S    
C92   C93   A    
O1    C2    A    
O30   V3    S    
C104  C105  A    
C90   H30   S    
O8    V2    S    
C50   C51   A    
C43   C56   A    
C91   H29   S    
O33   V3    S    
O32   V4    S    
C67   N5    A    
C124  H49   S    
C109  H41   S    
C96   C97   A    
C119  C120  A    
C74   C77   A    
C79   C130  S    
C64   C65   A    
C47   C134  S    
C106  C107  A    
C118  H45   S    
C79   C92   A    
C18   O14   S    
C105  C108  A    
C51   C65   A    
O7    V1    S    
C71   C78   A    
C46   C50   A    
C42   C132  S    
C68   C77   A    
C123  C128  A    
O29   V3    S    
C23   C24   A    
C35   C36   A    
C67   C75   A    
O9    C4    A    
C116  O26   S    
C19   C20   A    
C55   C133  S    
C31   C39   A    
C5    O11   S    
C92   H37   S    
C32   O17   S    
O27   C130  A    
C76   C98   A    
C99   H35   S    
C8    C13   A    
C129  O32   A    
C4    C21   S    
C53   O16   S    
C76   H28   S    
C26   C27   A    
C86   C87   A    
C106  C111  A    
C40   C62   A    
C135  O39   D    
C43   C55   A    
O31   C131  A    
C25   H9    S    
C108  C109  A    
C72   C73   A    
C52   O18   S    
C11   C12   A    
C117  C118  A    
C110  C115  A    
C56   C57   A    
O4    C2    A    
C3    C43   S    
C123  H48   S    
C68   O21   S    
C102  H39   S    
C104  O24   S    
C15   H3    S    
C12   C13   A    
C51   C52   A    
C35   C42   A    
C114  H43   S    
C47   C48   A    
C32   C41   A    
C36   C37   A    
C17   O13   S    
C31   O15   S    
C25   C26   A    
C56   H22   S    
C38   C41   A    
O2    C1    A    
C20   H6    S    
O28   V3    S    
C126  C127  A    
N3    C32   A    
C74   C96   A    
V3    O36   S    
C88   O22   S    
C85   C89   A    
O35   C132  A    
C7    C10   A    
C100  H36   S    
C44   C59   A    
C95   C96   A    
C60   C61   A    
C7    C8    A    
C27   C28   A    
C133  O37   D    
C5    N1    A    
C29   H11   S    
C45   C64   A    
N5    C73   S    
C93   C94   A    
C112  C113  A    
C20   C21   A    
C99   C102  A    
O3    C4    A    
N8    C116  A    
C33   H19   S    
O1    V2    S    
C23   H8    S    
O35   V4    S    
C127  C128  A    
C48   C49   A    
O6    V2    S    
C10   H1    S    
O9    V2    S    
C121  H47   S    
C74   C75   A    
C45   C46   A    
C49   C50   A    
C25   C30   A    
N2    C24   S    
C103  N7    A    
O2    V1    S    
C62   H17   S    
C19   C24   A    
O31   V3    S    
C39   C40   A    
C69   C70   A    
C52   N4    A    
C115  O25   S    
C12   C17   A    
C135  H53   S    
C15   C16   A    
C134  H52   S    
C10   C11   A    
N8    C122  S    
C72   H27   S    
C14   C18   A    
O27   V4    S    
C64   H21   S    
C126  C137  S    
C45   C61   A    
N2    C18   A    
C70   C78   A    
C117  H44   S    
C6    O12   S    
C81   C97   A    
C40   H14   S    
O5    V1    S    
C21   C22   A    
C80   C82   A    
O8    C3    A    
C1    O6    A    
C71   C72   A    
C1    C78   S    
C41   C63   A    
C107  C114  A    
C83   C84   A    
C87   C101  A    
C5    C9    A    
C125  C129  S    
C120  H46   S    
N3    C37   S    
C11   H2    S    
C33   C34   A    
C6    C7    A    
N7    C128  S    
O7    V2    S    
C98   H33   S    
C105  C106  A    
V1    O10   S    
C87   C88   A    
C61   C66   A    
C85   C86   A    
C44   C47   A    
C115  N8    A    
C93   C136  S    
N6    C94   S    
C103  O23   S    
C80   C95   A    
N4    C58   S    
C16   H4    S    
C48   H16   S    
C57   C58   A    
C137  O41   D    
C67   O19   S    
C49   C53   A    
C63   H20   S    
C123  C124  A    
C112  C116  A    
C54   C58   A    
C38   C39   A    
C113  C114  A    
O34   V4    S    
C22   H7    S    
C84   C85   A    
O29   C132  A    
N7    C104  A    
C109  C110  A    
C22   C23   A    
C69   C73   A    
N1    C30   S    
O4    V1    S    
C36   H13   S    
C127  H50   S    
C28   Cl1   S    
C124  C125  A    
C125  C126  A    
C69   C135  S    
C14   C15   A    
O3    V1    S    
C90   C94   A    
C88   N6    A    
C118  C119  A    
C79   C91   A    
C34   H18   S    
C136  O40   D    
C54   C55   A    
C8    C9    A    
C57   H24   S    
C66   H25   S    
C101  H38   S    
C97   C102  A    
C110  C111  A    
V2    O10   S    
C133  H51   S    
O34   C131  A    
