data_mof_unit_24454.cif
_audit_creation_date              2013-03-05T15:42:07-0500
_audit_creation_method            fapswitch 2.2
_symmetry_space_group_name_H-M    P1
_symmetry_Int_Tables_number       1
_space_group_crystal_system       triclinic
_cell_length_a                    22.011874
_cell_length_b                    7.20911
_cell_length_c                    14.870839
_cell_angle_alpha                 90.001848
_cell_angle_beta                  107.266021
_cell_angle_gamma                 90.000144
_cell_volume                      2253.45483155

loop_
_atom_site_label
_atom_site_type_symbol
_atom_site_description
_atom_site_fract_x
_atom_site_fract_y
_atom_site_fract_z
_atom_type_partial_charge
O1    O     O_R   0.584770 0.505770 0.002090 -0.558122
O2    O     O_R   0.415230 0.005770 0.997910 -0.558073
O3    O     O_R   0.467060 0.173340 0.861950 -0.548668
O4    O     O_R   0.532940 0.673340 0.138050 -0.548695
C1    C     C_R   0.455572 0.344961 0.825480 0.896332
C2    C     C_R   0.544426 0.844966 0.174520 0.896320
O5    O     O_R   0.587510 0.175890 0.993210 -0.498574
O6    O     O_R   0.412490 0.675890 0.006790 -0.498589
O7    O     O_R   0.536540 0.008150 0.130100 -0.550865
O8    O     O_R   0.463460 0.508150 0.869900 -0.550876
C3    C     C_R   0.612956 0.344212 0.997454 0.873150
C4    C     C_R   0.387044 0.844211 0.002545 0.873134
O9    O     O_3   0.483140 0.340040 0.044760 -0.277075
O10   O     O_3   0.516860 0.840040 0.955240 -0.277094
V1    V     V_3+5 0.503130 0.064190 0.991700 1.266948
V2    V     V_3+5 0.496870 0.564190 0.008300 1.266911
C5    C     C_2   0.215666 0.736327 0.012316 -0.163159
C6    C     C_2   0.784338 0.236327 0.987701 -0.163233
C7    C     C_2   0.177948 0.887376 0.986577 0.238276
C8    C     C_2   0.822058 0.387375 0.013445 0.238326
H1    H     H_    0.196839 0.615239 0.038399 0.111238
H2    H     H_    0.803161 0.115237 0.961612 0.111277
C9    C     C_2   0.279189 0.714439 0.996251 0.340514
C10   C     C_2   0.720813 0.214446 0.003766 0.340528
C11   C     C_2   0.321428 0.856899 0.010186 -0.209096
C12   C     C_2   0.678573 0.356897 0.989813 -0.209282
H3    H     H_    0.308732 0.990055 0.033380 0.156029
H4    H     H_    0.691270 0.490042 0.966611 0.155965
C13   C     C_R   0.926415 0.883079 0.721942 -0.186711
C14   C     C_R   0.073588 0.383102 0.278056 -0.186709
C15   C     C_R   0.571712 0.859039 0.277262 -0.153486
C16   C     C_R   0.428287 0.359018 0.722737 -0.153498
C17   C     C_R   0.930755 0.801981 0.564554 0.338233
C18   C     C_R   0.069249 0.302050 0.435446 0.338231
C19   C     C_R   0.958636 0.798822 0.663365 0.287329
C20   C     C_R   0.041365 0.298875 0.336635 0.287337
C21   C     C_R   0.863097 0.939289 0.683759 -0.159077
C22   C     C_R   0.136910 0.439296 0.316233 -0.159093
C23   C     C_R   0.831127 0.918942 0.586829 0.017175
C24   C     C_R   0.168878 0.418981 0.413164 0.017176
C25   C     C_R   0.867930 0.870518 0.526554 -0.045235
C26   C     C_R   0.132072 0.370609 0.473440 -0.045214
C27   C     C_R   0.763638 0.939585 0.547720 0.053424
C28   C     C_R   0.236368 0.439598 0.452272 0.053421
C29   C     C_R   0.735603 0.925337 0.448216 0.046210
C30   C     C_R   0.264401 0.425390 0.551779 0.046217
C31   C     C_R   0.776226 0.922007 0.390912 -0.123110
C32   C     C_R   0.223776 0.422133 0.609081 -0.123130
C33   C     C_R   0.840960 0.892043 0.429269 0.008659
C34   C     C_R   0.159039 0.392201 0.570721 0.008629
C35   C     C_R   0.722926 0.962236 0.604635 -0.071013
C36   C     C_R   0.277083 0.462175 0.395356 -0.071008
C37   C     C_R   0.657116 0.962661 0.565714 -0.032965
C38   C     C_R   0.342893 0.462554 0.434277 -0.032945
C39   C     C_R   0.629296 0.933857 0.469374 0.002082
C40   C     C_R   0.370709 0.433780 0.530619 0.002085
C41   C     C_R   0.668086 0.913431 0.409338 0.049884
C42   C     C_R   0.331917 0.413440 0.590658 0.049877
C43   C     C_R   0.562846 0.921205 0.433135 -0.087714
C44   C     C_R   0.437158 0.421069 0.566858 -0.087701
C45   C     C_R   0.533297 0.884012 0.337425 0.315058
C46   C     C_R   0.466703 0.383900 0.662570 0.315054
C47   C     C_R   0.637978 0.873046 0.313325 -0.156757
C48   C     C_R   0.362022 0.373090 0.686675 -0.156788
H5    H     H_    0.869548 0.884248 0.381476 0.167767
H6    H     H_    0.130444 0.384470 0.618507 0.167764
H7    H     H_    0.664857 0.849464 0.264446 0.107125
H8    H     H_    0.335140 0.349579 0.735556 0.107159
H9    H     H_    0.627680 0.978554 0.612168 0.128798
H10   H     H_    0.372330 0.478384 0.387822 0.128776
H11   H     H_    0.839464 0.994336 0.731986 0.080941
H12   H     H_    0.160545 0.494312 0.268003 0.080942
H13   H     H_    0.758985 0.939259 0.315646 0.103866
H14   H     H_    0.241016 0.439408 0.684347 0.103875
H15   H     H_    0.740387 0.974150 0.680173 0.088586
H16   H     H_    0.259622 0.474056 0.319817 0.088600
H17   H     H_    0.533825 0.937581 0.480131 0.127335
H18   H     H_    0.466180 0.437377 0.519859 0.127338
O11   O     O_R   0.036450 0.233070 0.130130 -0.539325
O12   O     O_R   0.963550 0.733070 0.869870 -0.539316
O13   O     O_R   0.912470 0.560570 0.006790 -0.538711
O14   O     O_R   0.087530 0.060570 0.993210 -0.538798
C49   C     C_R   0.887298 0.392197 0.003585 0.812930
C50   C     C_R   0.112704 0.892197 0.996423 0.812787
O15   O     O_R   0.032920 0.562940 0.138050 -0.556601
O16   O     O_R   0.967080 0.062940 0.861950 -0.556623
O17   O     O_R   0.084790 0.730500 0.002090 -0.570333
O18   O     O_R   0.915210 0.230500 0.997910 -0.570355
C51   C     C_R   0.045311 0.393951 0.175049 0.890572
C52   C     C_R   0.954690 0.893945 0.824950 0.890539
O19   O     O_3   0.016820 0.396170 0.955260 -0.272823
O20   O     O_3   0.983180 0.896170 0.044740 -0.272778
V3    V     V_3+5 0.996880 0.672090 0.008300 1.221485
V4    V     V_3+5 0.003120 0.172090 0.991700 1.221416
N1    N     N_R   0.016968 0.698844 0.703573 0.112489
O21   O     O_R   0.061628 0.767358 0.773575 -0.424162
O22   O     O_R   0.023224 0.530804 0.675582 -0.298953
N2    N     N_R   0.983029 0.198914 0.296429 0.112511
O23   O     O_R   0.938367 0.267450 0.226439 -0.424101
O24   O     O_R   0.976769 0.030868 0.324406 -0.298913
O25   O     O_3   0.199096 0.040196 0.947919 -0.625691
C53   C     C_3   0.176863 0.025606 0.848860 0.283812
H19   H     H_    0.125740 0.064842 0.823289 0.124606
H20   H     H_    0.183574 0.883115 0.823904 0.080301
C54   C     C_3   0.213931 0.157683 0.805544 -0.253723
H21   H     H_    0.265842 0.132838 0.835643 0.143986
H22   H     H_    0.200352 0.133746 0.728430 0.069521
H23   H     H_    0.202724 0.303287 0.819083 0.178760
O26   O     O_3   0.800919 0.540205 0.052112 -0.625632
C55   C     C_3   0.823030 0.525424 0.151169 0.283803
H24   H     H_    0.874140 0.564731 0.176896 0.124761
H25   H     H_    0.816317 0.382863 0.176028 0.080204
C56   C     C_3   0.785853 0.657293 0.194409 -0.253892
H26   H     H_    0.733959 0.632594 0.164043 0.144177
H27   H     H_    0.799253 0.633015 0.271476 0.069339
H28   H     H_    0.797131 0.802948 0.181114 0.178638
N3    N     N_R   0.294195 0.535371 0.966207 0.094671
O27   O     O_R   0.281758 0.386425 0.006863 -0.339766
O28   O     O_R   0.309133 0.519833 0.888183 -0.422242
N4    N     N_R   0.705814 0.035402 0.033840 0.094698
O29   O     O_R   0.718272 0.886425 0.993227 -0.339776
O30   O     O_R   0.690866 0.019934 0.111859 -0.422263
N5    N     N_R   0.464863 0.873222 0.303151 0.074864
O31   O     O_R   0.436782 0.768139 0.231806 -0.389355
O32   O     O_R   0.430245 0.955254 0.348659 -0.365937
N6    N     N_R   0.535137 0.373045 0.696841 0.074846
O33   O     O_R   0.563207 0.267985 0.768198 -0.389344
O34   O     O_R   0.569763 0.454993 0.651322 -0.365952
N7    N     N_R   0.964679 0.725196 0.503719 0.129792
O35   O     O_R   0.025447 0.753106 0.520944 -0.261563
O36   O     O_R   0.935969 0.614852 0.435001 -0.341597
N8    N     N_R   0.035336 0.225238 0.496287 0.129811
O37   O     O_R   0.974564 0.253077 0.479064 -0.261506
O38   O     O_R   0.064061 0.114933 0.565010 -0.341632

loop_
_geom_bond_atom_site_label_1
_geom_bond_atom_site_label_2
_geom_bond_distance
_ccdc_geom_bond_type
N6    O33   1.300870 A    
O14   V4    2.018500 S    
C39   C43   1.403667 A    
C15   C45   1.413123 A    
N1    O21   1.298656 A    
C18   C26   1.418446 A    
C50   O17   1.331994 A    
O2    C4    1.331009 A    
C43   H17   1.084188 S    
C2    O7    1.335063 A    
N5    O31   1.300867 A    
C23   C25   1.418654 A    
O5    C3    1.330106 A    
C54   H22   1.109346 S    
C44   H18   1.084189 S    
O25   C53   1.411586 S    
C33   H5    1.081554 S    
C6    C10   1.495143 S    
C48   H8    1.078235 S    
C10   C12   1.359298 D    
N7    O35   1.300739 A    
N3    O28   1.301305 A    
N5    O32   1.301707 A    
C14   C22   1.399798 A    
C53   C54   1.516355 S    
C44   C46   1.403973 A    
C29   C31   1.406644 A    
C55   H24   1.112125 S    
O16   V4    2.015614 S    
C17   C19   1.414565 A    
O15   V3    2.015666 S    
C28   C30   1.427892 A    
N8    O37   1.300740 A    
O1    C3    1.331005 A    
C18   C20   1.414567 A    
C1    C16   1.469922 S    
C28   C36   1.412917 A    
C32   C34   1.385640 A    
C49   O18   1.331996 A    
C37   H9    1.084372 S    
O6    V2    2.018414 S    
C30   C42   1.428387 A    
C14   C51   1.474430 S    
C25   C33   1.399880 A    
C13   C52   1.474450 S    
O13   C49   1.329269 A    
C36   C38   1.391312 A    
C41   C47   1.414510 A    
C22   H12   1.078842 S    
C37   C39   1.396347 A    
C42   C48   1.414514 A    
C54   H23   1.110271 S    
C47   H7    1.078234 S    
C10   N4    1.436222 S    
C43   C45   1.403972 A    
C32   H14   1.077097 S    
C16   C48   1.400398 A    
O11   V4    2.018078 S    
O4    C2    1.344416 A    
O16   C52   1.331265 A    
C46   N6    1.441948 S    
O15   C51   1.331256 A    
C23   C27   1.433323 A    
O5    V1    2.018406 S    
C3    C12   1.484871 S    
O3    C1    1.344418 A    
C5    H1    1.086115 S    
C40   C44   1.403668 A    
C35   C37   1.391315 A    
O4    V2    2.015688 S    
C15   C47   1.400387 A    
O13   V3    2.018498 S    
C38   H10   1.084374 S    
O6    C4    1.330105 A    
C29   C41   1.428377 A    
O1    V2    2.008877 S    
C5    C9    1.495146 S    
C53   H20   1.116812 S    
O2    V1    2.008879 S    
C34   H6    1.081561 S    
C55   C56   1.516320 S    
C31   H13   1.077083 S    
C26   C34   1.399862 A    
N8    O38   1.301159 A    
C31   C33   1.385622 A    
O14   C50   1.329278 A    
C39   C41   1.414331 A    
C8    C49   1.486580 S    
C7    C50   1.486602 S    
O3    V1    2.015737 S    
N4    O29   1.300653 A    
N4    O30   1.301296 A    
C56   H26   1.110961 S    
C17   N7    1.443398 S    
N6    O34   1.301709 A    
C6    H2    1.086114 S    
C35   H15   1.077323 S    
C36   H16   1.077327 S    
C9    N3    1.436235 S    
N1    O22   1.301448 A    
C38   C40   1.396348 A    
C19   N1    1.438721 S    
C11   H3    1.084315 S    
C54   H21   1.111069 S    
C13   C19   1.413319 A    
C12   H4    1.084318 S    
C14   C20   1.413315 A    
C4    C11   1.484863 S    
C45   N5    1.441943 S    
C17   C25   1.418448 A    
C56   H28   1.110161 S    
C21   H11   1.078837 S    
O7    V1    2.010348 S    
C16   C46   1.413128 A    
C1    O8    1.335062 A    
C27   C29   1.427885 A    
O8    V2    2.010320 S    
N3    O27   1.300667 A    
O19   V4    1.758188 S    
C22   C24   1.411482 A    
C7    O25   1.385580 S    
C27   C35   1.412922 A    
O17   V3    2.009077 S    
C24   C26   1.418641 A    
O20   V3    1.758157 S    
C5    C7    1.353864 D    
C40   C42   1.414333 A    
C2    C15   1.469913 S    
C6    C8    1.353882 D    
C9    C11   1.359307 D    
O12   C52   1.323644 A    
C53   H19   1.112186 S    
N2    O24   1.301452 A    
C55   H25   1.116779 S    
O11   C51   1.323638 A    
C18   N8    1.443406 S    
C8    O26   1.385591 S    
C30   C32   1.406654 A    
C24   C28   1.433321 A    
C21   C23   1.411493 A    
N2    O23   1.298663 A    
O9    V2    1.758931 S    
C13   C21   1.399796 A    
O18   V4    2.009078 S    
O10   V1    1.758900 S    
C20   N2    1.438718 S    
N7    O36   1.301156 A    
O12   V3    2.018106 S    
O26   C55   1.411573 S    
C56   H27   1.109243 S    
