data_mof_unit_53211.cif
_audit_creation_date              2012-12-11T16:38:18-0500
_audit_creation_method            fapswitch 2.2
_symmetry_space_group_name_H-M    P1
_symmetry_Int_Tables_number       1
_space_group_crystal_system       monoclinic
_cell_length_a                    22.989877
_cell_length_b                    7.249676
_cell_length_c                    20.926443
_cell_angle_alpha                 90.0
_cell_angle_beta                  93.283263
_cell_angle_gamma                 90.0
_cell_volume                      3482.06776683

loop_
_atom_site_label
_atom_site_type_symbol
_atom_type_description
_atom_site_fract_x
_atom_site_fract_y
_atom_site_fract_z
_atom_type_partial_charge
O1    O     O_R   0.188620 0.380490 0.689890 -0.533733
O2    O     O_R   0.811380 0.619510 0.310110 -0.539242
O3    O     O_R   0.311380 0.880490 0.810110 -0.539242
O4    O     O_R   0.688620 0.119510 0.189890 -0.533732
O5    O     O_R   0.306510 0.709050 0.686440 -0.532949
O6    O     O_R   0.693490 0.290950 0.313560 -0.532015
O7    O     O_R   0.193490 0.209050 0.813560 -0.532015
O8    O     O_R   0.806510 0.790950 0.186440 -0.532949
C1    C     C_R   0.325274 0.541784 0.671704 0.703485
C2    C     C_R   0.674713 0.458214 0.328281 0.715194
C3    C     C_R   0.174713 0.041786 0.828281 0.715195
C4    C     C_R   0.825274 0.958216 0.171704 0.703487
O9    O     O_R   0.188770 0.710120 0.682280 -0.535630
O10   O     O_R   0.811230 0.289880 0.317720 -0.543069
O11   O     O_R   0.311230 0.210120 0.817720 -0.543069
O12   O     O_R   0.688770 0.789880 0.182280 -0.535630
O13   O     O_R   0.192790 0.881680 0.805920 -0.532956
O14   O     O_R   0.807210 0.118320 0.194080 -0.533928
O15   O     O_R   0.307210 0.381680 0.694080 -0.533928
O16   O     O_R   0.692790 0.618320 0.305920 -0.532956
C5    C     C_R   0.169242 0.541524 0.666696 0.702183
C6    C     C_R   0.831097 0.458666 0.333562 0.701038
C7    C     C_R   0.331097 0.041334 0.833562 0.701037
C8    C     C_R   0.669242 0.958476 0.166696 0.702182
O17   O     O_3   0.251460 0.547440 0.790570 -0.377991
O18   O     O_3   0.748540 0.452560 0.209430 -0.372654
O19   O     O_3   0.248540 0.047440 0.709430 -0.372654
O20   O     O_3   0.751460 0.952560 0.290570 -0.377991
V1    V     V_3+5 0.249730 0.821800 0.742470 1.418608
V2    V     V_3+5 0.750270 0.178200 0.257530 1.412041
V3    V     V_3+5 0.250270 0.321800 0.757530 1.412041
V4    V     V_3+5 0.749730 0.678200 0.242470 1.418608
C9    C     C_R   0.456499 0.844766 0.940813 0.481883
C10   C     C_R   0.522270 0.077227 0.085337 0.476677
C11   C     C_R   0.022270 0.422773 0.585337 0.476677
C12   C     C_R   0.956499 0.655233 0.440813 0.481883
C13   C     C_R   0.408105 0.858803 0.896390 -0.245471
C14   C     C_R   0.569920 0.069600 0.130523 -0.230629
C15   C     C_R   0.069920 0.430400 0.630522 -0.230628
C16   C     C_R   0.908105 0.641197 0.396390 -0.245471
H1    H     H_    0.391543 0.734827 0.873043 0.138517
H2    H     H_    0.566932 0.138440 0.176186 0.131368
H3    H     H_    0.066932 0.361560 0.676186 0.131369
H4    H     H_    0.891543 0.765173 0.373043 0.138517
C17   C     C_R   0.380975 0.029442 0.882453 -0.110393
C18   C     C_R   0.620113 0.968860 0.118075 -0.094154
C19   C     C_R   0.120113 0.531140 0.618075 -0.094154
C20   C     C_R   0.880975 0.470558 0.382453 -0.110393
C21   C     C_R   0.402340 0.186667 0.915239 -0.190019
C22   C     C_R   0.623216 0.880853 0.058798 -0.182563
C23   C     C_R   0.123216 0.619146 0.558798 -0.182562
C24   C     C_R   0.902340 0.313333 0.415239 -0.190019
H5    H     H_    0.382652 0.320436 0.906055 0.148825
H6    H     H_    0.661941 0.804590 0.047903 0.119686
H7    H     H_    0.161941 0.695409 0.547903 0.119686
H8    H     H_    0.882652 0.179564 0.406055 0.148825
C25   C     C_R   0.449143 0.173344 0.960902 -0.162954
C26   C     C_R   0.577270 0.896036 0.012185 -0.145276
C27   C     C_R   0.077270 0.603964 0.512185 -0.145276
C28   C     C_R   0.949143 0.326656 0.460903 -0.162954
H9    H     H_    0.464312 0.297392 0.985285 0.205019
H10   H     H_    0.582328 0.833615 0.965920 0.143424
H11   H     H_    0.082328 0.666384 0.465920 0.143424
H12   H     H_    0.964312 0.202608 0.485285 0.205019
C29   C     C_R   0.476510 0.003173 0.974819 -0.001850
C30   C     C_R   0.525919 0.992504 0.024697 0.021170
C31   C     C_R   0.025919 0.507495 0.524697 0.021170
C32   C     C_R   0.976510 0.496827 0.474819 -0.001850
C33   C     C_R   0.033771 0.161278 0.996858 0.500390
C34   C     C_R   0.966047 0.838825 0.002922 0.500894
C35   C     C_R   0.466047 0.661174 0.502922 0.500894
C36   C     C_R   0.533771 0.338722 0.496858 0.500390
C37   C     C_R   0.044967 0.011371 0.956412 -0.173436
C38   C     C_R   0.954866 0.988708 0.043387 -0.174114
C39   C     C_R   0.454866 0.511292 0.543387 -0.174114
C40   C     C_R   0.544967 0.488629 0.456412 -0.173436
C41   C     C_R   0.011402 0.848912 0.960282 0.056295
C42   C     C_R   0.988414 0.151193 0.039495 0.055929
C43   C     C_R   0.488414 0.348807 0.539494 0.055929
C44   C     C_R   0.511402 0.651087 0.460282 0.056294
C45   C     C_1   0.091110 0.024104 0.911363 0.047322
C46   C     C_1   0.908773 0.975920 0.088495 0.044808
C47   C     C_1   0.408773 0.524079 0.588495 0.044808
C48   C     C_1   0.591110 0.475896 0.411363 0.047322
C49   C     C_1   0.870554 0.967058 0.126205 -0.186483
C50   C     C_1   0.129379 0.032951 0.873716 -0.184316
C51   C     C_1   0.629379 0.467049 0.373716 -0.184316
C52   C     C_1   0.370554 0.532941 0.626205 -0.186483
O21   O     O_3   0.481152 0.674422 0.955731 -0.553674
C53   C     C_3   0.502515 0.593299 0.900297 -0.319090
H13   H     H_    0.526157 0.694003 0.870988 0.125845
H14   H     H_    0.466778 0.526804 0.870736 0.144980
H15   H     H_    0.534039 0.483669 0.915397 0.170497
O22   O     O_3   0.472785 0.172100 0.100420 -0.556014
C54   C     C_3   0.436072 0.049515 0.131448 -0.245780
H16   H     H_    0.457113 0.999018 0.177402 0.132825
H17   H     H_    0.422802 0.931112 0.099987 0.147390
H18   H     H_    0.395884 0.124458 0.142797 0.162886
O23   O     O_3   0.972785 0.327900 0.600420 -0.556014
C55   C     C_3   0.936071 0.450486 0.631447 -0.245781
H19   H     H_    0.922801 0.568885 0.599985 0.147390
H20   H     H_    0.957113 0.500988 0.677401 0.132824
H21   H     H_    0.895884 0.375541 0.642798 0.162886
O24   O     O_3   0.981152 0.825577 0.455732 -0.553674
C56   C     C_3   0.002515 0.906701 0.400298 -0.319090
H22   H     H_    0.966778 0.973196 0.370736 0.144980
H23   H     H_    0.026157 0.805997 0.370988 0.125845
H24   H     H_    0.034039 0.016331 0.415397 0.170497
N1    N     N_3   0.977223 0.308036 0.078687 -0.575207
H25   H     H_    0.982748 0.268151 0.126662 0.212650
H26   H     H_    0.933779 0.347404 0.069692 0.267672
N2    N     N_3   0.022575 0.692100 0.921066 -0.574751
H27   H     H_    0.066014 0.652677 0.930051 0.267451
H28   H     H_    0.017049 0.732039 0.873096 0.214824
N3    N     N_3   0.522575 0.807899 0.421066 -0.574752
H29   H     H_    0.517049 0.767961 0.373096 0.214824
H30   H     H_    0.566014 0.847322 0.430051 0.267451
N4    N     N_3   0.477223 0.191964 0.578687 -0.575208
H31   H     H_    0.433779 0.152596 0.569692 0.267673
H32   H     H_    0.482748 0.231849 0.626662 0.212650
O25   O     O_3   0.064996 0.323196 0.992154 -0.517954
C57   C     C_3   0.113206 0.317039 0.036872 -0.198563
H33   H     H_    0.142825 0.200406 0.026829 0.111736
H34   H     H_    0.099160 0.307998 0.086795 0.140111
H35   H     H_    0.138391 0.446640 0.032878 0.150837
O26   O     O_3   0.934809 0.676927 0.007610 -0.517723
C58   C     C_3   0.886588 0.683189 0.962909 -0.200250
H36   H     H_    0.900620 0.692311 0.912982 0.141620
H37   H     H_    0.856979 0.799818 0.972990 0.109635
H38   H     H_    0.861396 0.553593 0.966883 0.149116
O27   O     O_3   0.434809 0.823073 0.507610 -0.517724
C59   C     C_3   0.386588 0.816811 0.462909 -0.200248
H39   H     H_    0.356979 0.700182 0.472990 0.109634
H40   H     H_    0.400619 0.807688 0.412982 0.141620
H41   H     H_    0.361396 0.946406 0.466883 0.149116
O28   O     O_3   0.564996 0.176804 0.492154 -0.517955
C60   C     C_3   0.613206 0.182961 0.536872 -0.198562
H42   H     H_    0.599160 0.192003 0.586795 0.140111
H43   H     H_    0.642825 0.299595 0.526829 0.111736
H44   H     H_    0.638391 0.053360 0.532878 0.150837

loop_
_geom_bond_atom_site_label_1
_geom_bond_atom_site_label_2
_ccdc_geom_bond_type
C26   H10   S    
C6    C20   S    
O1    C5    A    
O26   C58   S    
C7    C17   S    
O19   V1    S    
O13   V1    S    
O3    C7    A    
C54   H16   S    
C48   C51   T    
C36   C40   A    
O15   V3    S    
C10   C30   A    
N2    H28   S    
C54   H18   S    
C9    C29   A    
C12   C32   A    
O7    C3    A    
C56   H23   S    
C22   H6    S    
C4    C49   S    
O9    V1    S    
O10   V2    S    
C14   H2    S    
C36   C43   A    
N1    H26   S    
C1    C52   S    
O4    C8    A    
C36   O28   S    
C3    C50   S    
N3    H29   S    
C43   N4    S    
O1    V3    S    
C21   C25   A    
O2    V4    S    
O3    V1    S    
C34   C38   A    
C35   C44   A    
C24   C28   A    
C27   C31   A    
N4    H31   S    
C1    O15   A    
C2    O16   A    
C59   H39   S    
N3    H30   S    
O2    C6    A    
C33   C37   A    
O14   V2    S    
C11   C31   A    
C23   H7    S    
C45   C50   T    
C34   O26   S    
O11   C7    A    
C47   C52   T    
C60   H42   S    
O12   C8    A    
C34   C41   A    
C40   C48   S    
C33   C42   A    
C38   C46   S    
C11   O23   S    
C37   C45   S    
O24   C56   S    
C56   H24   S    
C26   C30   A    
O5    V1    S    
C60   H44   S    
C2    C51   S    
O7    V3    S    
C31   C32   S    
C22   C26   A    
C10   O22   S    
C12   C16   A    
O18   V4    S    
C19   C23   A    
C55   H21   S    
C9    C13   A    
O8    V4    S    
C41   N2    S    
C11   C15   A    
C58   H37   S    
O5    C1    A    
C9    O21   S    
C60   H43   S    
C53   H14   S    
O23   C55   S    
C44   N3    S    
C33   O25   S    
O8    C4    A    
C55   H20   S    
C17   C21   A    
O9    C5    A    
O11   V3    S    
O25   C57   S    
O6    V2    S    
C23   C27   A    
C13   C17   A    
C58   H36   S    
C53   H15   S    
C15   C19   A    
O16   V4    S    
C16   C20   A    
C3    O13   A    
C10   C14   A    
O17   V3    S    
C40   C44   A    
C25   C29   A    
O28   C60   S    
O27   C59   S    
O6    C2    A    
C15   H3    S    
C54   H17   S    
C25   H9    S    
O12   V4    S    
C46   C49   T    
C56   H22   S    
C18   C22   A    
C27   H11   S    
C28   H12   S    
C12   O24   S    
C8    C18   S    
O10   C6    A    
C57   H35   S    
O20   V2    S    
C57   H33   S    
C58   H38   S    
N1    H25   S    
C35   C39   A    
C39   C47   S    
C53   H13   S    
C39   C43   A    
C59   H41   S    
C21   H5    S    
C55   H19   S    
C42   N1    S    
N2    H27   S    
C13   H1    S    
O22   C54   S    
N4    H32   S    
C14   C18   A    
C35   O27   S    
C16   H4    S    
C28   C32   A    
C59   H40   S    
C29   C30   S    
C38   C42   A    
C4    O14   A    
C37   C41   A    
O21   C53   S    
C20   C24   A    
C57   H34   S    
O4    V2    S    
C24   H8    S    
C5    C19   S    
