data_mof_unit_5224.cif
_audit_creation_date              2012-12-10T17:13:34-0500
_audit_creation_method            fapswitch 2.2
_symmetry_space_group_name_H-M    P1
_symmetry_Int_Tables_number       1
_space_group_crystal_system       triclinic
_cell_length_a                    10.785481
_cell_length_b                    13.140914
_cell_length_c                    11.686181
_cell_angle_alpha                 98.39953
_cell_angle_beta                  94.155657
_cell_angle_gamma                 91.651696
_cell_volume                      1632.91684805

loop_
_atom_site_label
_atom_site_type_symbol
_atom_type_description
_atom_site_fract_x
_atom_site_fract_y
_atom_site_fract_z
_atom_type_partial_charge
C1    C     C_R   0.498723 0.299547 0.480613 0.863964
C2    C     C_3   0.877212 0.494985 0.497735 0.059648
C3    C     C_3   0.934438 0.607754 0.520301 -0.233099
C4    C     C_3   0.914225 0.437681 0.378108 -0.185323
C5    C     C_R   0.483770 0.811823 0.528983 -0.139332
C6    C     C_R   0.497853 0.186965 0.472684 -0.081354
C7    C     C_R   0.527088 0.024292 0.354976 -0.158833
C8    C     C_R   0.517532 0.129697 0.365547 -0.165763
C9    C     C_R   0.480036 0.135485 0.569437 -0.034113
C10   C     C_R   0.466963 0.026933 0.552643 0.021394
C11   C     C_R   0.504779 0.971725 0.448502 0.100086
C12   C     C_R   0.260092 0.494156 0.499248 0.871218
C13   C     C_R   0.521473 0.865556 0.440261 -0.085132
C14   C     C_R   0.424583 0.864435 0.623107 -0.089182
C15   C     C_R   0.417493 0.971759 0.635995 -0.104755
C16   C     C_R   0.366044 0.418771 0.025057 -0.280265
C17   C     C_R   0.380086 0.424694 0.146333 0.101695
C18   C     C_R   0.562802 0.530343 0.155736 0.044059
C19   C     C_R   0.552098 0.528002 0.033437 0.006744
C20   C     C_R   0.451818 0.471181 0.967557 0.045552
C21   C     C_R   0.439708 0.467897 0.845591 0.071770
C22   C     C_R   0.617160 0.580073 0.853975 0.117815
C23   C     C_R   0.498037 0.700098 0.519889 0.809229
C24   C     C_R   0.636239 0.582545 0.975509 -0.185025
C25   C     C_R   0.739696 0.497485 0.499634 0.761996
C26   C     C_3   0.074791 0.433577 0.595525 -0.213039
C27   C     C_3   0.931780 0.438394 0.596945 -0.441777
C28   C     C_3   0.079738 0.606036 0.525580 -0.233373
C29   C     C_3   0.058349 0.441877 0.374199 -0.170671
C30   C     C_3   0.121887 0.491604 0.496871 0.006382
Cu1   Cu    Cu3+1 0.509350 0.507730 0.615930 0.992482
Cu2   Cu    Cu3+1 0.490650 0.492270 0.384070 0.997817
H1    H     H_    0.115131 0.475704 0.680502 0.172346
H2    H     H_    0.877066 0.480815 0.308953 0.155407
H3    H     H_    0.549734 0.984253 0.271882 0.159545
H4    H     H_    0.532822 0.166929 0.290647 0.168306
H5    H     H_    0.362329 0.425174 0.795006 0.203194
H6    H     H_    0.288285 0.373992 0.976786 0.171352
H7    H     H_    0.313228 0.384473 0.189643 0.147431
H8    H     H_    0.639050 0.572639 0.208550 0.162925
H9    H     H_    0.885953 0.360839 0.591719 0.205862
H10   H     H_    0.909864 0.480595 0.682423 0.177390
H11   H     H_    0.113542 0.632698 0.617840 0.111115
H12   H     H_    0.910885 0.642326 0.608226 0.130996
H13   H     H_    0.078339 0.495868 0.312571 0.188039
N1    N     N_R   0.523430 0.519360 0.790130 -0.218361
N2    N     N_R   0.476570 0.480640 0.209880 -0.193568
O1    O     O_R   0.506640 0.354460 0.582000 -0.559735
O2    O     O_R   0.490840 0.341410 0.386200 -0.585397
O3    O     O_R   0.325590 0.506510 0.597900 -0.601780
O4    O     O_R   0.309790 0.493450 0.402100 -0.543743
O5    O     O_R   0.509160 0.658590 0.613800 -0.579571
O6    O     O_R   0.493360 0.645540 0.418000 -0.559554
O7    O     O_R   0.690210 0.506550 0.597900 -0.599240
O8    O     O_R   0.674410 0.493490 0.402100 -0.614646
C31   C     C_2   0.139557 0.686202 0.462631 0.426733
H14   H     H_    0.144348 0.766222 0.502852 0.066079
O9    O     O_2   0.179685 0.664196 0.367553 -0.506486
C32   C     C_2   0.875644 0.676986 0.439851 0.373648
H15   H     H_    0.812059 0.734485 0.473499 0.067244
O10   O     O_2   0.896284 0.668260 0.337662 -0.503625
C33   C     C_1   0.585003 0.814289 0.343965 0.264716
N3    N     N_1   0.635994 0.774713 0.266849 -0.256317
C34   C     C_1   0.366019 0.808522 0.704952 0.258598
N4    N     N_1   0.319302 0.764160 0.770025 -0.273963
C35   C     C_1   0.346268 0.021920 0.727712 0.304899
N5    N     N_1   0.288952 0.060879 0.800776 -0.212676
C36   C     C_2   0.500671 0.190218 0.689710 0.396474
H16   H     H_    0.585856 0.179563 0.741129 0.049733
O11   O     O_2   0.420570 0.242831 0.733612 -0.495401
C37   C     C_2   0.114176 0.323898 0.591318 0.452126
H17   H     H_    0.075711 0.264055 0.523610 0.177493
O12   O     O_2   0.185625 0.300215 0.667842 -0.519649
C38   C     C_1   0.692760 0.648066 0.798759 0.328081
N6    N     N_1   0.753140 0.704118 0.756309 -0.328567
C39   C     C_1   0.741839 0.641424 0.038953 0.236254
N7    N     N_1   0.826562 0.688377 0.088654 -0.172024
C40   C     C_2   0.108956 0.341605 0.316189 0.347294
H18   H     H_    0.068769 0.308060 0.230683 0.085141
O13   O     O_2   0.195285 0.299049 0.360218 -0.561886
C41   C     C_2   0.850884 0.331154 0.344512 0.300238
H19   H     H_    0.780114 0.318353 0.272411 0.090937
O14   O     O_2   0.876366 0.259810 0.396919 -0.564221

loop_
_geom_bond_atom_site_label_1
_geom_bond_atom_site_label_2
_ccdc_geom_bond_type
C19   C20   A    
Cu1   O5    S    
C18   N2    A    
C6    C9    A    
C41   H19   S    
C28   C31   S    
C7    C8    A    
C7    C11   A    
C26   C27   S    
C33   N3    T    
C3    C28   S    
C10   C15   A    
C8    H4    S    
C40   O13   D    
C31   H14   S    
C18   C19   A    
C17   H7    S    
C18   H8    S    
C36   H16   S    
C13   C33   S    
C16   C17   A    
Cu1   N1    S    
C2    C27   S    
C9    C10   A    
Cu2   O8    S    
C5    C13   A    
C4    C29   S    
C35   N5    T    
C32   H15   S    
C26   C37   S    
C41   O14   D    
C23   O6    A    
C4    H2    S    
C3    H12   S    
C32   O10   D    
C38   N6    T    
C29   C40   S    
C1    C6    S    
C17   N2    A    
C39   N7    T    
C37   O12   D    
C40   H18   S    
C24   C39   S    
C6    C8    A    
C15   C35   S    
C29   H13   S    
C2    C4    S    
Cu2   O4    S    
C29   C30   S    
C27   H9    S    
C26   H1    S    
Cu1   Cu2   S    
C5    C23   S    
C16   C20   A    
C14   C34   S    
C25   O7    A    
C5    C14   A    
C22   N1    A    
C26   C30   S    
Cu1   O1    S    
Cu2   N2    S    
C22   C24   A    
C22   C38   S    
Cu1   O3    S    
Cu2   O6    S    
C12   O4    A    
C21   N1    A    
C12   C30   S    
C7    H3    S    
C25   O8    A    
C12   O3    A    
C1    O1    A    
C28   H11   S    
C34   N4    T    
C28   C30   S    
C2    C3    S    
C9    C36   S    
C37   H17   S    
C11   C13   A    
C27   H10   S    
C23   O5    A    
C4    C41   S    
C31   O9    D    
C19   C24   A    
C2    C25   S    
Cu1   O7    S    
Cu2   O2    S    
C10   C11   A    
C21   H5    S    
C20   C21   A    
C36   O11   D    
C14   C15   A    
C1    O2    A    
C16   H6    S    
C3    C32   S    
