data_mof_unit_23060.cif
_audit_creation_date              2012-10-26T19:02:35-0400
_audit_creation_method            fapswitch 2.2
_symmetry_space_group_name_H-M    P1
_symmetry_Int_Tables_number       1
_space_group_crystal_system       triclinic
_cell_length_a                    17.250663
_cell_length_b                    8.698757
_cell_length_c                    7.572047
_cell_angle_alpha                 103.167913
_cell_angle_beta                  91.513664
_cell_angle_gamma                 95.370756
_cell_volume                      1100.18675488

loop_
_atom_site_label
_atom_site_type_symbol
_atom_type_description
_atom_site_fract_x
_atom_site_fract_y
_atom_site_fract_z
_atom_type_partial_charge
C1    C     C_R   0.497546 0.199961 0.453462 0.547676
C2    C     C_R   0.776518 0.466649 0.613194 -0.085772
C3    C     C_R   0.148201 0.575874 0.395655 0.416152
C4    C     C_R   0.856195 0.457807 0.603671 0.415276
C5    C     C_R   0.109880 0.568111 0.554826 0.079189
C6    C     C_R   0.892967 0.471099 0.444023 0.079562
C7    C     C_R   0.151887 0.550379 0.708335 -0.119670
C8    C     C_R   0.848935 0.484795 0.291481 -0.121212
C9    C     C_R   0.231052 0.531264 0.699774 -0.154789
C10   C     C_R   0.768863 0.492743 0.300754 -0.154922
C11   C     C_2   0.025547 0.572408 0.560668 0.452084
C12   C     C_R   0.503289 0.800029 0.546270 0.533283
C13   C     C_2   0.977413 0.471513 0.435020 0.450914
C14   C     C_3   0.355616 0.303745 0.987081 -0.222631
C15   C     C_3   0.610622 0.780778 0.993365 -0.246094
C16   C     C_2   0.495789 0.031331 0.428099 -0.150778
C17   C     C_2   0.506612 0.968589 0.570808 -0.146793
C18   C     C_R   0.351596 0.507464 0.524331 0.551775
C19   C     C_R   0.648570 0.495972 0.475930 0.537461
C20   C     C_R   0.268618 0.529407 0.537431 -0.046963
C21   C     C_R   0.732406 0.485989 0.462745 -0.047108
C22   C     C_R   0.226867 0.555369 0.386877 -0.086034
Cu1   Cu    Cu3+1 0.508700 0.517250 0.683000 1.001792
Cu2   Cu    Cu3+1 0.491300 0.482750 0.317000 0.961111
F1    F     F_    0.005935 0.367343 0.295419 -0.580656
F2    F     F_    0.996988 0.676124 0.700627 -0.581120
F3    F     F_    0.897124 0.434097 0.749179 -0.577550
F4    F     F_    0.109644 0.603979 0.249328 -0.580175
H1    H     H_    0.255002 0.561283 0.262230 0.141845
H2    H     H_    0.319719 0.224338 0.872470 0.127303
H3    H     H_    0.329515 0.417614 0.024643 0.152271
H4    H     H_    0.355174 0.245571 0.103278 0.159667
H5    H     H_    0.584081 0.667815 0.188808 0.298338
H6    H     H_    0.659816 0.848575 0.084730 0.110297
H7    H     H_    0.562605 0.858379 0.002111 0.144278
H8    H     H_    0.633285 0.753570 0.856291 0.200037
H9    H     H_    0.749431 0.457178 0.738267 0.158569
H10   H     H_    0.735852 0.506153 0.182454 0.166996
H11   H     H_    0.262383 0.516344 0.818937 0.145159
H12   H     H_    0.122944 0.546799 0.832833 0.228704
H13   H     H_    0.876830 0.493008 0.166934 0.225707
H14   H     H_    0.484836 0.958389 0.291091 0.128096
H15   H     H_    0.518490 0.041175 0.707325 0.114144
H16   H     H_    0.461674 0.227981 0.914783 0.238953
N1    N     N_2   0.478180 0.456750 0.041980 -0.029160
N2    N     N_2   0.521820 0.543250 0.958020 0.008044
N3    N     N_2   0.434044 0.329845 0.931376 -0.353771
N4    N     N_2   0.585543 0.638521 0.052874 -0.404036
O1    O     O_R   0.505650 0.286040 0.618880 -0.486800
O2    O     O_R   0.494350 0.713960 0.381120 -0.531911
O3    O     O_R   0.490960 0.256910 0.309800 -0.512223
O4    O     O_R   0.509040 0.743090 0.690200 -0.520059
O5    O     O_R   0.394600 0.516230 0.672450 -0.475529
O6    O     O_R   0.605400 0.483770 0.327550 -0.520634
O7    O     O_R   0.379910 0.487100 0.363380 -0.525968
O8    O     O_R   0.620090 0.512900 0.636620 -0.512329

loop_
_geom_bond_atom_site_label_1
_geom_bond_atom_site_label_2
_ccdc_geom_bond_type
C19   O8    A    
C12   C17   S    
C2    C4    A    
C7    H12   S    
C17   H15   S    
Cu1   O5    S    
C14   N3    S    
C22   H1    S    
C11   C13   D    
C9    C20   A    
C12   O2    A    
C18   O5    A    
H16   N3    S    
C14   H3    S    
C10   H10   S    
C7    C9    A    
C3    C5    A    
Cu2   O3    S    
Cu1   O8    S    
C1    C16   S    
N1    N2    D    
Cu2   O7    S    
C1    O3    A    
C2    H9    S    
C13   F1    S    
Cu1   O4    S    
C15   N4    S    
C2    C21   A    
Cu1   N2    S    
Cu2   N1    S    
C18   O7    A    
C19   O6    A    
C15   H7    S    
C3    F4    S    
C12   O4    A    
C20   C22   A    
C5    C11   S    
C18   C20   S    
N1    N3    S    
C10   C21   A    
Cu2   O2    S    
N2    N4    S    
Cu1   O1    S    
Cu1   Cu2   S    
Cu2   O6    S    
C16   H14   S    
C15   H8    S    
C9    H11   S    
C4    F3    S    
C8    H13   S    
C4    C6    A    
C5    C7    A    
H5    N4    S    
C3    C22   A    
C6    C8    A    
C15   H6    S    
C11   F2    S    
C19   C21   S    
C14   H2    S    
C1    O1    A    
C8    C10   A    
C14   H4    S    
C16   C17   D    
C6    C13   S    
