data_mof_unit_39665.cif
_audit_creation_date              2012-12-10T16:54:06-0500
_audit_creation_method            fapswitch 2.2
_symmetry_space_group_name_H-M    P1
_symmetry_Int_Tables_number       1
_space_group_crystal_system       triclinic
_cell_length_a                    9.672337
_cell_length_b                    10.946608
_cell_length_c                    13.500345
_cell_angle_alpha                 91.569817
_cell_angle_beta                  73.018855
_cell_angle_gamma                 90.412674
_cell_volume                      1366.57244057

loop_
_atom_site_label
_atom_site_type_symbol
_atom_type_description
_atom_site_fract_x
_atom_site_fract_y
_atom_site_fract_z
_atom_type_partial_charge
C1    C     C_R   0.498164 0.734959 0.504977 0.779667
C2    C     C_R   0.441806 0.539793 0.977656 0.071542
C3    C     C_R   0.487673 0.553299 0.868555 0.043607
C4    C     C_R   0.548329 0.518394 0.029258 0.068590
C5    C     C_R   0.693729 0.499633 0.969972 0.098421
C6    C     C_R   0.737596 0.529567 0.866184 -0.242913
C7    C     C_R   0.637172 0.575433 0.821118 0.148300
C8    C     C_R   0.516117 0.515977 0.137182 -0.276587
C9    C     C_R   0.762053 0.450910 0.123938 0.153361
C10   C     C_R   0.383112 0.542355 0.812488 -0.129339
C11   C     C_2   0.392902 0.065741 0.495793 -0.183845
C12   C     C_R   0.424316 0.513972 0.699386 0.787935
C13   C     C_2   0.512601 0.134245 0.467802 0.228396
C14   C     C_2   0.403007 0.932664 0.484152 -0.105529
C15   C     C_2   0.489174 0.866768 0.525128 0.086178
C16   C     C_2   0.105577 0.554303 0.432745 -0.064130
C17   C     C_2   0.948700 0.559658 0.436013 -0.089689
C18   C     C_R   0.503126 0.265558 0.491482 0.742384
C19   C     C_R   0.577276 0.494591 0.299938 0.802027
C20   C     C_R   0.796763 0.461341 0.016440 -0.225556
C21   C     C_R   0.621510 0.486906 0.185643 -0.072343
C22   C     C_R   0.235847 0.550202 0.867224 -0.183463
C23   C     C_R   0.191827 0.557632 0.974728 -0.163853
C24   C     C_R   0.291997 0.546050 0.029767 -0.168019
Cu1   Cu    Cu3+1 0.361370 0.499980 0.499980 0.936337
Cu2   Cu    Cu3+1 0.638630 0.500020 0.500020 0.925374
H1    H     H_    0.341285 0.888411 0.437757 0.126670
H2    H     H_    0.182816 0.599319 0.369440 0.147873
H3    H     H_    0.079699 0.464525 0.564409 0.188035
H4    H     H_    0.920987 0.614511 0.378859 0.155107
H5    H     H_    0.872256 0.444573 0.552349 0.193885
H6    H     H_    0.851981 0.533390 0.824706 0.136504
H7    H     H_    0.905096 0.439824 0.968099 0.127715
H8    H     H_    0.410098 0.541597 0.185349 0.153249
H9    H     H_    0.153932 0.548886 0.827012 0.147293
H10   H     H_    0.248253 0.540820 0.112635 0.117200
H11   H     H_    0.078342 0.566862 0.015994 0.135038
H12   H     H_    0.286802 0.106466 0.529042 0.126747
N1    N     N_2   0.152660 0.501340 0.501130 -0.279779
N2    N     N_2   0.846520 0.501370 0.501160 -0.295286
O1    O     O_R   0.382960 0.678040 0.499980 -0.583225
O2    O     O_R   0.617100 0.678080 0.500020 -0.582020
O3    O     O_R   0.325800 0.499940 0.650950 -0.574884
O4    O     O_R   0.559930 0.499980 0.650990 -0.583297
O5    O     O_R   0.382900 0.321920 0.499980 -0.577924
O6    O     O_R   0.617040 0.321960 0.500020 -0.578240
O7    O     O_R   0.440070 0.500020 0.349010 -0.583117
O8    O     O_R   0.674200 0.500060 0.349050 -0.574512
C25   C     C_3   0.876318 0.398683 0.167600 -0.417901
C26   C     C_3   0.832641 0.272850 0.212275 -0.752479
H13   H     H_    0.726118 0.276308 0.271941 0.246979
H14   H     H_    0.826118 0.207068 0.149667 0.247655
H15   H     H_    0.914704 0.239631 0.248030 0.233237
H16   H     H_    0.980779 0.386587 0.106083 0.193348
H17   H     H_    0.900262 0.462214 0.225709 0.217116
O9    O     O_3   0.643567 0.079394 0.415906 -0.742938
H18   H     H_    0.721934 0.140509 0.406111 0.327546
C27   C     C_3   0.554982 0.918370 0.607075 -0.375142
C28   C     C_3   0.442610 0.922112 0.713526 -0.877000
H19   H     H_    0.355377 0.987951 0.714474 0.261092
H20   H     H_    0.393992 0.830407 0.733151 0.245404
H21   H     H_    0.494545 0.952004 0.773364 0.254694
H22   H     H_    0.648092 0.861568 0.608914 0.202865
H23   H     H_    0.601113 0.010652 0.591176 0.244549
C29   C     C_3   0.689908 0.672315 0.741069 -0.341300
C30   C     C_3   0.748375 0.783929 0.786757 -0.868749
H24   H     H_    0.663209 0.822951 0.854120 0.261385
H25   H     H_    0.843770 0.759078 0.811937 0.254298
H26   H     H_    0.783015 0.854954 0.727517 0.242066
H27   H     H_    0.776518 0.634685 0.674225 0.220167
H28   H     H_    0.599849 0.703906 0.713639 0.213221

loop_
_geom_bond_atom_site_label_1
_geom_bond_atom_site_label_2
_ccdc_geom_bond_type
C16   H2    S    
C11   H12   S    
C30   H25   S    
C23   C24   A    
C18   O5    A    
C6    C7    A    
C1    C15   S    
C14   H1    S    
C7    C29   S    
Cu1   O7    S    
C9    C20   A    
C6    H6    S    
C26   H14   S    
C14   C15   D    
Cu2   O8    S    
C4    C8    A    
C13   O9    S    
C9    C21   A    
H3    N1    S    
C22   H9    S    
C30   H24   S    
Cu1   Cu2   S    
Cu2   O4    S    
C28   H19   S    
C12   O4    A    
C3    C10   A    
C8    H8    S    
C10   C22   A    
C27   H23   S    
C17   H4    S    
C11   C13   D    
Cu2   N2    S    
C24   H10   S    
C10   C12   S    
C13   C18   S    
C20   H7    S    
C18   O6    A    
C1    O1    A    
Cu1   O3    S    
C19   C21   S    
C2    C3    A    
C12   O3    A    
C3    C7    A    
C29   C30   S    
C2    C24   A    
C5    C6    A    
C15   C27   S    
C19   O7    A    
C28   H20   S    
C30   H26   S    
Cu2   O6    S    
C16   N1    D    
C25   H16   S    
C26   H15   S    
C2    C4    A    
Cu1   O5    S    
C1    O2    A    
C27   H22   S    
C9    C25   S    
O9    H18   S    
Cu2   O2    S    
C25   C26   S    
Cu1   O1    S    
C11   C14   S    
C5    C20   A    
C22   C23   A    
C16   C17   S    
C28   H21   S    
C19   O8    A    
H5    N2    S    
C26   H13   S    
C27   C28   S    
C23   H11   S    
C17   N2    D    
Cu1   N1    S    
C29   H27   S    
C29   H28   S    
C4    C5    A    
C25   H17   S    
C8    C21   A    
