data_mof_unit_52756.cif
_audit_creation_date              2012-10-26T19:02:59-0400
_audit_creation_method            fapswitch 2.2
_symmetry_space_group_name_H-M    P1
_symmetry_Int_Tables_number       1
_space_group_crystal_system       triclinic
_cell_length_a                    15.027266
_cell_length_b                    11.058669
_cell_length_c                    9.915163
_cell_angle_alpha                 111.835493
_cell_angle_beta                  96.749264
_cell_angle_gamma                 92.805887
_cell_volume                      1511.20954095

loop_
_atom_site_label
_atom_site_type_symbol
_atom_type_description
_atom_site_fract_x
_atom_site_fract_y
_atom_site_fract_z
_atom_type_partial_charge
C1    C     C_R   0.493471 0.253881 0.439566 0.553064
C2    C     C_2   0.486849 0.498132 0.923884 0.251786
C3    C     C_R   0.329681 0.502767 0.503326 0.551954
C4    C     C_R   0.670276 0.496493 0.496440 0.557053
C5    C     C_R   0.822205 0.600989 0.588640 -0.155702
C6    C     C_R   0.177471 0.400117 0.410299 -0.150119
C7    C     C_R   0.766080 0.493504 0.489614 -0.018060
C8    C     C_R   0.233867 0.506495 0.510157 -0.010392
C9    C     C_R   0.801522 0.383939 0.392671 0.012242
C10   C     C_R   0.199160 0.615637 0.609008 0.002500
C11   C     C_R   0.896308 0.386787 0.392671 0.037689
C12   C     C_R   0.506476 0.746113 0.560436 0.549427
C13   C     C_R   0.104176 0.614966 0.608833 0.010627
C14   C     C_R   0.952818 0.497931 0.496713 0.014709
C15   C     C_R   0.047463 0.503871 0.504130 0.021418
C16   C     C_R   0.914768 0.603456 0.594076 -0.019893
C17   C     C_R   0.085125 0.398105 0.405812 -0.005873
C18   C     C_R   0.937121 0.284379 0.292210 0.088235
C19   C     C_R   0.062359 0.718309 0.708027 0.092363
C20   C     C_2   0.740300 0.263317 0.306203 0.265712
C21   C     C_2   0.263053 0.731954 0.698102 0.210149
C22   C     C_R   0.030502 0.290955 0.301644 -0.116092
C23   C     C_R   0.969140 0.710943 0.697732 -0.071543
C24   C     C_2   0.490702 0.112875 0.403712 0.053116
C25   C     C_2   0.509125 0.887108 0.596300 0.051226
C26   C     C_2   0.500488 0.069538 0.513610 -0.086924
C27   C     C_2   0.499500 0.930465 0.486412 -0.086517
C28   C     C_2   0.513223 0.501667 0.076027 0.251152
Cu1   Cu    Cu3+1 0.515770 0.521810 0.644910 0.971564
Cu2   Cu    Cu3+1 0.484230 0.478190 0.355090 0.973132
H1    H     H_    0.793109 0.683143 0.663362 0.116959
H2    H     H_    0.267735 0.815031 0.665245 0.091512
H3    H     H_    0.903980 0.089199 0.187344 0.224273
H4    H     H_    0.901477 0.173959 0.075922 0.244093
H5    H     H_    0.154572 0.801433 0.893316 0.274957
H6    H     H_    0.143813 0.889878 0.781013 0.230536
H7    H     H_    0.469059 0.952454 0.796700 0.260874
H8    H     H_    0.581912 0.962057 0.799384 0.252975
H9    H     H_    0.530293 0.047246 0.202954 0.265580
H10   H     H_    0.417496 0.038064 0.200951 0.250555
H11   H     H_    0.356795 0.502478 0.843537 0.287257
H12   H     H_    0.206237 0.318180 0.334597 0.117476
H13   H     H_    0.404465 0.362305 0.746916 0.268998
H14   H     H_    0.643193 0.496716 0.156181 0.284396
H15   H     H_    0.595805 0.637203 0.252865 0.269418
H16   H     H_    0.060477 0.211512 0.224707 0.116388
H17   H     H_    0.938795 0.790662 0.773642 0.135614
H18   H     H_    0.490633 0.861450 0.373057 0.178357
H19   H     H_    0.509554 0.138571 0.626969 0.178039
H20   H     H_    0.601083 0.600233 0.921288 0.227783
H21   H     H_    0.398834 0.400025 0.078834 0.227295
H22   H     H_    0.750686 0.173857 0.324475 0.112701
N1    N     N_2   0.460520 0.445420 0.137370 -0.319868
N2    N     N_2   0.539480 0.554580 0.862630 -0.319854
N3    N     N_3   0.885211 0.175174 0.176086 -0.628364
N4    N     N_3   0.110503 0.830882 0.824453 -0.644930
N5    N     N_3   0.521154 0.976543 0.747095 -0.632624
N6    N     N_3   0.478309 0.023393 0.252914 -0.632059
N7    N     N_3   0.399944 0.433008 0.849630 -0.645217
N8    N     N_3   0.600233 0.566431 0.150135 -0.644606
O1    O     O_R   0.508410 0.332340 0.577400 -0.531880
O2    O     O_2   0.311054 0.734906 0.807740 -0.501385
O3    O     O_R   0.491590 0.667660 0.422600 -0.531194
O4    O     O_R   0.481780 0.295500 0.332650 -0.466939
O5    O     O_R   0.518220 0.704500 0.667350 -0.470757
O6    O     O_R   0.383570 0.518390 0.622380 -0.474248
O7    O     O_R   0.616430 0.481610 0.377620 -0.471104
O8    O     O_R   0.356940 0.481550 0.377630 -0.508660
O9    O     O_R   0.643060 0.518450 0.622370 -0.507785
O10   O     O_2   0.680358 0.261822 0.211042 -0.482567

loop_
_geom_bond_atom_site_label_1
_geom_bond_atom_site_label_2
_ccdc_geom_bond_type
C19   N4    S    
C27   H18   S    
C4    O7    A    
C19   C23   A    
C28   N1    D    
C11   C18   A    
H3    N3    S    
Cu1   Cu2   S    
H6    N4    S    
C17   C22   A    
Cu2   O4    S    
C25   C27   D    
H8    N5    S    
C5    C7    A    
C12   O5    A    
C9    C20   S    
Cu2   O7    S    
H13   N7    S    
C12   C25   S    
C28   N8    S    
C21   O2    D    
H4    N3    S    
C20   H22   S    
Cu1   O1    S    
Cu2   O8    S    
C21   H2    S    
C9    C11   A    
C20   O10   D    
C26   C27   S    
H20   N2    S    
C2    N7    S    
C25   N5    S    
C18   N3    S    
H14   N8    S    
C4    C7    S    
Cu1   O5    S    
C15   C17   A    
C6    C8    A    
C8    C10   A    
C4    O9    A    
C22   H16   S    
C24   C26   D    
C16   C23   A    
Cu1   O9    S    
C13   C15   A    
C10   C21   S    
C2    N2    D    
Cu2   N1    S    
C14   C16   A    
C3    O6    A    
H10   N6    S    
Cu1   N2    S    
C13   C19   A    
H21   N1    S    
Cu1   O6    S    
C6    C17   A    
C1    O4    A    
C23   H17   S    
H11   N7    S    
C1    C24   S    
C24   N6    S    
C3    C8    S    
C6    H12   S    
C26   H19   S    
C11   C14   A    
C7    C9    A    
C12   O3    A    
C14   C15   A    
H15   N8    S    
C2    C28   S    
C5    H1    S    
H5    N4    S    
C18   C22   A    
H9    N6    S    
Cu2   O3    S    
H7    N5    S    
C3    O8    A    
C5    C16   A    
C10   C13   A    
C1    O1    A    
