data_mof_unit_28341.cif
_audit_creation_date              2012-12-11T17:15:55-0500
_audit_creation_method            fapswitch 2.2
_symmetry_space_group_name_H-M    P1
_symmetry_Int_Tables_number       1
_space_group_crystal_system       triclinic
_cell_length_a                    14.70005
_cell_length_b                    7.229978
_cell_length_c                    13.370478
_cell_angle_alpha                 90.002208
_cell_angle_beta                  99.406153
_cell_angle_gamma                 89.998695
_cell_volume                      1401.92201002

loop_
_atom_site_label
_atom_site_type_symbol
_atom_type_description
_atom_site_fract_x
_atom_site_fract_y
_atom_site_fract_z
_atom_type_partial_charge
O1    O     O_R   0.398210 0.494340 0.401550 -0.530393
O2    O     O_R   0.601790 0.994340 0.598450 -0.530400
O3    O     O_R   0.586310 0.821730 0.403360 -0.543946
O4    O     O_R   0.413690 0.321730 0.596640 -0.543942
C1    C     C_R   0.613013 0.655216 0.379228 0.655184
C2    C     C_R   0.386989 0.155221 0.620774 0.655196
O5    O     O_R   0.397970 0.823900 0.389580 -0.534978
O6    O     O_R   0.602030 0.323900 0.610420 -0.534974
O7    O     O_R   0.412100 0.996500 0.584560 -0.539883
O8    O     O_R   0.587900 0.496500 0.415440 -0.539884
C3    C     C_R   0.365279 0.655169 0.362697 0.715885
C4    C     C_R   0.634721 0.155171 0.637303 0.715864
O9    O     O_3   0.504860 0.661550 0.563990 -0.374466
O10   O     O_3   0.495140 0.161550 0.436010 -0.374467
V1    V     V_3+5 0.499100 0.935510 0.488130 1.383533
V2    V     V_3+5 0.500900 0.435510 0.511870 1.383549
C5    C     C_1   0.715371 0.144272 0.717711 -0.201387
C6    C     C_1   0.284631 0.644270 0.282287 -0.201404
C7    C     C_1   0.783287 0.133701 0.784029 -0.184383
C8    C     C_1   0.216715 0.633701 0.215969 -0.184452
C9    C     C_3   0.251951 0.306498 0.836649 -0.319818
C10   C     C_3   0.748094 0.806607 0.163417 -0.319866
H1    H     H_    0.211703 0.436809 0.832461 0.145123
H2    H     H_    0.788377 0.936874 0.167652 0.145179
H3    H     H_    0.288720 0.297237 0.916164 0.128103
H4    H     H_    0.711313 0.797449 0.083904 0.128124
C11   C     C_3   0.323895 0.316808 0.764046 -0.322147
C12   C     C_3   0.676165 0.816918 0.236039 -0.322068
H5    H     H_    0.394440 0.322696 0.809310 0.127481
H6    H     H_    0.605616 0.822969 0.190781 0.127479
H7    H     H_    0.313614 0.447288 0.719624 0.139810
H8    H     H_    0.686489 0.947329 0.280526 0.139764
H9    H     H_    0.209105 0.268218 0.577909 0.126028
H10   H     H_    0.790933 0.767745 0.422243 0.125951
C13   C     C_3   0.142585 0.135287 0.697903 -0.093061
C14   C     C_3   0.857424 0.635212 0.302096 -0.093064
C15   C     C_3   0.252947 0.962550 0.828947 -0.349592
C16   C     C_3   0.747014 0.462635 0.170993 -0.349515
C17   C     C_3   0.188044 0.134874 0.812618 0.086466
C18   C     C_3   0.811955 0.634901 0.187381 0.086463
H11   H     H_    0.212379 0.832829 0.812907 0.143236
H12   H     H_    0.787554 0.332883 0.187036 0.143278
H13   H     H_    0.287261 0.955309 0.909469 0.134628
H14   H     H_    0.712731 0.455444 0.090460 0.134594
C19   C     C_3   0.315950 0.146802 0.691686 0.106822
C20   C     C_3   0.684051 0.646791 0.308315 0.106852
C21   C     C_3   0.217921 0.144911 0.628251 -0.345442
C22   C     C_3   0.782084 0.644630 0.371755 -0.345394
C23   C     C_3   0.327269 0.969929 0.758794 -0.324782
C24   C     C_3   0.672655 0.470047 0.241102 -0.324875
H15   H     H_    0.397168 0.967711 0.805643 0.129761
H16   H     H_    0.602769 0.468064 0.194212 0.129754
H17   H     H_    0.320952 0.843929 0.710313 0.144863
H18   H     H_    0.678871 0.343943 0.289499 0.144861
H19   H     H_    0.109751 0.997266 0.684048 0.091668
H20   H     H_    0.890314 0.497231 0.315891 0.091605
H21   H     H_    0.211092 0.021992 0.577483 0.121569
H22   H     H_    0.788882 0.521530 0.422390 0.121601
O11   O     O_R   0.912140 0.786650 0.084610 -0.533973
O12   O     O_R   0.087860 0.286650 0.915390 -0.533970
O13   O     O_R   0.102040 0.454810 0.110430 -0.537743
O14   O     O_R   0.897960 0.954810 0.889570 -0.537751
C25   C     C_R   0.135235 0.623443 0.136620 0.726825
C26   C     C_R   0.864766 0.123443 0.863378 0.726860
O15   O     O_R   0.913690 0.457060 0.096650 -0.547045
O16   O     O_R   0.086310 0.957060 0.903350 -0.547057
O17   O     O_R   0.898200 0.284560 0.901540 -0.527283
O18   O     O_R   0.101800 0.784560 0.098460 -0.527286
C27   C     C_R   0.884318 0.625509 0.117419 0.649748
C28   C     C_R   0.115680 0.125500 0.882579 0.649780
O19   O     O_3   0.995160 0.617270 0.936040 -0.371235
O20   O     O_3   0.004840 0.117270 0.063960 -0.371234
V3    V     V_3+5 0.000900 0.343280 0.011870 1.414293
V4    V     V_3+5 0.999100 0.843280 0.988130 1.414261
C29   C     C_R   0.066645 0.279065 0.668739 0.102421
C30   C     C_R   0.974099 0.220891 0.645579 -0.143131
C31   C     C_R   0.903645 0.348811 0.615322 -0.114822
C32   C     C_R   0.924215 0.536246 0.608822 -0.090034
C33   C     C_R   0.015508 0.595549 0.629096 -0.109650
C34   C     C_R   0.086416 0.468519 0.658638 -0.118216
H23   H     H_    0.956199 0.076224 0.650413 0.088956
H24   H     H_    0.832991 0.302646 0.596390 0.105788
H25   H     H_    0.869565 0.635578 0.587101 0.097391
H26   H     H_    0.031278 0.739898 0.620453 0.099573
H27   H     H_    0.156428 0.518913 0.670775 0.092216
C35   C     C_R   0.933310 0.779091 0.331299 0.102551
C36   C     C_R   0.025891 0.721088 0.354314 -0.143051
C37   C     C_R   0.096292 0.849102 0.384596 -0.114727
C38   C     C_R   0.075629 0.036456 0.391284 -0.090034
C39   C     C_R   0.984302 0.095575 0.371174 -0.109931
C40   C     C_R   0.913453 0.968463 0.341580 -0.118374
H28   H     H_    0.043857 0.576486 0.349338 0.088909
H29   H     H_    0.166976 0.803073 0.403408 0.105816
H30   H     H_    0.130230 0.135870 0.413027 0.097412
H31   H     H_    0.968456 0.239845 0.379985 0.099766
H32   H     H_    0.843420 0.018728 0.329543 0.092293

loop_
_geom_bond_atom_site_label_1
_geom_bond_atom_site_label_2
_ccdc_geom_bond_type
C36   C37   A    
C3    C6    S    
C15   H13   S    
C2    C19   S    
C11   H5    S    
O1    C3    A    
C13   C21   S    
C2    O7    A    
C39   H31   S    
C31   C32   A    
O5    C3    A    
C12   C20   S    
C24   H18   S    
C16   H12   S    
C35   C40   A    
C33   H26   S    
C23   H17   S    
O18   V4    S    
O16   V4    S    
O12   V3    S    
O15   V3    S    
C38   H30   S    
O13   C25   A    
C14   C18   S    
O14   C26   A    
C40   H32   S    
C37   H29   S    
C32   H25   S    
C23   H15   S    
C4    C5    S    
C24   H16   S    
O17   V3    S    
O12   C28   A    
C29   C34   A    
C11   C19   S    
O5    V1    S    
C9    C11   S    
O2    C4    A    
O6    V2    S    
C10   C12   S    
C36   H28   S    
C19   C21   S    
C20   C22   S    
C18   C27   S    
C11   H7    S    
C26   O17   A    
C12   H8    S    
C30   C31   A    
O4    C2    A    
C32   C33   A    
C14   C35   S    
C13   H19   S    
O4    V2    S    
C13   C17   S    
C29   C30   A    
C16   H14   S    
C34   H27   S    
C14   H20   S    
C21   H21   S    
C15   C23   S    
C9    C17   S    
C19   C23   S    
C7    C26   S    
O6    C4    A    
C10   C18   S    
O1    V2    S    
O2    V1    S    
O11   V4    S    
O11   C27   A    
C9    H1    S    
H9    C21   S    
C10   H2    S    
H10   C22   S    
O3    V1    S    
C9    H3    S    
C25   O18   A    
C35   C36   A    
C13   C29   S    
O20   V3    S    
O3    C1    A    
C30   H23   S    
O19   V4    S    
C22   H22   S    
C16   C24   S    
C1    C20   S    
C20   C24   S    
O13   V3    S    
C8    C25   S    
C12   H6    S    
O7    V1    S    
C1    O8    A    
C15   C17   S    
O8    V2    S    
C16   C18   S    
C39   C40   A    
O16   C28   A    
C31   H24   S    
O15   C27   A    
C5    C7    T    
C17   C28   S    
C14   C22   S    
C6    C8    T    
C15   H11   S    
C33   C34   A    
C37   C38   A    
C10   H4    S    
O9    V2    S    
O10   V1    S    
O14   V4    S    
C38   C39   A    
