data_mof_unit_32234.cif
_audit_creation_date              2012-12-11T15:54:34-0500
_audit_creation_method            fapswitch 2.2
_symmetry_space_group_name_H-M    P1
_symmetry_Int_Tables_number       1
_space_group_crystal_system       triclinic
_cell_length_a                    6.954035
_cell_length_b                    15.041476
_cell_length_c                    15.69168
_cell_angle_alpha                 90.075409
_cell_angle_beta                  89.990987
_cell_angle_gamma                 89.676842
_cell_volume                      1641.30571005

loop_
_atom_site_label
_atom_site_type_symbol
_atom_type_description
_atom_site_fract_x
_atom_site_fract_y
_atom_site_fract_z
_atom_type_partial_charge
O1    O     O_R   0.638180 0.333920 0.163320 -0.544408
O2    O     O_R   0.361820 0.666080 0.836680 -0.539119
O3    O     O_R   0.308470 0.344960 0.336080 -0.520299
O4    O     O_R   0.691530 0.655040 0.663920 -0.519567
O5    O     O_R   0.138140 0.166110 0.336680 -0.510153
O6    O     O_R   0.861860 0.833890 0.663320 -0.522571
C1    C     C_R   0.477420 0.367844 0.364621 0.737440
C2    C     C_R   0.522639 0.631883 0.635978 0.764538
O7    O     O_R   0.308460 0.344950 0.163930 -0.549331
O8    O     O_R   0.691540 0.655050 0.836070 -0.546423
O9    O     O_R   0.138140 0.166100 0.163310 -0.544969
O10   O     O_R   0.861860 0.833900 0.836690 -0.546619
C3    C     C_R   0.477485 0.367157 0.134958 0.665144
C4    C     C_R   0.522501 0.632738 0.864938 0.681269
O11   O     O_R   0.638180 0.333930 0.336700 -0.530077
O12   O     O_R   0.361820 0.666070 0.663300 -0.539473
O13   O     O_3   0.471670 0.191340 0.250000 -0.375662
O14   O     O_3   0.528330 0.808660 0.750000 -0.375742
V1    V     V_3+5 0.196830 0.260900 0.250000 1.473504
V2    V     V_3+5 0.803170 0.739100 0.750000 1.481637
O15   O     O_R   0.808420 0.155070 0.163920 -0.549177
O16   O     O_R   0.191580 0.844930 0.836080 -0.548400
C5    C     C_R   0.977866 0.132893 0.134999 0.656937
C6    C     C_R   0.022146 0.867006 0.865093 0.654735
O17   O     O_R   0.808420 0.155080 0.336070 -0.551018
O18   O     O_R   0.191580 0.844920 0.663930 -0.550492
C7    C     C_R   0.978194 0.136977 0.368718 0.786202
C8    C     C_R   0.022481 0.858002 0.628813 0.785151
V3    V     V_3+5 0.696830 0.239130 0.250000 1.428048
V4    V     V_3+5 0.303170 0.760870 0.750000 1.438532
O19   O     O_3   0.971850 0.308690 0.250010 -0.364327
O20   O     O_3   0.028150 0.691310 0.749990 -0.356918
H1    H     H_    0.768509 0.860462 0.243115 0.146649
H2    H     H_    0.093359 0.137843 0.764985 0.150155
C9    C     C_R   0.109592 0.168675 0.549816 0.402116
C10   C     C_R   0.894325 0.819379 0.449328 0.366455
C11   C     C_R   0.097715 0.191928 0.637066 0.469747
C12   C     C_R   0.828125 0.802366 0.366301 0.467848
C13   C     C_R   0.084956 0.124043 0.697376 -0.325825
C14   C     C_R   0.821634 0.871523 0.307035 -0.292611
C15   C     C_R   0.061471 0.037534 0.671562 -0.213200
C16   C     C_R   0.882167 0.956046 0.329369 -0.224445
C17   C     C_R   0.038768 0.015560 0.584458 0.012119
C18   C     C_R   0.940836 0.976547 0.413444 0.019517
C19   C     C_R   0.047913 0.083654 0.521871 -0.101688
C20   C     C_R   0.947737 0.906866 0.475392 -0.095880
C21   C     C_R   0.005672 0.926789 0.560814 -0.107080
C22   C     C_R   0.993803 0.064970 0.435393 -0.119608
H3    H     H_    0.050977 0.989089 0.722052 0.141153
H4    H     H_    0.879516 0.005220 0.279312 0.142737
C23   C     C_R   0.178256 0.975754 0.965724 -0.160293
C24   C     C_R   0.821721 0.024215 0.034301 -0.162587
H5    H     H_    0.318242 0.958221 0.940355 0.118709
H6    H     H_    0.681740 0.041734 0.059686 0.118499
C25   C     C_R   0.167617 0.039291 0.030981 -0.153516
C26   C     C_R   0.832359 0.960687 0.969034 -0.155951
H7    H     H_    0.299759 0.068827 0.053636 0.118680
H8    H     H_    0.700221 0.931151 0.946377 0.118211
C27   C     C_R   0.989195 0.064466 0.066233 -0.040338
C28   C     C_R   0.010791 0.935486 0.933809 -0.041253
C29   C     C_R   0.323057 0.470256 0.472987 -0.145426
C30   C     C_R   0.677064 0.530970 0.527180 -0.108971
H9    H     H_    0.185202 0.450934 0.449931 0.184149
H10   H     H_    0.815527 0.555330 0.545681 0.179100
C31   C     C_R   0.336856 0.521374 0.547625 0.123189
C32   C     C_R   0.665554 0.458279 0.471635 0.138686
C33   C     C_R   0.511460 0.562476 0.568260 -0.127439
C34   C     C_R   0.488994 0.435456 0.434539 -0.126520
C35   C     C_R   0.320989 0.473873 0.031577 -0.160968
C36   C     C_R   0.678979 0.525805 0.968093 -0.161352
H11   H     H_    0.180505 0.454908 0.054840 0.114075
H12   H     H_    0.819458 0.544742 0.944801 0.119345
C37   C     C_R   0.332146 0.537303 0.966358 -0.140717
C38   C     C_R   0.667820 0.462375 0.033312 -0.157325
H13   H     H_    0.199666 0.565287 0.941653 0.121217
H14   H     H_    0.800299 0.434364 0.057986 0.117934
C39   C     C_R   0.511317 0.564285 0.933655 -0.038150
C40   C     C_R   0.488656 0.435465 0.066089 -0.039821
O21   O     O_3   0.210203 0.222731 0.494950 -0.535283
C41   C     C_3   0.409218 0.209781 0.510074 -0.140527
H15   H     H_    0.448147 0.142225 0.534343 0.089039
H16   H     H_    0.461630 0.261009 0.555365 0.173582
H17   H     H_    0.487713 0.216718 0.449239 0.155696
O22   O     O_3   0.904591 0.748858 0.504893 -0.554374
C42   C     C_3   0.079203 0.703616 0.489933 -0.244265
H18   H     H_    0.204041 0.748989 0.481033 0.110363
H19   H     H_    0.065904 0.657459 0.434970 0.168725
H20   H     H_    0.110094 0.664200 0.546980 0.188314
O23   O     O_3   0.105521 0.280712 0.661328 -0.517430
C43   C     C_3   0.970301 0.298313 0.727339 -0.132462
H21   H     H_    0.038121 0.287764 0.790627 0.118897
H22   H     H_    0.836102 0.258445 0.721486 0.108962
H23   H     H_    0.921974 0.368188 0.724685 0.190662
O24   O     O_3   0.758336 0.718188 0.347608 -0.539040
C44   C     C_3   0.844078 0.683981 0.272766 -0.265541
H24   H     H_    0.001441 0.697397 0.269852 0.124809
H25   H     H_    0.770391 0.710270 0.215225 0.140190
H26   H     H_    0.826127 0.610729 0.272435 0.167267
I1    I     I_    0.128365 0.503669 0.644223 -0.381376
I2    I     I_    0.868796 0.357214 0.490595 -0.383928

loop_
_geom_bond_atom_site_label_1
_geom_bond_atom_site_label_2
_ccdc_geom_bond_type
C7    C22   S    
C32   C34   A    
C8    C21   S    
C25   C27   A    
O13   V3    S    
C44   H24   S    
O4    C2    A    
V1    O19   S    
C44   H26   S    
C13   C15   A    
C42   H18   S    
C5    C27   S    
O9    V1    S    
C38   H14   S    
C30   C33   A    
C9    C11   A    
O3    C1    A    
C19   C22   A    
O12   V4    S    
C29   H9    S    
C4    C39   S    
C32   I2    S    
C35   H11   S    
O7    C3    A    
C30   H10   S    
C1    C34   S    
C3    C40   S    
O7    V1    S    
O6    C8    A    
O8    V2    S    
C31   C33   A    
C36   C38   A    
C35   C37   A    
O14   V4    S    
C23   C25   A    
C24   H6    S    
C14   C16   A    
C2    O12   A    
C12   C14   A    
O5    C7    A    
C36   C39   A    
C15   C17   A    
C12   O24   S    
C35   C40   A    
C16   C18   A    
C41   H17   S    
C15   H3    S    
C18   C20   A    
O11   V3    S    
C42   H19   S    
O15   C5    A    
O17   V3    S    
H1    C14   S    
C30   C32   A    
H2    C13   S    
O22   C42   S    
C31   I1    S    
C41   H16   S    
O8    C4    A    
C1    O11   A    
O15   V3    S    
C26   C28   A    
C23   H5    S    
C24   C27   A    
C43   H22   S    
C6    C28   S    
O10   V2    S    
O1    V3    S    
O3    V1    S    
C17   C19   A    
C16   H4    S    
O18   V4    S    
C25   H7    S    
O16   C6    A    
C9    O21   S    
O1    C3    A    
C37   H13   S    
C9    C19   A    
C43   H23   S    
V2    O20   S    
C42   H20   S    
C20   C21   A    
O16   V4    S    
C41   H15   S    
C44   H25   S    
O5    V1    S    
O17   C7    A    
O6    V2    S    
O10   C6    A    
O18   C8    A    
C11   O23   S    
O2    V4    S    
C10   C12   A    
V3    O19   S    
C18   C22   A    
V4    O20   S    
C10   C20   A    
C29   C34   A    
C43   H21   S    
C10   O22   S    
O9    C5    A    
O13   V1    S    
C26   H8    S    
O14   V2    S    
O24   C44   S    
O2    C4    A    
O21   C41   S    
O4    V2    S    
C29   C31   A    
C2    C33   S    
C11   C13   A    
C38   C40   A    
C37   C39   A    
C36   H12   S    
C23   C28   A    
O23   C43   S    
C17   C21   A    
C24   C26   A    
