data_mof_unit_33481.cif
_audit_creation_date              2012-12-10T20:41:51-0500
_audit_creation_method            fapswitch 2.2
_symmetry_space_group_name_H-M    P1
_symmetry_Int_Tables_number       1
_space_group_crystal_system       triclinic
_cell_length_a                    15.019587
_cell_length_b                    15.145808
_cell_length_c                    9.880919
_cell_angle_alpha                 89.999907
_cell_angle_beta                  89.998459
_cell_angle_gamma                 89.999944
_cell_volume                      2247.74881248

loop_
_atom_site_label
_atom_site_type_symbol
_atom_type_description
_atom_site_fract_x
_atom_site_fract_y
_atom_site_fract_z
_atom_type_partial_charge
C1    C     C_R   0.380643 0.879756 0.499829 0.871068
C2    C     C_R   0.382098 0.122045 0.499696 0.911076
C3    C     C_R   0.882097 0.377956 0.499696 0.911070
C4    C     C_R   0.880643 0.620244 0.499829 0.871061
C5    C     C_3   0.287672 0.216016 0.755175 0.451201
C6    C     C_3   0.376470 0.695977 0.672893 0.463489
C7    C     C_3   0.876456 0.804008 0.672929 0.463490
C8    C     C_3   0.787688 0.283966 0.755173 0.451202
C9    C     C_R   0.441833 0.948102 0.071423 0.228106
C10   C     C_R   0.941824 0.551889 0.071423 0.228112
C11   C     C_R   0.562720 0.045098 0.071783 -0.079150
C12   C     C_R   0.062730 0.454917 0.071783 -0.079152
C13   C     C_R   0.562642 0.044873 0.928250 -0.013890
C14   C     C_R   0.062652 0.455143 0.928250 -0.013858
C15   C     C_R   0.441852 0.947900 0.928969 0.293625
C16   C     C_R   0.941843 0.552090 0.928969 0.293622
C17   C     C_3   0.342559 0.951849 0.924874 -0.387634
C18   C     C_3   0.842552 0.548126 0.924875 -0.387626
C19   C     C_3   0.342939 0.951954 0.078435 -0.495617
C20   C     C_3   0.842931 0.548023 0.078436 -0.495632
C21   C     C_R   0.622639 0.117399 0.499790 0.903499
C22   C     C_R   0.619946 0.880388 0.499805 0.855899
C23   C     C_R   0.119947 0.619611 0.499805 0.855894
C24   C     C_R   0.122641 0.382601 0.499790 0.903513
C25   C     C_R   0.310566 0.245459 0.614967 -0.058232
C26   C     C_R   0.335665 0.729057 0.544414 -0.128772
C27   C     C_R   0.835660 0.770939 0.544438 -0.128764
C28   C     C_R   0.810572 0.254535 0.614958 -0.058227
C29   C     C_R   0.327509 0.198400 0.496924 -0.029311
C30   C     C_R   0.315571 0.813065 0.496756 0.014342
C31   C     C_R   0.815572 0.686936 0.496755 0.014342
C32   C     C_R   0.827503 0.301606 0.496921 -0.029301
C33   C     C_R   0.294078 0.229222 0.373062 -0.182510
C34   C     C_R   0.235938 0.828388 0.426905 -0.190307
C35   C     C_R   0.735946 0.671620 0.426882 -0.190310
C36   C     C_R   0.794057 0.270798 0.373062 -0.182508
C37   C     C_R   0.670856 0.736567 0.426747 -0.159315
C38   C     C_R   0.729820 0.205742 0.373285 -0.190321
C39   C     C_R   0.229840 0.294277 0.373286 -0.190318
C40   C     C_R   0.170848 0.763440 0.426769 -0.159319
C41   C     C_R   0.686621 0.815325 0.496901 0.045228
C42   C     C_R   0.699635 0.171882 0.497314 -0.019832
C43   C     C_R   0.199640 0.328123 0.497318 -0.019852
C44   C     C_R   0.186621 0.684675 0.496901 0.045231
C45   C     C_R   0.771212 0.834607 0.545380 -0.102567
C46   C     C_R   0.747398 0.189531 0.615257 -0.075568
C47   C     C_R   0.247393 0.310462 0.615267 -0.075564
C48   C     C_R   0.271218 0.665388 0.545355 -0.102570
C49   C     C_3   0.804010 0.874975 0.674229 0.424490
C50   C     C_3   0.718926 0.210516 0.756886 0.410555
C51   C     C_3   0.218910 0.289465 0.756889 0.410585
C52   C     C_3   0.304027 0.625007 0.674189 0.424475
H1    H     H_    0.311521 0.198633 0.277529 0.190066
H2    H     H_    0.222751 0.891397 0.378889 0.150626
H3    H     H_    0.722764 0.608615 0.378849 0.150620
H4    H     H_    0.811489 0.301397 0.277533 0.190058
H5    H     H_    0.318255 0.014675 0.123388 0.235878
H6    H     H_    0.314096 0.890921 0.122960 0.227166
H7    H     H_    0.814080 0.609052 0.122959 0.227166
H8    H     H_    0.818256 0.485300 0.123392 0.235867
H9    H     H_    0.607298 0.723904 0.378543 0.164675
H10   H     H_    0.699138 0.188004 0.277908 0.167106
H11   H     H_    0.199168 0.312027 0.277905 0.167104
H12   H     H_    0.107286 0.776108 0.378582 0.164670
H13   H     H_    0.827636 0.944044 0.661246 0.057558
H14   H     H_    0.734139 0.156495 0.829200 0.013720
H15   H     H_    0.234118 0.343479 0.829218 0.013714
H16   H     H_    0.327655 0.555941 0.661186 0.057565
H17   H     H_    0.612799 0.082617 0.125147 0.144457
H18   H     H_    0.112818 0.417409 0.125148 0.144455
H19   H     H_    0.612289 0.081634 0.874596 0.167624
H20   H     H_    0.112310 0.418395 0.874595 0.167586
H21   H     H_    0.317567 0.014061 0.880561 0.282765
H22   H     H_    0.312044 0.891480 0.881626 0.278525
H23   H     H_    0.812026 0.608489 0.881625 0.278529
H24   H     H_    0.817571 0.485909 0.880568 0.282770
N1    N     N_R   0.499140 0.000000 0.142800 -0.112082
N2    N     N_R   0.999140 0.500000 0.142800 -0.112085
N3    N     N_R   0.499160 1.000000 0.857150 -0.115069
N4    N     N_R   0.999160 0.500000 0.857150 -0.115072
O1    O     O_R   0.408400 0.908380 0.614690 -0.575653
O2    O     O_R   0.408400 0.091620 0.614690 -0.585812
O3    O     O_R   0.908400 0.408380 0.614690 -0.585809
O4    O     O_R   0.908400 0.591620 0.614690 -0.575650
O5    O     O_R   0.408370 0.908370 0.385350 -0.633722
O6    O     O_R   0.408370 0.091630 0.385350 -0.633559
O7    O     O_R   0.908370 0.408370 0.385350 -0.633560
O8    O     O_R   0.908370 0.591630 0.385350 -0.633721
O9    O     O_R   0.591610 0.091610 0.614650 -0.596581
O10   O     O_R   0.591610 0.908390 0.614650 -0.553091
O11   O     O_R   0.091610 0.591610 0.614650 -0.553091
O12   O     O_R   0.091610 0.408390 0.614650 -0.596581
O13   O     O_R   0.591590 0.091600 0.385310 -0.648455
O14   O     O_R   0.591590 0.908400 0.385310 -0.626968
O15   O     O_R   0.091590 0.591600 0.385310 -0.626969
O16   O     O_R   0.091590 0.408400 0.385310 -0.648447
Zn1   Zn    Zn3+2 0.500010 0.000000 0.653130 1.061626
Zn2   Zn    Zn3+2 0.000010 0.500000 0.653130 1.061630
Zn3   Zn    Zn3+2 0.499980 0.000000 0.346870 0.969739
Zn4   Zn    Zn3+2 0.999980 0.500000 0.346870 0.969742
F1    F     F_    0.743986 0.864172 0.779412 -0.577142
F2    F     F_    0.632425 0.242158 0.763441 -0.593615
F3    F     F_    0.132408 0.257823 0.763423 -0.593608
F4    F     F_    0.244010 0.635799 0.779386 -0.577151
C53   C     C_2   0.362497 0.228184 0.855230 0.816718
O17   O     O_2   0.375052 0.172979 0.943353 -0.617013
O18   O     O_R   0.416887 0.303007 0.847970 -0.784290
H25   H     H_    0.464673 0.303456 0.920442 0.385551
C54   C     C_2   0.469806 0.661771 0.653456 0.793652
O19   O     O_2   0.529484 0.687276 0.727968 -0.512108
O20   O     O_R   0.488224 0.601500 0.549902 -0.836818
H26   H     H_    0.553233 0.583538 0.547474 0.366681
C55   C     C_2   0.969791 0.838219 0.653511 0.793648
O21   O     O_2   0.029465 0.812711 0.728028 -0.512118
O22   O     O_R   0.988212 0.898499 0.549970 -0.836816
H27   H     H_    0.053219 0.916464 0.547554 0.366693
C56   C     C_2   0.862520 0.271793 0.855212 0.816742
O23   O     O_2   0.875081 0.326991 0.943341 -0.617001
O24   O     O_R   0.916911 0.196973 0.847929 -0.784278
H28   H     H_    0.964704 0.196520 0.920389 0.385574
F5    F     F_    0.249133 0.132918 0.757642 -0.619270
F6    F     F_    0.368761 0.755347 0.778710 -0.612465
F7    F     F_    0.868742 0.744629 0.778732 -0.612471
F8    F     F_    0.749147 0.367062 0.757661 -0.619276

loop_
_geom_bond_atom_site_label_1
_geom_bond_atom_site_label_2
_ccdc_geom_bond_type
C13   N3    A    
C18   H23   S    
C29   C33   A    
O20   H26   S    
C56   O24   S    
C10   N2    A    
O12   Zn2   S    
C5    C53   S    
C19   H5    S    
C53   O18   S    
C28   C46   A    
C33   C39   A    
C49   H13   S    
C2    C29   S    
C36   H4    S    
C32   C36   A    
C35   C37   A    
C38   C42   A    
C24   O16   A    
C49   F1    S    
C22   C41   S    
C1    O1    A    
O22   H27   S    
C5    F5    S    
C7    C27   S    
C25   C29   A    
C42   C46   A    
C11   N1    A    
C17   C19   S    
C37   C41   A    
C9    C19   S    
C15   N3    A    
C3    O7    A    
C10   C20   S    
O3    Zn2   S    
C12   N2    A    
O18   H25   S    
N1    Zn3   S    
C14   N4    A    
C20   H8    S    
O13   Zn3   S    
O10   Zn1   S    
C52   H16   S    
C26   C48   A    
C27   C45   A    
C17   H21   S    
C22   O14   A    
C24   O12   A    
C8    C56   S    
C40   C44   A    
C19   H6    S    
C33   H1    S    
C30   C34   A    
C27   C31   A    
C28   C32   A    
C7    C49   S    
C51   F3    S    
O15   Zn4   S    
C8    F8    S    
C47   C51   S    
C13   H19   S    
C35   H3    S    
C23   C44   S    
O9    Zn1   S    
C16   N4    A    
O5    Zn3   S    
C4    O4    A    
C45   C49   S    
O7    Zn4   S    
C22   O10   A    
C51   H15   S    
C41   C45   A    
C20   H7    S    
O6    Zn3   S    
C50   H14   S    
O8    Zn4   S    
C5    C25   S    
C12   C14   A    
C50   F2    S    
N2    Zn4   S    
C17   H22   S    
C8    C28   S    
C6    C54   S    
C23   O11   A    
C2    O2    A    
C1    O5    A    
C6    F6    S    
C8    C50   S    
C55   O21   D    
C15   C17   S    
C12   H18   S    
C25   C47   A    
C52   F4    S    
C18   H24   S    
N4    Zn2   S    
C14   H20   S    
N3    Zn1   S    
C5    C51   S    
C21   O9    A    
C7    F7    S    
C37   H9    S    
O24   H28   S    
C11   H17   S    
C34   H2    S    
C4    O8    A    
C39   H11   S    
C53   O17   D    
C46   C50   S    
C40   H12   S    
O4    Zn2   S    
C7    C55   S    
C54   O20   S    
C9    N1    A    
C10   C16   A    
C56   O23   D    
C3    O3    A    
C11   C13   A    
C6    C26   S    
C55   O22   S    
C21   O13   A    
O14   Zn3   S    
O16   Zn4   S    
C31   C35   A    
C36   C38   A    
C1    C30   S    
O2    Zn1   S    
C23   O15   A    
C2    O6    A    
C18   C20   S    
O11   Zn2   S    
C9    C15   A    
C3    C32   S    
C4    C31   S    
C21   C42   S    
C48   C52   S    
C39   C43   A    
C16   C18   S    
C24   C43   S    
O1    Zn1   S    
C34   C40   A    
C6    C52   S    
C54   O19   D    
C43   C47   A    
C44   C48   A    
C38   H10   S    
C26   C30   A    
