data_mof_unit_37371.cif
_audit_creation_date              2013-03-05T16:01:10-0500
_audit_creation_method            fapswitch 2.2
_symmetry_space_group_name_H-M    P1
_symmetry_Int_Tables_number       1
_space_group_crystal_system       triclinic
_cell_length_a                    7.211867
_cell_length_b                    37.094086
_cell_length_c                    41.113751
_cell_angle_alpha                 89.963652
_cell_angle_beta                  90.008877
_cell_angle_gamma                 90.012975
_cell_volume                      10998.6499726

loop_
_atom_site_label
_atom_site_type_symbol
_atom_site_description
_atom_site_fract_x
_atom_site_fract_y
_atom_site_fract_z
_atom_type_partial_charge
O1    O     O_R   0.564240 0.782760 0.216890 -0.591237
O2    O     O_R   0.435760 0.217240 0.783110 -0.588001
O3    O     O_R   0.435760 0.217240 0.716890 -0.591616
O4    O     O_R   0.564240 0.782760 0.283110 -0.588305
O5    O     O_R   0.064240 0.717240 0.283110 -0.591353
O6    O     O_R   0.935760 0.282760 0.716890 -0.588021
O7    O     O_R   0.935760 0.282760 0.783110 -0.591242
O8    O     O_R   0.064240 0.717240 0.216890 -0.587914
O9    O     O_R   0.234510 0.787070 0.282870 -0.593873
O10   O     O_R   0.765490 0.212930 0.717130 -0.589658
O11   O     O_R   0.765490 0.212930 0.782870 -0.593948
O12   O     O_R   0.234510 0.787070 0.217130 -0.589475
O13   O     O_R   0.734510 0.712930 0.217130 -0.593830
O14   O     O_R   0.265490 0.287070 0.782870 -0.589361
O15   O     O_R   0.265490 0.287070 0.717130 -0.593927
O16   O     O_R   0.734510 0.712930 0.282870 -0.589595
C1    C     C_R   0.403235 0.795748 0.293646 0.922749
C2    C     C_R   0.596810 0.204147 0.706468 0.922228
C3    C     C_R   0.596853 0.204155 0.793610 0.922976
C4    C     C_R   0.403168 0.795893 0.206459 0.921951
C5    C     C_R   0.903134 0.704158 0.206380 0.922613
C6    C     C_R   0.096852 0.295889 0.793552 0.921346
C7    C     C_R   0.096858 0.295845 0.706390 0.923124
C8    C     C_R   0.903161 0.704109 0.293542 0.921477
O17   O     O_3   0.397750 0.727090 0.250000 -0.283353
O18   O     O_3   0.602250 0.272910 0.750000 -0.283290
O19   O     O_3   0.897750 0.772910 0.250000 -0.282993
O20   O     O_3   0.102250 0.227090 0.750000 -0.283195
V1    V     V_3+5 0.122890 0.754250 0.250000 1.155993
V2    V     V_3+5 0.877110 0.245750 0.750000 1.155916
V3    V     V_3+5 0.622890 0.745750 0.250000 1.155858
V4    V     V_3+5 0.377110 0.254250 0.750000 1.155949
C9    C     C_R   0.947922 0.610437 0.427818 0.553191
C10   C     C_R   0.052508 0.388604 0.571451 0.560855
C11   C     C_R   0.052796 0.389526 0.927903 0.553399
C12   C     C_R   0.947987 0.611433 0.071383 0.561353
C13   C     C_R   0.447447 0.889578 0.072186 0.553123
C14   C     C_R   0.553047 0.111390 0.928546 0.561090
C15   C     C_R   0.543308 0.111510 0.572104 0.552028
C16   C     C_R   0.423341 0.888173 0.428691 0.560061
O21   O     O_2   0.915963 0.645609 0.434006 -0.540455
O22   O     O_2   0.038386 0.352906 0.565668 -0.538849
O23   O     O_2   0.084761 0.354355 0.934130 -0.540355
O24   O     O_2   0.961819 0.647132 0.065554 -0.538053
O25   O     O_2   0.414962 0.854419 0.066006 -0.540514
O26   O     O_2   0.539439 0.147092 0.934339 -0.538161
O27   O     O_2   0.562990 0.147067 0.566077 -0.540766
O28   O     O_2   0.394743 0.852834 0.434663 -0.531452
N1    N     N_R   0.956971 0.598586 0.396266 -0.177654
N2    N     N_R   0.068498 0.400819 0.602803 -0.177218
N3    N     N_R   0.043402 0.401363 0.896330 -0.177612
N4    N     N_R   0.931972 0.599227 0.102756 -0.177206
N5    N     N_R   0.457073 0.901421 0.103737 -0.177640
N6    N     N_R   0.568458 0.099175 0.897187 -0.177255
N7    N     N_R   0.543066 0.099261 0.603559 -0.177349
N8    N     N_R   0.441926 0.899957 0.397300 -0.179055
C17   C     C_R   0.994971 0.563166 0.389466 0.566630
C18   C     C_R   0.089059 0.436881 0.609139 0.564008
C19   C     C_R   0.005413 0.436794 0.889512 0.566643
C20   C     C_R   0.911787 0.563150 0.109120 0.563848
C21   C     C_R   0.495681 0.936823 0.110525 0.566585
C22   C     C_R   0.588424 0.063106 0.890836 0.563980
C23   C     C_R   0.512379 0.063572 0.610283 0.566753
C24   C     C_R   0.472087 0.935628 0.390585 0.570486
C25   C     C_R   0.091277 0.632608 0.350842 -0.097571
C26   C     C_R   0.234511 0.369332 0.646528 -0.092903
C27   C     C_R   0.908884 0.367341 0.850910 -0.097469
C28   C     C_R   0.765718 0.630702 0.146464 -0.092670
C29   C     C_R   0.591382 0.867389 0.149158 -0.097586
C30   C     C_R   0.734441 0.130657 0.853460 -0.092881
C31   C     C_R   0.408744 0.132815 0.649153 -0.097180
C32   C     C_R   0.271354 0.869336 0.353732 -0.092297
C33   C     C_R   0.080832 0.658504 0.326263 -0.166087
C34   C     C_R   0.244155 0.343637 0.671342 -0.172122
C35   C     C_R   0.919251 0.341468 0.826323 -0.165949
C36   C     C_R   0.755961 0.656376 0.171283 -0.171929
C37   C     C_R   0.580915 0.841490 0.173734 -0.166270
C38   C     C_R   0.744093 0.156353 0.828647 -0.172129
C39   C     C_R   0.419293 0.158544 0.673827 -0.166076
C40   C     C_R   0.259353 0.843888 0.328745 -0.171325
C41   C     C_R   0.755926 0.667538 0.338344 -0.273278
C42   C     C_R   0.919991 0.329591 0.663177 -0.272586
C43   C     C_R   0.244159 0.332426 0.838380 -0.272547
C44   C     C_R   0.080046 0.670463 0.163147 -0.272033
C45   C     C_R   0.255921 0.832487 0.161674 -0.272993
C46   C     C_R   0.420011 0.170418 0.836832 -0.272396
C47   C     C_R   0.743611 0.168057 0.661443 -0.272889
C48   C     C_R   0.580868 0.827946 0.337480 -0.268666
C49   C     C_R   0.764726 0.641460 0.363223 0.013682
C50   C     C_R   0.908411 0.355451 0.638193 0.014432
C51   C     C_R   0.235436 0.358474 0.863271 0.013409
C52   C     C_R   0.091740 0.644633 0.138154 0.014089
C53   C     C_R   0.264744 0.858570 0.136799 0.013674
C54   C     C_R   0.408427 0.144561 0.861819 0.014193
C55   C     C_R   0.734671 0.142195 0.636436 0.011234
C56   C     C_R   0.594690 0.853340 0.362727 0.002934
C57   C     C_R   0.935844 0.624049 0.369830 0.206118
C58   C     C_R   0.068984 0.375298 0.629441 0.205749
C59   C     C_R   0.064361 0.375889 0.869900 0.205969
C60   C     C_R   0.931275 0.624762 0.129381 0.205655
C61   C     C_R   0.435919 0.875964 0.130179 0.205974
C62   C     C_R   0.568952 0.124702 0.870556 0.205884
C63   C     C_R   0.563898 0.124599 0.630006 0.209033
C64   C     C_R   0.437050 0.874204 0.371028 0.215042
C65   C     C_R   0.012956 0.549759 0.447304 -0.052695
C66   C     C_R   0.071094 0.450206 0.551279 -0.055247
C67   C     C_R   0.988159 0.450225 0.947352 -0.052580
C68   C     C_R   0.930120 0.549809 0.051267 -0.055060
C69   C     C_R   0.513059 0.950228 0.052681 -0.052765
C70   C     C_R   0.571082 0.049775 0.948700 -0.055180
C71   C     C_R   0.499454 0.050200 0.552412 -0.050151
C72   C     C_R   0.463066 0.949606 0.448411 -0.052780
C73   C     C_R   0.972576 0.586183 0.453854 -0.054748
C74   C     C_R   0.050377 0.413059 0.545217 -0.055712
C75   C     C_R   0.028502 0.413796 0.953925 -0.054940
C76   C     C_R   0.950455 0.586965 0.045171 -0.056321
C77   C     C_R   0.472054 0.913825 0.046143 -0.054822
C78   C     C_R   0.550982 0.086930 0.954777 -0.056106
C79   C     C_R   0.523173 0.087213 0.546021 -0.049788
C80   C     C_R   0.435934 0.912657 0.454766 -0.055414
C81   C     C_R   0.954955 0.597454 0.486184 -0.054134
C82   C     C_R   0.024048 0.401238 0.513231 -0.061227
C83   C     C_R   0.046457 0.402533 0.986269 -0.054075
C84   C     C_R   0.976744 0.598787 0.013170 -0.060496
C85   C     C_R   0.453772 0.902568 0.013819 -0.054074
C86   C     C_R   0.525330 0.098756 0.986776 -0.060566
C87   C     C_R   0.518077 0.099293 0.513852 -0.063902
C88   C     C_R   0.432437 0.900704 0.486959 -0.060894
C89   C     C_R   0.024803 0.538207 0.414819 -0.110983
C90   C     C_R   0.091735 0.462170 0.583513 -0.113408
C91   C     C_R   0.975992 0.461769 0.914854 -0.111081
C92   C     C_R   0.909532 0.537848 0.083515 -0.113411
C93   C     C_R   0.525551 0.961770 0.085163 -0.110838
C94   C     C_R   0.591076 0.037809 0.916455 -0.113343
C95   C     C_R   0.486470 0.038594 0.584859 -0.113249
C96   C     C_R   0.485420 0.960984 0.416023 -0.114564
C97   C     C_R   0.913234 0.676396 0.319707 -0.090386
C98   C     C_R   0.087148 0.323333 0.679975 -0.090159
C99   C     C_R   0.086824 0.323582 0.819739 -0.090528
C100  C     C_R   0.912882 0.676691 0.179943 -0.090182
C101  C     C_R   0.413263 0.823610 0.180298 -0.090585
C102  C     C_R   0.587130 0.176667 0.820024 -0.090093
C103  C     C_R   0.586669 0.176566 0.680276 -0.090099
C104  C     C_R   0.414095 0.822887 0.320253 -0.089706
H1    H     H_    0.625299 0.680975 0.333531 0.132562
H2    H     H_    0.797039 0.314348 0.669576 0.135554
H3    H     H_    0.374781 0.319002 0.833556 0.132556
H4    H     H_    0.202953 0.685709 0.169555 0.135515
H5    H     H_    0.125247 0.819063 0.166495 0.132645
H6    H     H_    0.297099 0.185671 0.830443 0.135561
H7    H     H_    0.873922 0.181656 0.666157 0.132814
H8    H     H_    0.701577 0.811928 0.331351 0.135382
H9    H     H_    0.916544 0.624942 0.491964 0.188264
H10   H     H_    0.000191 0.373010 0.507947 0.187390
H11   H     H_    0.084877 0.375042 0.992071 0.188308
H12   H     H_    0.000344 0.627022 0.007854 0.187783
H13   H     H_    0.414863 0.875099 0.008052 0.188352
H14   H     H_    0.501968 0.126994 0.992076 0.187754
H15   H     H_    0.523398 0.127806 0.508213 0.187051
H16   H     H_    0.424212 0.872220 0.492619 0.187790
C105  C     C_R   0.078649 0.512857 0.531708 -0.104293
C106  C     C_R   0.069691 0.487866 0.466357 -0.103914
C107  C     C_R   0.923138 0.487141 0.031752 -0.104362
C108  C     C_R   0.931689 0.512136 0.966363 -0.103886
C109  C     C_R   0.578003 0.987115 0.968256 -0.104303
C110  C     C_R   0.570445 0.012097 0.033615 -0.103765
C111  C     C_R   0.510903 0.011802 0.467716 -0.101544
C112  C     C_R   0.446012 0.988162 0.533189 -0.099027
C113  C     C_R   0.058438 0.462753 0.492580 0.085603
C114  C     C_R   0.038085 0.537342 0.505898 0.083897
C115  C     C_R   0.942902 0.537253 0.992571 0.085300
C116  C     C_R   0.963600 0.462657 0.005950 0.083761
C117  C     C_R   0.559156 0.037220 0.007401 0.085442
C118  C     C_R   0.537475 0.962645 0.994079 0.083814
C119  C     C_R   0.449702 0.962764 0.507057 0.084976
C120  C     C_R   0.504145 0.037206 0.493785 0.085753
C121  C     C_R   0.070040 0.475343 0.525131 0.075521
C122  C     C_R   0.040824 0.524929 0.473234 0.077104
C123  C     C_R   0.931443 0.524662 0.025139 0.075548
C124  C     C_R   0.960601 0.475068 0.973270 0.077122
C125  C     C_R   0.570059 0.024632 0.974843 0.075554
C126  C     C_R   0.540908 0.975050 0.026744 0.077154
C127  C     C_R   0.472188 0.974938 0.474450 0.078160
C128  C     C_R   0.485140 0.024977 0.526390 0.078875
C129  C     C_R   0.123076 0.524052 0.563986 0.285586
C130  C     C_R   0.104053 0.477622 0.433452 0.287420
C131  C     C_R   0.878923 0.475940 0.064052 0.285655
C132  C     C_R   0.897145 0.522375 0.933446 0.287326
C133  C     C_R   0.621754 0.975906 0.935956 0.285527
C134  C     C_R   0.605484 0.022317 0.066506 0.287278
C135  C     C_R   0.562080 0.021281 0.435181 0.290424
C136  C     C_R   0.399243 0.978754 0.565950 0.288997
C137  C     C_R   0.121189 0.498873 0.589435 -0.137148
C138  C     C_R   0.073545 0.502428 0.408270 -0.128922
C139  C     C_R   0.880539 0.501128 0.089472 -0.137185
C140  C     C_R   0.927350 0.497560 0.908283 -0.128749
C141  C     C_R   0.619880 0.001094 0.910514 -0.137226
C142  C     C_R   0.574957 0.997524 0.091697 -0.128847
C143  C     C_R   0.535062 0.996702 0.409809 -0.129731
C144  C     C_R   0.435158 0.002999 0.591265 -0.123286
O29   O     O_2   0.105903 0.448293 0.640154 -0.517867
O30   O     O_2   0.003684 0.552078 0.358253 -0.516728
O31   O     O_2   0.894919 0.551727 0.140143 -0.517918
O32   O     O_2   0.996334 0.447888 0.858291 -0.516649
O33   O     O_2   0.604706 0.051696 0.859812 -0.517938
O34   O     O_2   0.504956 0.947906 0.141735 -0.516915
O35   O     O_2   0.492198 0.946438 0.359442 -0.520044
O36   O     O_2   0.506627 0.052263 0.641467 -0.516633
C145  C     C_R   0.983890 0.573360 0.511689 -0.090707
C146  C     C_R   0.024736 0.425671 0.487488 -0.092576
C147  C     C_R   0.017832 0.426633 0.011758 -0.090687
C148  C     C_R   0.976309 0.574349 0.987449 -0.092347
C149  C     C_R   0.482655 0.926653 0.988306 -0.090841
C150  C     C_R   0.526085 0.074317 0.012515 -0.092270
C151  C     C_R   0.502937 0.074858 0.488333 -0.089039
C152  C     C_R   0.446344 0.925110 0.512495 -0.091099
H17   H     H_    0.374967 0.339809 0.683809 0.137731
H18   H     H_    0.204499 0.664349 0.312279 0.140887
H19   H     H_    0.625128 0.660176 0.183738 0.137575
H20   H     H_    0.795533 0.335640 0.812347 0.140813
H21   H     H_    0.874873 0.160174 0.816173 0.137720
H22   H     H_    0.704610 0.835633 0.187709 0.140932
H23   H     H_    0.128923 0.840844 0.315984 0.137505
H24   H     H_    0.295942 0.164167 0.687961 0.141092
H25   H     H_    0.357047 0.384684 0.640345 0.150205
H26   H     H_    0.221789 0.619144 0.355341 0.131592
H27   H     H_    0.643233 0.615341 0.140278 0.150286
H28   H     H_    0.778387 0.380800 0.855409 0.131712
H29   H     H_    0.856944 0.115299 0.859637 0.149988
H30   H     H_    0.721936 0.880843 0.144653 0.131706
H31   H     H_    0.150809 0.885341 0.359831 0.141913
H32   H     H_    0.278436 0.119239 0.644690 0.130012
H33   H     H_    0.151632 0.507983 0.613889 0.218115
H34   H     H_    0.097102 0.493974 0.383395 0.217389
H35   H     H_    0.850199 0.492006 0.113936 0.218089
H36   H     H_    0.903594 0.506018 0.883405 0.217405
H37   H     H_    0.649812 0.991975 0.886045 0.218108
H38   H     H_    0.599023 0.005961 0.116564 0.217338
H39   H     H_    0.569463 0.004888 0.385237 0.216449
H40   H     H_    0.406185 0.994767 0.616038 0.216118
H41   H     H_    0.956683 0.583170 0.535934 0.173288
H42   H     H_    0.991675 0.415124 0.463722 0.172812
H43   H     H_    0.045283 0.416819 0.036006 0.173384
H44   H     H_    0.009299 0.584911 0.963676 0.173068
H45   H     H_    0.454914 0.916861 0.964071 0.173366
H46   H     H_    0.493574 0.084874 0.036297 0.172960
H47   H     H_    0.484941 0.086236 0.464410 0.173888
H48   H     H_    0.460842 0.913578 0.536410 0.175116
C153  C     C_2   0.592063 0.633199 0.381317 0.559017
H49   H     H_    0.476283 0.651837 0.380158 -0.002917
O37   O     O_2   0.574509 0.605425 0.396958 -0.582542
C154  C     C_2   0.725781 0.360966 0.622372 0.546008
H50   H     H_    0.616330 0.341275 0.625976 0.000158
O38   O     O_2   0.692924 0.387639 0.605953 -0.588800
C155  C     C_2   0.408189 0.366705 0.881348 0.559185
H51   H     H_    0.523916 0.348057 0.880190 -0.002948
O39   O     O_2   0.425882 0.394468 0.896970 -0.582571
C156  C     C_2   0.274429 0.639168 0.122356 0.546198
H52   H     H_    0.383836 0.658858 0.125992 0.000269
O40   O     O_2   0.307389 0.612538 0.105920 -0.588827
C157  C     C_2   0.092044 0.866856 0.118724 0.559217
H53   H     H_    0.976265 0.848206 0.119853 -0.002994
O41   O     O_2   0.074460 0.894663 0.103134 -0.582598
C158  C     C_2   0.225848 0.139064 0.877659 0.546022
H54   H     H_    0.116409 0.158746 0.874037 0.000386
O42   O     O_2   0.193021 0.112418 0.894117 -0.588717
C159  C     C_2   0.906743 0.134402 0.617990 0.552639
H55   H     H_    0.023300 0.152822 0.619641 -0.000380
O43   O     O_2   0.922960 0.107264 0.601457 -0.581689
C160  C     C_2   0.776154 0.856985 0.379491 0.533549
H56   H     H_    0.886294 0.837919 0.374242 0.010330
O44   O     O_2   0.807013 0.881209 0.398827 -0.584887
N9    N     N_R   0.194703 0.559411 0.570828 0.232967
O45   O     O_R   0.158720 0.574941 0.598492 -0.330916
O46   O     O_R   0.318585 0.573667 0.551720 -0.361370
N10   N     N_R   0.193540 0.444199 0.425323 0.233123
O47   O     O_R   0.153294 0.427741 0.398279 -0.330128
O48   O     O_R   0.334948 0.433145 0.442291 -0.361195
N11   N     N_R   0.807682 0.440556 0.070945 0.232938
O49   O     O_R   0.844116 0.425031 0.098613 -0.330822
O50   O     O_R   0.683640 0.426275 0.051894 -0.361251
N12   N     N_R   0.807692 0.555805 0.925287 0.233149
O51   O     O_R   0.847966 0.572274 0.898234 -0.329430
O52   O     O_R   0.666229 0.566844 0.942229 -0.360836
N13   N     N_R   0.692704 0.940512 0.929076 0.233013
O53   O     O_R   0.655994 0.925005 0.901427 -0.330722
O54   O     O_R   0.816682 0.926189 0.948124 -0.361107
N14   N     N_R   0.695657 0.055691 0.074601 0.233171
O55   O     O_R   0.656187 0.072158 0.101671 -0.329793
O56   O     O_R   0.836930 0.066678 0.057564 -0.361038
N15   N     N_R   0.669169 0.052937 0.427915 0.229514
O57   O     O_R   0.815051 0.060487 0.445274 -0.364685
O58   O     O_R   0.640874 0.070562 0.400986 -0.334314
N16   N     N_R   0.288587 0.947698 0.573669 0.229847
O59   O     O_R   0.317374 0.929979 0.600532 -0.332077
O60   O     O_R   0.140149 0.940802 0.556760 -0.363722

loop_
_geom_bond_atom_site_label_1
_geom_bond_atom_site_label_2
_geom_bond_distance
_ccdc_geom_bond_type
C69   C126  1.422670 A    
O17   V3    1.764917 S    
C94   C141  1.399362 A    
C54   C158  1.483064 S    
C48   C56   1.405637 A    
C151  H47   1.077858 S    
C93   C142  1.399364 A    
C32   H31   1.082399 S    
C133  N13   1.437491 S    
O12   V1    1.988530 S    
O19   V1    1.765205 S    
C82   H10   1.083228 S    
C7    C98   1.490821 S    
C29   C37   1.395819 A    
C91   C140  1.399420 A    
C10   O22   1.349303 S    
C130  C138  1.402051 A    
C65   C122  1.422675 A    
C108  C115  1.427163 A    
C90   C137  1.399362 A    
C71   C95   1.404645 A    
C118  C126  1.420121 A    
C31   C39   1.395326 A    
C89   C138  1.399352 A    
C28   H27   1.081439 S    
C21   C93   1.410247 A    
C39   H24   1.083022 S    
C83   H11   1.083218 S    
O6    V2    1.978444 S    
C27   C35   1.396380 A    
O16   V3    1.988581 S    
C41   C97   1.407801 A    
O5    C8    1.330549 A    
C19   C91   1.410749 A    
N12   O51   1.301477 A    
C81   H9    1.083222 S    
C66   C74   1.408350 A    
C1    C104  1.489117 S    
O8    V1    1.979552 S    
C35   H20   1.083003 S    
C17   C89   1.410247 A    
C2    C103  1.487624 S    
N15   O58   1.301516 A    
C135  C143  1.399457 A    
C157  O41   1.220702 D    
C46   H6    1.083901 S    
C157  H53   1.085194 S    
C67   C124  1.423201 A    
C130  N10   1.437457 S    
C30   C38   1.397427 A    
C113  C146  1.412507 A    
C36   H19   1.082905 S    
C56   C160  1.485190 S    
C26   C34   1.397434 A    
C132  C140  1.402269 A    
N7    C63   1.445480 S    
O1    V3    1.978486 S    
C160  O44   1.220530 D    
N1    C17   1.371192 A    
C29   C61   1.402371 A    
C18   C90   1.410388 A    
O3    C2    1.330105 A    
O2    V4    1.978483 S    
O1    C4    1.330581 A    
C154  H50   1.085445 S    
C137  H33   1.083322 S    
C96   C143  1.395789 A    
C105  C129  1.427158 A    
C42   C98   1.408466 A    
C46   C54   1.407499 A    
C114  C145  1.412501 A    
C45   C53   1.408840 A    
C19   O32   1.349292 S    
C111  C127  1.422622 A    
N15   O57   1.301747 A    
C70   C125  1.422653 A    
N5    C61   1.447589 S    
C158  H54   1.085450 S    
C40   C104  1.405367 A    
C83   C147  1.393328 A    
C17   O30   1.349309 S    
C65   C73   1.408345 A    
C92   C139  1.399431 A    
C109  C133  1.427160 A    
C31   H32   1.081794 S    
C82   C146  1.393011 A    
C26   H25   1.081444 S    
C11   C75   1.409656 A    
C112  C136  1.431504 A    
N16   O59   1.301512 A    
C81   C145  1.393085 A    
C110  C126  1.419169 A    
C11   O23   1.349238 S    
C22   O33   1.349269 S    
O5    V1    1.978441 S    
C108  C124  1.419280 A    
C132  N12   1.437425 S    
C27   C59   1.402598 A    
C21   O34   1.349322 S    
C13   N5    1.371567 A    
C155  O39   1.220695 D    
C116  C124  1.420205 A    
N14   O56   1.301710 A    
C44   H4    1.083892 S    
O2    C3    1.330981 A    
C117  C125  1.420160 A    
C41   C49   1.408844 A    
O16   C8    1.333709 A    
O7    V2    1.979549 S    
C16   N8    1.368919 A    
C86   C150  1.393003 A    
C48   H8    1.083908 S    
C139  H35   1.083329 S    
C85   C149  1.393082 A    
C138  H34   1.083322 S    
C113  C121  1.420158 A    
C42   H2    1.083896 S    
N6    C62   1.447136 S    
O8    C5    1.331167 A    
C72   C127  1.426374 A    
C53   C157  1.482418 S    
C36   C100  1.405434 A    
N3    C19   1.371386 A    
N3    C59   1.448386 S    
C10   C74   1.408998 A    
C24   O35   1.349308 S    
C39   C103  1.404996 A    
O9    V1    1.989407 S    
N2    C58   1.447198 S    
C106  C122  1.419172 A    
C72   C96   1.405943 A    
C55   C63   1.418629 A    
C69   C93   1.405548 A    
N2    C18   1.370978 A    
C46   C102  1.408471 A    
C147  H43   1.079371 S    
C25   H26   1.081497 S    
O15   V4    1.988583 S    
C75   C83   1.399576 A    
C18   O29   1.349265 S    
C67   C91   1.405550 A    
C25   C33   1.395822 A    
C145  H41   1.079386 S    
C95   C144  1.396049 A    
C106  C130  1.427158 A    
C52   C60   1.418610 A    
C120  C128  1.421563 A    
O18   V4    1.764918 S    
N13   O54   1.301714 A    
C15   N7    1.370482 A    
C65   C89   1.405550 A    
C32   C64   1.402162 A    
C112  C128  1.422015 A    
C109  C118  1.426654 A    
C68   C92   1.405735 A    
C116  C147  1.412588 A    
C50   C154  1.483033 S    
C6    C99   1.490350 S    
N4    C60   1.448017 S    
C32   C40   1.398254 A    
C68   C123  1.423181 A    
N7    C23   1.370192 A    
C110  C134  1.427148 A    
C23   C95   1.409650 A    
C69   C77   1.408324 A    
C135  N15   1.436602 S    
C144  H40   1.083484 S    
N13   O53   1.301475 A    
C107  C116  1.427141 A    
C129  N9    1.437490 S    
C66   C90   1.405737 A    
C51   C155  1.482423 S    
C34   C98   1.405278 A    
O10   V2    1.989410 S    
C20   O31   1.349251 S    
C55   C159  1.483052 S    
C14   N6    1.371394 A    
C110  C117  1.426664 A    
N11   O49   1.301478 A    
O11   C3    1.334109 A    
O12   C4    1.333738 A    
C88   H16   1.083376 S    
C30   C62   1.402562 A    
N9    O45   1.301475 A    
C153  H49   1.085205 S    
C120  C151  1.414431 A    
O13   C5    1.334407 A    
C47   H7    1.084021 S    
C150  H46   1.079352 S    
C149  H45   1.079383 S    
C70   C78   1.408354 A    
O14   C6    1.333996 A    
C67   C75   1.408349 A    
C70   C94   1.405742 A    
C49   C153  1.482457 S    
C140  H36   1.083330 S    
C88   C152  1.390311 A    
C43   H3    1.084005 S    
O4    C1    1.329922 A    
C15   O27   1.349330 S    
C71   C79   1.408126 A    
O9    C1    1.334326 A    
C16   C80   1.408377 A    
N10   O48   1.301716 A    
C141  H37   1.083330 S    
C153  O37   1.220695 D    
C41   H1    1.084013 S    
C142  H38   1.083331 S    
C84   H12   1.083223 S    
C68   C76   1.408359 A    
C107  C123  1.419196 A    
C43   C99   1.407952 A    
C134  N14   1.437483 S    
C12   O24   1.349263 S    
C152  H48   1.077082 S    
C105  C114  1.426643 A    
C53   C61   1.419111 A    
C155  H51   1.085200 S    
C12   C76   1.409506 A    
C158  O42   1.220630 D    
C87   H15   1.083301 S    
C156  O40   1.220613 D    
C111  C135  1.431309 A    
C134  C142  1.402047 A    
C72   C80   1.408751 A    
C133  C141  1.402159 A    
C16   O28   1.349339 S    
C56   C64   1.417331 A    
C31   C63   1.401902 A    
C47   C55   1.408071 A    
N8    C64   1.442833 S    
C136  N16   1.436622 S    
C20   C92   1.410891 A    
C66   C121  1.422653 A    
C131  C139  1.402387 A    
C22   C94   1.410380 A    
C119  C127  1.423601 A    
N12   O52   1.301710 A    
C4    C101  1.489257 S    
O13   V3    1.989802 S    
N14   O55   1.301474 A    
N1    C57   1.447545 S    
O14   V4    1.989800 S    
C108  C132  1.427289 A    
C12   N4    1.371625 A    
O11   V2    1.988527 S    
C10   N2    1.371412 A    
C52   C156  1.483052 S    
C159  H55   1.085293 S    
C80   C88   1.395812 A    
C154  O38   1.220636 D    
C131  N11   1.437448 S    
C8    C97   1.489244 S    
C28   C36   1.398016 A    
O7    C6    1.330809 A    
C84   C148  1.393245 A    
C9    C73   1.409143 A    
C37   H22   1.083012 S    
C42   C50   1.407500 A    
C23   O36   1.349337 S    
C107  C131  1.427296 A    
C109  C125  1.419096 A    
C146  H42   1.079343 S    
C115  C123  1.420248 A    
C38   C102  1.405287 A    
C156  H52   1.085461 S    
C26   C58   1.402573 A    
C30   H29   1.081469 S    
C9    O21   1.349278 S    
O20   V2    1.765206 S    
C148  H44   1.079331 S    
C35   C99   1.405214 A    
C29   H30   1.081471 S    
C119  C152  1.414585 A    
C40   H23   1.082911 S    
C11   N3    1.371755 A    
C115  C148  1.412591 A    
C159  O43   1.220651 D    
C87   C151  1.391207 A    
N8    C24   1.368872 A    
N16   O60   1.301768 A    
C106  C113  1.426678 A    
C33   C97   1.405033 A    
C27   H28   1.081478 S    
O10   C2    1.333417 A    
C15   C79   1.408705 A    
O6    C7    1.330952 A    
C43   C51   1.409312 A    
C34   H17   1.082910 S    
O15   C7    1.334090 A    
C71   C128  1.425394 A    
N9    O46   1.301720 A    
C13   C77   1.409132 A    
C50   C58   1.418402 A    
C33   H18   1.083011 S    
C117  C150  1.412502 A    
C112  C119  1.429662 A    
C85   H13   1.083232 S    
N5    C21   1.371207 A    
C136  C144  1.400073 A    
O3    V4    1.979775 S    
C78   C86   1.399415 A    
C105  C121  1.419080 A    
C45   H5    1.084009 S    
C14   O26   1.349304 S    
O4    V3    1.979772 S    
C118  C149  1.412499 A    
C38   H21   1.082910 S    
C25   C57   1.402356 A    
C74   C82   1.399417 A    
N11   O50   1.301718 A    
C45   C101  1.407800 A    
C86   H14   1.083236 S    
C73   C81   1.399475 A    
N10   O47   1.301484 A    
C44   C100  1.408633 A    
C37   C101  1.405032 A    
N4    C20   1.371161 A    
C3    C102  1.490814 S    
C9    N1    1.371528 A    
C49   C57   1.419108 A    
C143  H39   1.083519 S    
C160  H56   1.085461 S    
N6    C22   1.370951 A    
C14   C78   1.408991 A    
C129  C137  1.402165 A    
C24   C96   1.410246 A    
C44   C52   1.407942 A    
C5    C100  1.491914 S    
C47   C103  1.407483 A    
C51   C59   1.419332 A    
C76   C84   1.399515 A    
C77   C85   1.399479 A    
C13   O25   1.349280 S    
C48   C104  1.408284 A    
C54   C62   1.418392 A    
C28   C60   1.402844 A    
C111  C120  1.428425 A    
C114  C122  1.420107 A    
C79   C87   1.396641 A    
