data_mof_unit_27022.cif
_audit_creation_date              2012-12-10T20:36:37-0500
_audit_creation_method            fapswitch 2.2
_symmetry_space_group_name_H-M    P1
_symmetry_Int_Tables_number       1
_space_group_crystal_system       triclinic
_cell_length_a                    10.550517
_cell_length_b                    10.691132
_cell_length_c                    9.875439
_cell_angle_alpha                 89.639927
_cell_angle_beta                  91.750538
_cell_angle_gamma                 89.100491
_cell_volume                      1113.23702942

loop_
_atom_site_label
_atom_site_type_symbol
_atom_type_description
_atom_site_fract_x
_atom_site_fract_y
_atom_site_fract_z
_atom_type_partial_charge
C1    C     C_R   0.502107 0.260568 0.500345 0.882847
C2    C     C_3   0.956075 0.581621 0.404825 0.000718
C3    C     C_3   0.030987 0.459214 0.375550 0.018305
C4    C     C_3   0.121708 0.488892 0.494959 -0.022587
C5    C     C_R   0.588283 0.060870 0.581804 0.114512
C6    C     C_R   0.505352 0.129171 0.497342 -0.104689
C7    C     C_R   0.436154 0.070200 0.394313 -0.289301
C8    C     C_R   0.435360 0.940992 0.387493 -0.017064
C9    C     C_R   0.500023 0.872297 0.492989 -0.145268
C10   C     C_R   0.583370 0.933487 0.581334 0.127820
C11   C     C_3   0.606233 0.923824 0.730971 -0.504687
C12   C     C_R   0.257416 0.492013 0.498165 0.850999
C13   C     C_3   0.613990 0.065500 0.731114 -0.490489
C14   C     C_R   0.485862 0.391086 0.071536 0.201518
C15   C     C_R   0.521198 0.606258 0.071928 -0.115643
C16   C     C_R   0.522371 0.606022 0.928410 -0.151548
C17   C     C_R   0.483216 0.391567 0.928550 0.219255
C18   C     C_3   0.366429 0.315070 0.922333 -0.507154
C19   C     C_3   0.372570 0.311207 0.075441 -0.479382
C20   C     C_R   0.497801 0.739903 0.498764 0.873197
C21   C     C_R   0.742174 0.506866 0.501835 0.874546
C22   C     C_3   0.042090 0.416697 0.595222 -0.179894
C23   C     C_3   0.948894 0.387478 0.476864 -0.223217
C24   C     C_3   0.876915 0.509004 0.504640 -0.012923
C25   C     C_3   0.966993 0.538030 0.624224 -0.143745
C26   C     C_3   0.049023 0.610844 0.524960 -0.229003
H1    H     H_    0.902170 0.296123 0.460236 0.133107
H2    H     H_    0.697840 0.876035 0.758533 0.195155
H3    H     H_    0.536580 0.111079 0.786578 0.206298
H4    H     H_    0.710661 0.099813 0.756708 0.197585
H5    H     H_    0.536578 0.692525 0.125754 0.178694
H6    H     H_    0.539806 0.691820 0.875009 0.146841
H7    H     H_    0.283120 0.368576 0.879657 0.219523
H8    H     H_    0.380836 0.221893 0.876554 0.187175
H9    H     H_    0.293123 0.361009 0.123229 0.244755
H10   H     H_    0.395711 0.216663 0.116515 0.191596
H11   H     H_    0.080390 0.347235 0.670439 0.126481
H12   H     H_    0.937523 0.571555 0.724860 0.133620
H13   H     H_    0.097127 0.699269 0.551376 0.116695
H14   H     H_    0.377250 0.124654 0.323394 0.160357
H15   H     H_    0.522260 0.889600 0.784146 0.200133
N1    N     N_R   0.499140 0.499140 0.142800 -0.110711
N2    N     N_R   0.499140 0.499180 0.857150 -0.104961
O1    O     O_R   0.500020 0.316790 0.614690 -0.622470
O2    O     O_R   0.500000 0.316760 0.385350 -0.622374
O3    O     O_R   0.313960 0.499990 0.614650 -0.615694
O4    O     O_R   0.313940 0.499950 0.385310 -0.622381
O5    O     O_R   0.500000 0.683240 0.614650 -0.627667
O6    O     O_R   0.499980 0.683210 0.385310 -0.612711
O7    O     O_R   0.686060 0.500050 0.614690 -0.623379
O8    O     O_R   0.686040 0.500010 0.385350 -0.623393
Zn1   Zn    Zn3+2 0.500010 0.500020 0.653130 0.935296
Zn2   Zn    Zn3+2 0.499990 0.499980 0.346870 0.949297
C27   C     C_R   0.903638 0.685303 0.311942 0.085901
C28   C     C_R   0.926560 0.811978 0.341966 -0.163201
C29   C     C_R   0.884655 0.907014 0.252855 -0.124994
C30   C     C_R   0.820451 0.877214 0.132160 -0.106421
C31   C     C_R   0.795217 0.752560 0.102326 -0.178812
C32   C     C_R   0.832417 0.657427 0.193805 -0.127041
H16   H     H_    0.977091 0.838748 0.433682 0.116542
H17   H     H_    0.903300 0.003785 0.276825 0.130926
H18   H     H_    0.790053 0.950618 0.061881 0.127784
H19   H     H_    0.747029 0.729819 0.007798 0.123656
H20   H     H_    0.809164 0.561706 0.169864 0.151691
C33   C     C_R   0.060032 0.384312 0.249838 0.133514
C34   C     C_R   0.096888 0.257406 0.265119 -0.185207
C35   C     C_R   0.101656 0.178748 0.152734 -0.158177
C36   C     C_R   0.071860 0.226095 0.023415 -0.096385
C37   C     C_R   0.040860 0.352819 0.006204 -0.155442
C38   C     C_R   0.036544 0.431817 0.118350 -0.185068
H21   H     H_    0.117792 0.218101 0.364812 0.121378
H22   H     H_    0.127848 0.081034 0.166083 0.152223
H23   H     H_    0.075310 0.165281 0.936354 0.121338
H24   H     H_    0.020296 0.390189 0.905796 0.128308
H25   H     H_    0.014290 0.528913 0.100544 0.121241
C39   C     C_R   0.362863 0.884896 0.272353 0.139248
C40   C     C_R   0.387071 0.922131 0.138643 -0.194799
C41   C     C_R   0.318772 0.870964 0.029422 -0.175968
C42   C     C_R   0.227573 0.780717 0.052432 -0.118103
C43   C     C_R   0.203117 0.743754 0.184763 -0.094352
C44   C     C_R   0.267838 0.797626 0.294413 -0.099225
H26   H     H_    0.459702 0.989776 0.118943 0.136277
H27   H     H_    0.337490 0.900207 0.927010 0.130458
H28   H     H_    0.176152 0.739238 0.967944 0.128495
H29   H     H_    0.134249 0.673223 0.202937 0.136010
H30   H     H_    0.245820 0.769727 0.396255 0.094219

loop_
_geom_bond_atom_site_label_1
_geom_bond_atom_site_label_2
_ccdc_geom_bond_type
C28   C29   A    
C3    C23   S    
C7    C8    A    
C40   C41   A    
C32   H20   S    
C20   O6    A    
C11   H2    S    
C13   H3    S    
C18   C19   S    
C19   H10   S    
N1    Zn2   S    
C5    C6    A    
N2    Zn1   S    
C33   C38   A    
O3    Zn1   S    
C8    C39   S    
C29   C30   A    
C35   H22   S    
C9    C20   S    
C41   H27   S    
C8    C9    A    
C22   C25   S    
O7    Zn1   S    
C23   C24   S    
C23   H1    S    
C4    C12   S    
C9    C10   A    
C5    C13   S    
C44   H30   S    
O4    Zn2   S    
O1    Zn1   S    
C34   C35   A    
O2    Zn2   S    
C28   H16   S    
C14   C17   A    
C3    C33   S    
C12   O4    A    
C21   O7    A    
C25   C26   S    
C27   C32   A    
C35   C36   A    
C13   H4    S    
C30   H18   S    
C24   C25   S    
C12   O3    A    
C2    C27   S    
C41   C42   A    
C36   C37   A    
C36   H23   S    
C22   H11   S    
C1    C6    S    
O8    Zn2   S    
C17   N2    A    
C43   H29   S    
C25   H12   S    
C4    C22   S    
C1    O1    A    
C34   H21   S    
C7    H14   S    
C17   C18   S    
C37   H24   S    
C2    C26   S    
C39   C40   A    
C18   H8    S    
C16   N2    A    
C20   O5    A    
C2    C24   S    
C3    C4    S    
C21   O8    A    
C31   H19   S    
C27   C28   A    
C22   C23   S    
C14   C19   S    
C15   N1    A    
C43   C44   A    
C39   C44   A    
C4    C26   S    
C15   H5    S    
C6    C7    A    
C16   H6    S    
C14   N1    A    
C2    C3    S    
C31   C32   A    
C5    C10   A    
C19   H9    S    
C11   C13   S    
C1    O2    A    
C30   C31   A    
C42   H28   S    
C40   H26   S    
O6    Zn2   S    
C11   H15   S    
C37   C38   A    
C26   H13   S    
C18   H7    S    
C10   C11   S    
C42   C43   A    
O5    Zn1   S    
C33   C34   A    
C21   C24   S    
C38   H25   S    
C29   H17   S    
C15   C16   A    
