data_mof_unit_54108.cif
_audit_creation_date              2012-12-11T19:09:23-0500
_audit_creation_method            fapswitch 2.2
_symmetry_space_group_name_H-M    P1
_symmetry_Int_Tables_number       1
_space_group_crystal_system       triclinic
_cell_length_a                    8.299638
_cell_length_b                    15.221914
_cell_length_c                    27.016221
_cell_angle_alpha                 97.474977
_cell_angle_beta                  93.966407
_cell_angle_gamma                 80.373089
_cell_volume                      3332.54198559

loop_
_atom_site_label
_atom_site_type_symbol
_atom_type_description
_atom_site_fract_x
_atom_site_fract_y
_atom_site_fract_z
_atom_type_partial_charge
Ba1   Ba    Ba6+2 0.860050 0.456430 0.522540 1.740062
Ba2   Ba    Ba6+2 0.329780 0.543490 0.477450 1.693184
C1    C     C_3   0.637266 0.146925 0.657434 -0.310572
C2    C     C_3   0.634853 0.235091 0.636837 0.360558
C3    C     C_3   0.532851 0.693406 0.634741 0.260420
C4    C     C_3   0.598263 0.723716 0.687309 -0.228702
C5    C     C_3   0.021058 0.725837 0.341618 0.319811
C6    C     C_3   0.021272 0.746007 0.288015 -0.342453
C7    C     C_3   0.474848 0.779315 0.361535 0.343129
C8    C     C_3   0.412603 0.868308 0.341492 -0.341271
C9    C     C_R   0.036936 0.438960 0.179786 0.577740
C10   C     C_R   0.877667 0.584535 0.175345 0.600726
C11   C     C_2   0.744207 0.555142 0.271411 -0.123248
C12   C     C_3   0.132913 0.204636 0.651829 0.830543
C13   C     C_3   0.726253 0.577742 0.327095 -0.009479
C14   C     C_1   0.978112 0.474933 0.339662 -0.032340
C15   C     C_2   0.020433 0.479740 0.293417 -0.141962
C16   C     C_2   0.894092 0.516330 0.254810 0.206702
C17   C     C_R   0.029973 0.509747 0.103445 -0.074746
C18   C     C_R   0.099598 0.439901 0.131947 -0.072065
C19   C     C_R   0.226050 0.373014 0.110940 -0.034726
C20   C     C_R   0.918507 0.581981 0.125341 -0.086238
C21   C     C_2   0.829607 0.507284 0.354276 -0.187587
C22   C     C_2   0.340833 0.475312 0.644297 -0.260401
C23   C     C_3   0.081669 0.146792 0.688945 -0.297615
C24   C     C_R   0.251841 0.448245 0.984098 0.041974
C25   C     C_R   0.009961 0.560905 0.970625 -0.026526
C26   C     C_R   0.150390 0.503615 0.952169 -0.003917
C27   C     C_R   0.401691 0.400805 0.966144 -0.106925
C28   C     C_R   0.447892 0.407155 0.918208 -0.088959
C29   C     C_R   0.342713 0.457029 0.885339 -0.027894
C30   C     C_R   0.189992 0.501436 0.901555 -0.098202
C31   C     C_R   0.077860 0.543315 0.867139 -0.078410
C32   C     C_R   0.114228 0.526261 0.815701 0.668105
C33   C     C_R   0.390097 0.466680 0.837282 0.581775
C34   C     C_3   0.220708 0.267674 0.337260 0.244125
C35   C     C_2   0.458386 0.458277 0.728462 -0.082354
C36   C     C_3   0.495176 0.473831 0.676638 -0.066922
C37   C     C_1   0.212887 0.531265 0.662158 -0.013779
C38   C     C_2   0.200709 0.556179 0.712110 -0.111481
C39   C     C_2   0.317382 0.503998 0.748731 0.169086
C40   C     C_R   0.199928 0.442908 0.032782 0.017809
C41   C     C_R   0.072380 0.508268 0.053016 -0.008287
C42   C     C_R   0.989409 0.573840 0.023338 -0.048413
C43   C     C_R   0.273180 0.375598 0.062157 -0.083815
C44   C     C_R   0.857277 0.653580 0.097855 -0.117602
C45   C     C_3   0.080000 0.235896 0.304202 -0.374184
C46   C     C_R   0.893571 0.600774 0.935569 0.375244
C47   C     C_R   0.929304 0.594960 0.884748 -0.111954
C48   C     C_R   0.896550 0.651890 0.048319 0.442815
C49   C     C_R   0.370315 0.175448 0.539519 -0.024119
C50   C     C_R   0.582471 0.210321 0.491122 0.025048
C51   C     C_R   0.756257 0.769785 0.480697 -0.367955
C52   C     C_R   0.842557 0.826915 0.460425 -0.059398
C53   C     C_R   0.777978 0.918650 0.461245 0.365811
C54   C     C_R   0.637540 0.957041 0.490024 -0.005896
C55   C     C_R   0.554305 0.895688 0.510346 -0.095000
C56   C     C_3   0.998079 0.745176 0.589286 0.220413
C57   C     C_R   0.577331 0.052491 0.501019 -0.000947
C58   C     C_R   0.439965 0.082362 0.532153 -0.060517
C59   C     C_R   0.379885 0.018379 0.555894 0.397050
C60   C     C_R   0.419956 0.928285 0.539093 -0.058984
C61   C     C_R   0.650197 0.119875 0.483716 -0.108175
C62   C     C_R   0.444362 0.237653 0.518941 -0.256028
C63   C     C_R   0.613526 0.802529 0.505506 0.005575
C64   C     C_3   0.040088 0.838324 0.609899 -0.176593
C65   C     C_3   0.689768 0.333295 0.369199 0.279223
C66   C     C_3   0.662520 0.313628 0.312778 -0.346246
H1    H     H_    0.703260 0.220726 0.601951 0.079900
H2    H     H_    0.991632 0.294682 0.294550 0.103344
H3    H     H_    0.125540 0.197792 0.268630 0.154339
H4    H     H_    0.017231 0.192459 0.323845 0.107433
H5    H     H_    0.866482 0.752549 0.578054 -0.005931
H6    H     H_    0.073822 0.716545 0.557142 0.037997
H7    H     H_    0.175163 0.829652 0.615528 -0.014885
H8    H     H_    0.820554 0.338390 0.377798 0.009903
H9    H     H_    0.608417 0.396879 0.381566 0.058877
H10   H     H_    0.763329 0.115382 0.666902 0.146218
H11   H     H_    0.723959 0.245039 0.299304 0.156826
H12   H     H_    0.711098 0.363267 0.293742 0.055174
H13   H     H_    0.530622 0.318854 0.302360 0.127762
H14   H     H_    0.504832 0.263681 0.628514 -0.120191
H15   H     H_    0.586642 0.100270 0.628198 0.098777
H16   H     H_    0.402043 0.685871 0.635429 -0.044729
H17   H     H_    0.606360 0.628113 0.620797 0.048881
H18   H     H_    0.528442 0.790006 0.701499 0.090899
H19   H     H_    0.728257 0.731697 0.685591 0.165486
H20   H     H_    0.563640 0.157602 0.691110 0.092461
H21   H     H_    0.177193 0.137074 0.719466 0.020369
H22   H     H_    0.109208 0.663386 0.345861 0.088540
H23   H     H_    0.895845 0.715866 0.349013 -0.035278
H24   H     H_    0.137698 0.767902 0.281014 0.152240
H25   H     H_    0.009562 0.684510 0.262262 0.115706
H26   H     H_    0.917729 0.799712 0.280399 0.123398
H27   H     H_    0.610916 0.769564 0.363522 -0.059913
H28   H     H_    0.430267 0.783389 0.399743 0.082612
H29   H     H_    0.448189 0.924087 0.368376 0.054082
H30   H     H_    0.277311 0.879020 0.336512 0.160729
H31   H     H_    0.465923 0.869150 0.305005 0.126013
H32   H     H_    0.146752 0.458677 0.283630 0.122146
H33   H     H_    0.543123 0.409112 0.746440 0.159618
H34   H     H_    0.566469 0.371994 0.906727 0.119757
H35   H     H_    0.489549 0.361963 0.989375 0.075522
H36   H     H_    0.367613 0.323053 0.047350 0.116367
H37   H     H_    0.643918 0.578765 0.246085 0.129478
H38   H     H_    0.781318 0.713071 0.115103 0.150087
H39   H     H_    0.268886 0.191842 0.650432 -0.102645
H40   H     H_    0.788106 0.490974 0.388441 0.087405
H41   H     H_    0.323184 0.416925 0.618083 0.065104
H42   H     H_    0.388157 0.307492 0.521962 0.068589
H43   H     H_    0.760093 0.106432 0.463934 0.161247
H44   H     H_    0.966850 0.180350 0.706411 0.129485
H45   H     H_    0.354700 0.884179 0.554954 0.095599
H46   H     H_    0.062767 0.079724 0.670154 0.125066
H47   H     H_    0.274464 0.314485 0.317508 0.030524
N1    N     N_R   0.934472 0.512797 0.202302 -0.412148
N2    N     N_R   0.274667 0.498807 0.800978 -0.419574
O1    O     O_2   0.906490 0.548660 0.619040 -0.450448
O2    O     O_3   0.652170 0.262966 0.392184 -0.631858
O3    O     O_3   0.060808 0.179044 0.604592 -0.541948
O4    O     O_2   0.283210 0.451320 0.380930 -0.473818
O5    O     O_3   0.051220 0.451340 0.441130 -0.434378
O6    O     O_3   0.503420 0.617610 0.414270 -0.433568
O7    O     O_3   0.164625 0.306613 0.384543 -0.640258
O8    O     O_3   0.617160 0.609950 0.527080 -0.479741
O9    O     O_3   0.088220 0.664410 0.439630 -0.482402
O10   O     O_2   0.186866 0.821476 0.465354 -0.490541
O11   O     O_3   0.068283 0.797963 0.373832 -0.587657
O12   O     O_3   0.138490 0.548590 0.558860 -0.492102
O13   O     O_3   0.572560 0.389970 0.472910 -0.482966
O14   O     O_2   0.345680 0.723560 0.528460 -0.485684
O15   O     O_3   0.547170 0.761107 0.605671 -0.630005
O16   O     O_2   0.404187 0.538570 0.325187 -0.510960
O17   O     O_3   0.415331 0.709550 0.329938 -0.598377
O18   O     O_2   0.068432 0.371181 0.200572 -0.623091
O19   O     O_2   0.534920 0.448024 0.828836 -0.608928
O20   O     O_2   0.792562 0.651626 0.194949 -0.615024
O21   O     O_2   0.001371 0.531230 0.784338 -0.545503
O22   O     O_3   0.686290 0.382320 0.585720 -0.493729
O23   O     O_2   0.833742 0.437415 0.671125 -0.374422
O24   O     O_3   0.026322 0.692394 0.628485 -0.672571
O25   O     O_3   0.709791 0.293497 0.672076 -0.585775
O26   O     O_2   0.844020 0.276410 0.471510 -0.438543
O27   O     O_3   0.101490 0.335510 0.560360 -0.458690
O28   O     O_2   0.058087 0.180387 0.510683 -0.441206
P1    P     P_3+3 0.071960 0.575810 0.612130 0.985422
P2    P     P_3+3 0.664360 0.290070 0.457280 1.006580
P3    P     P_3+3 0.154805 0.217767 0.557157 1.064048
P4    P     P_3+3 0.117760 0.424110 0.387870 1.009041
P5    P     P_3+3 0.047062 0.779704 0.435385 0.995611
P6    P     P_3+3 0.678275 0.398896 0.650696 1.048698
P7    P     P_3+3 0.532459 0.723956 0.541783 0.949162
P8    P     P_3+3 0.512700 0.607578 0.348930 0.977049
C67   C     C_2   0.968544 0.871836 0.660184 0.621422
H48   H     H_    0.049226 0.885058 0.692685 -0.034659
O29   O     O_2   0.820790 0.884468 0.664722 -0.576433
C68   C     C_2   0.990349 0.906270 0.573526 0.422853
H49   H     H_    0.050121 0.897683 0.538723 0.042721
O30   O     O_2   0.887366 0.972720 0.583036 -0.562616
C69   C     C_2   0.585711 0.658464 0.722897 0.413379
H50   H     H_    0.468685 0.655850 0.737321 0.037558
O31   O     O_2   0.706961 0.608508 0.736217 -0.506623
O32   O     O_3   0.075398 0.296119 0.666410 -0.623681
C70   C     C_3   0.161002 0.326836 0.710320 0.151739
H51   H     H_    0.293679 0.320446 0.704386 -0.029938
H52   H     H_    0.141170 0.292623 0.742718 0.029437
H53   H     H_    0.109643 0.397704 0.720315 0.149288
C71   C     C_2   0.323011 0.303964 0.140024 0.552995
H54   H     H_    0.342898 0.317311 0.180184 0.043425
O33   O     O_2   0.386071 0.231653 0.119082 -0.557959
O34   O     O_3   0.741410 0.644823 0.950115 -0.608809
C72   C     C_3   0.637737 0.580650 0.950578 0.166048
H55   H     H_    0.627481 0.541670 0.913131 0.054703
H56   H     H_    0.513615 0.616032 0.959966 0.086700
H57   H     H_    0.680575 0.534771 0.979339 0.027242
C73   C     C_2   0.813763 0.650864 0.852561 0.700792
H58   H     H_    0.682719 0.656084 0.855588 0.012372
O35   O     O_2   0.864061 0.695958 0.824612 -0.517499
C74   C     C_2   0.116387 0.647162 0.730792 0.593174
H59   H     H_    0.002092 0.675584 0.713301 0.069556
O36   O     O_2   0.171965 0.690201 0.767420 -0.570566
O37   O     O_3   0.852793 0.730338 0.026555 -0.591367
C75   C     C_3   0.990215 0.774416 0.029021 0.228114
H60   H     H_    0.090176 0.734234 0.006432 0.017582
H61   H     H_    0.035698 0.790314 0.068389 0.017258
H62   H     H_    0.953286 0.838853 0.013162 0.094781
O38   O     O_3   0.293977 0.042999 0.598899 -0.663246
C76   C     C_3   0.369647 0.995600 0.638778 0.098281
H63   H     H_    0.379726 0.043351 0.672893 0.052344
H64   H     H_    0.496471 0.959650 0.632531 0.114239
H65   H     H_    0.292536 0.947440 0.647138 0.050508
C77   C     C_2   0.819249 0.674211 0.478261 0.585963
H66   H     H_    0.883275 0.645218 0.509891 -0.007510
O39   O     O_2   0.801273 0.625886 0.439827 -0.609262
O40   O     O_3   0.859912 0.968265 0.435304 -0.646308
C78   C     C_3   0.784237 0.971742 0.387006 0.180065
H67   H     H_    0.660400 0.012968 0.388614 0.028122
H68   H     H_    0.776565 0.903635 0.367157 0.024843
H69   H     H_    0.858942 0.004435 0.364645 0.096756
C79   C     C_2   0.350433 0.188333 0.344814 0.528866
H70   H     H_    0.368752 0.162607 0.380790 -0.013031
O41   O     O_2   0.433970 0.150839 0.310374 -0.597749

loop_
_geom_bond_atom_site_label_1
_geom_bond_atom_site_label_2
_ccdc_geom_bond_type
C25   C46   A    
C66   H12   S    
C53   O40   S    
O34   C72   S    
C68   H49   S    
C17   C18   A    
C65   H9    S    
O27   P3    S    
C24   C26   A    
C22   C37   D    
Ba1   P1    S    
C55   C60   A    
C52   P5    S    
C51   C52   A    
O26   P2    D    
C3    C4    S    
C56   H6    S    
C35   C36   S    
C19   C71   S    
C11   C16   D    
C76   H65   S    
O16   P8    D    
C66   H13   S    
C70   H51   S    
C34   O7    S    
Ba1   O8    S    
Ba1   O12   S    
C75   H61   S    
O10   P5    D    
C2    O25   S    
C28   C29   A    
C10   N1    Am   
O17   P8    S    
C64   H7    S    
C31   C47   A    
C38   C74   S    
C10   C20   A    
C59   O38   S    
Ba2   O12   S    
C54   C55   A    
C27   H35   S    
C34   C45   S    
C76   H64   S    
Ba1   Ba2   S    
O22   P6    S    
C12   O32   S    
C8    H30   S    
Ba1   P2    S    
O37   C75   S    
C23   H44   S    
Ba1   O5    S    
C25   C42   A    
C56   C64   S    
C3    O15   S    
O32   C70   S    
C72   H56   S    
C79   H70   S    
C22   C36   S    
C73   H58   S    
C14   P4    S    
C6    H24   S    
C5    O11   S    
C51   C63   A    
C7    C8    S    
C7    H27   S    
C67   O29   D    
C59   C60   A    
Ba1   O22   S    
C72   H57   S    
C3    H17   S    
C7    O17   S    
Ba2   P4    S    
C13   C21   S    
O13   P2    S    
C57   C58   A    
C68   O30   D    
C35   C39   D    
O14   P7    D    
C48   O37   S    
C78   H69   S    
C2    H1    S    
C15   H32   S    
C17   C41   A    
Ba2   O14   S    
C19   C43   A    
Ba2   O5    S    
C31   C32   A    
C1    H10   S    
C9    C18   A    
C11   H37   S    
C49   C62   A    
C65   C66   S    
O5    P4    S    
O1    P1    D    
C17   C20   A    
C6    H26   S    
C60   H45   S    
C78   H68   S    
Ba1   O13   S    
C50   C62   A    
C75   H62   S    
C16   N1    S    
C37   C38   D    
C64   C67   S    
C3    H16   S    
C14   C15   D    
Ba2   O6    S    
C5    H22   S    
C32   O21   D    
C4    H19   S    
O40   C78   S    
C58   C59   A    
C40   C43   A    
C69   O31   D    
O25   P6    S    
C8    H29   S    
C75   H60   S    
C45   H2    S    
C27   C28   A    
Ba1   O26   S    
C43   H36   S    
C9    O18   D    
C46   O34   S    
C62   H42   S    
C29   C30   A    
C7    H28   S    
C26   C30   A    
C5    H23   S    
C28   H34   S    
C53   C54   A    
C15   C16   S    
C67   H48   S    
C9    N1    Am   
O23   P6    D    
C45   H3    S    
O12   P1    S    
O24   P1    S    
C24   C27   A    
Ba2   O9    S    
O11   P5    S    
C38   C39   S    
C20   C44   A    
O3    P3    S    
C14   C21   D    
C12   O3    S    
C11   C13   S    
C41   C42   A    
C1    H15   S    
O15   P7    S    
C29   C33   A    
C33   N2    Am   
C40   C41   A    
C1    C2    S    
C12   H39   S    
C36   P6    S    
O28   P3    D    
C72   H55   S    
C24   C40   A    
O6    P8    S    
Ba2   O4    S    
C42   C48   A    
C52   C53   A    
C71   H54   S    
O8    P7    S    
C1    H20   S    
C57   C61   A    
C70   H53   S    
C22   H41   S    
C34   C79   S    
C55   C63   A    
C78   H67   S    
C50   C61   A    
C33   O19   D    
C4    C69   S    
C49   C58   A    
C50   P2    S    
C44   C48   A    
C23   H21   S    
C4    H18   S    
C54   C57   A    
C30   C31   A    
C63   P7    S    
C70   H52   S    
O38   C76   S    
Ba1   O27   S    
C23   H46   S    
C77   H66   S    
C35   H33   S    
O9    P5    S    
C56   O24   S    
C69   H50   S    
C65   O2    S    
C49   P3    S    
C32   N2    Am   
C46   C47   A    
C21   H40   S    
C44   H38   S    
C37   P1    S    
C71   O33   D    
Ba2   O13   S    
O4    P4    D    
Ba1   O1    S    
C64   C68   S    
C12   C23   S    
C61   H43   S    
C8    H31   S    
C51   C77   S    
C45   H4    S    
C13   P8    S    
C5    C6    S    
C74   H59   S    
Ba2   O8    S    
C2    H14   S    
C18   C19   A    
C66   H11   S    
C79   O41   D    
C6    H25   S    
C25   C26   A    
C10   O20   D    
C76   H63   S    
C65   H8    S    
C39   N2    S    
C34   H47   S    
O2    P2    S    
C47   C73   S    
C56   H5    S    
O7    P4    S    
C73   O35   D    
C74   O36   D    
C77   O39   D    
