data_mof_unit_53933.cif
_audit_creation_date              2012-12-10T19:34:58-0500
_audit_creation_method            fapswitch 2.2
_symmetry_space_group_name_H-M    P1
_symmetry_Int_Tables_number       1
_space_group_crystal_system       triclinic
_cell_length_a                    10.773399
_cell_length_b                    15.827068
_cell_length_c                    17.107454
_cell_angle_alpha                 96.202816
_cell_angle_beta                  90.780377
_cell_angle_gamma                 92.100209
_cell_volume                      2897.53559985

loop_
_atom_site_label
_atom_site_type_symbol
_atom_type_description
_atom_site_fract_x
_atom_site_fract_y
_atom_site_fract_z
_atom_type_partial_charge
C1    C     C_R   0.499454 0.489683 0.348596 0.771640
C2    C     C_R   0.500546 0.510317 0.651404 0.771639
C3    C     C_R   0.500120 0.484209 0.262595 -0.036913
C4    C     C_R   0.499881 0.515791 0.737405 -0.036904
C5    C     C_R   0.517142 0.558272 0.225236 -0.234676
C6    C     C_R   0.482879 0.441726 0.774764 -0.234684
C7    C     C_R   0.516991 0.553591 0.143678 -0.165676
C8    C     C_R   0.483031 0.446407 0.856322 -0.165681
C9    C     C_R   0.499396 0.474242 0.097942 0.379237
C10   C     C_R   0.500607 0.525757 0.902058 0.379239
C11   C     C_R   0.483806 0.400482 0.135405 -0.194575
C12   C     C_R   0.516178 0.599519 0.864595 -0.194574
C13   C     C_R   0.483932 0.405174 0.217139 -0.242157
C14   C     C_R   0.516051 0.594827 0.782861 -0.242158
C15   C     C_R   0.434431 0.750708 0.464136 -0.029950
C16   C     C_R   0.565569 0.249292 0.535864 -0.029950
C17   C     C_R   0.430501 0.840113 0.468705 0.134734
C18   C     C_R   0.569499 0.159887 0.531295 0.134734
C19   C     C_R   0.515668 0.891092 0.519684 0.290095
C20   C     C_R   0.484332 0.108908 0.480316 0.290095
C21   C     C_R   0.597453 0.848802 0.566169 -0.192005
C22   C     C_R   0.402547 0.151198 0.433831 -0.192005
C23   C     C_R   0.262788 0.500337 0.498989 0.802832
C24   C     C_R   0.737212 0.499663 0.501011 0.802833
C25   C     C_R   0.595574 0.759383 0.560056 -0.006218
C26   C     C_R   0.404427 0.240617 0.439944 -0.006216
C27   C     C_R   0.122571 0.466103 0.354937 -0.231737
C28   C     C_R   0.877429 0.533896 0.645062 -0.231737
C29   C     C_R   0.054694 0.448521 0.284728 -0.140796
C30   C     C_R   0.945306 0.551479 0.715272 -0.140799
C31   C     C_R   0.924980 0.446960 0.284963 0.312155
C32   C     C_R   0.075020 0.553042 0.715036 0.312151
C33   C     C_R   0.864034 0.462585 0.356518 -0.223681
C34   C     C_R   0.135966 0.537417 0.643481 -0.223680
C35   C     C_R   0.931430 0.481096 0.428387 0.036407
C36   C     C_R   0.068570 0.518904 0.571613 0.036406
C37   C     C_R   0.062013 0.482605 0.427639 0.064073
C38   C     C_R   0.937987 0.517395 0.572361 0.064073
C39   C     C_R   0.870905 0.498799 0.500689 -0.147894
C40   C     C_R   0.129095 0.501201 0.499311 -0.147894
Cu1   Cu    Cu3+1 0.493970 0.415220 0.496180 0.939005
Cu2   Cu    Cu3+1 0.506030 0.584780 0.503820 0.939004
H1    H     H_    0.657821 0.727303 0.596278 0.143074
H2    H     H_    0.342180 0.272697 0.403721 0.143072
H3    H     H_    0.222782 0.466757 0.351511 0.137098
H4    H     H_    0.777217 0.533240 0.648489 0.137099
H5    H     H_    0.103471 0.435361 0.230085 0.149754
H6    H     H_    0.896529 0.564638 0.769914 0.149759
H7    H     H_    0.763616 0.460867 0.354980 0.128918
H8    H     H_    0.236383 0.539136 0.645020 0.128921
H9    H     H_    0.469389 0.380017 0.741054 0.163662
H10   H     H_    0.530648 0.619979 0.258946 0.163663
H11   H     H_    0.469610 0.387937 0.883156 0.154883
H12   H     H_    0.530428 0.612059 0.116844 0.154882
H13   H     H_    0.470702 0.339156 0.100973 0.145758
H14   H     H_    0.529267 0.660846 0.899027 0.145757
H15   H     H_    0.470853 0.347042 0.244612 0.166633
H16   H     H_    0.529115 0.652960 0.755388 0.166633
H17   H     H_    0.630513 0.288323 0.574284 0.139664
H18   H     H_    0.369487 0.711677 0.425716 0.139665
N1    N     N_2   0.496418 0.465609 0.014613 -0.270694
N2    N     N_2   0.503584 0.534390 0.985388 -0.270693
N3    N     N_R   0.515100 0.712130 0.509560 -0.181185
N4    N     N_R   0.484900 0.287870 0.490440 -0.181184
N5    N     N_2   0.519087 0.982820 0.528946 -0.184181
N6    N     N_2   0.480913 0.017180 0.471053 -0.184180
O1    O     O_R   0.494360 0.420530 0.382500 -0.589167
O2    O     O_R   0.505640 0.579470 0.617500 -0.589169
O3    O     O_R   0.504550 0.563720 0.388950 -0.584443
O4    O     O_R   0.495450 0.436280 0.611050 -0.584443
O5    O     O_R   0.314560 0.428400 0.496770 -0.575394
O6    O     O_R   0.685440 0.571600 0.503230 -0.575395
O7    O     O_R   0.324750 0.571590 0.503220 -0.580796
O8    O     O_R   0.675250 0.428410 0.496780 -0.580795
N7    N     N_2   0.144579 0.572811 0.786448 -0.433422
H19   H     H_    0.235179 0.593439 0.779029 0.259739
C41   C     C_3   0.135461 0.508811 0.840604 -0.668137
H20   H     H_    0.190093 0.530797 0.895002 0.236967
H21   H     H_    0.173473 0.448317 0.813620 0.227715
H22   H     H_    0.037375 0.497591 0.857120 0.228790
N8    N     N_2   0.855419 0.427193 0.213551 -0.433417
H23   H     H_    0.764813 0.406577 0.220971 0.259740
C42   C     C_3   0.864561 0.491184 0.159387 -0.668140
H24   H     H_    0.809914 0.469203 0.104994 0.236964
H25   H     H_    0.962650 0.502378 0.142862 0.228788
H26   H     H_    0.826583 0.551690 0.186367 0.227712
N9    N     N_2   0.662500 0.122981 0.575119 -0.401498
H27   H     H_    0.686081 0.158096 0.627934 0.246423
C43   C     C_3   0.770929 0.099058 0.530153 -0.628074
H28   H     H_    0.818674 0.156371 0.510555 0.209778
H29   H     H_    0.744431 0.053620 0.477997 0.243206
H30   H     H_    0.836530 0.067694 0.567340 0.235302
N10   N     N_2   0.337499 0.877019 0.424881 -0.401498
H31   H     H_    0.313918 0.841904 0.372067 0.246425
C44   C     C_3   0.229072 0.900942 0.469848 -0.628078
H32   H     H_    0.181327 0.843630 0.489446 0.209779
H33   H     H_    0.163471 0.932307 0.432660 0.235303
H34   H     H_    0.255570 0.946381 0.522004 0.243206
C45   C     C_1   0.683850 0.896331 0.620865 0.278527
N11   N     N_1   0.753126 0.934386 0.664821 -0.282799
C46   C     C_1   0.316151 0.103669 0.379135 0.278527
N12   N     N_1   0.246874 0.065613 0.335178 -0.282798

loop_
_geom_bond_atom_site_label_1
_geom_bond_atom_site_label_2
_ccdc_geom_bond_type
N9    H27   S    
Cu1   Cu2   S    
N10   H31   S    
C27   C29   A    
C15   H18   S    
C2    C4    S    
C44   H32   S    
C25   H1    S    
C32   N7    S    
N8    H23   S    
C44   H34   S    
C26   H2    S    
Cu1   O1    S    
C41   H20   S    
C28   H4    S    
C46   N12   T    
C22   C46   S    
C29   H5    S    
C9    N1    S    
C30   H6    S    
C35   C37   A    
C37   C40   A    
C2    O2    A    
C38   C39   A    
C21   C45   S    
C13   H15   S    
C33   H7    S    
C23   C40   S    
C24   C39   S    
C7    C9    A    
C25   N3    A    
C26   N4    A    
C33   C35   A    
Cu1   O8    S    
C42   H24   S    
C31   C33   A    
C5    H10   S    
C6    H9    S    
C43   H29   S    
C18   C20   A    
C3    C13   A    
Cu1   O5    S    
C27   H3    S    
N10   C44   S    
Cu2   O2    S    
C10   N2    S    
C23   O7    A    
N8    C42   S    
C41   H21   S    
C14   H16   S    
C34   H8    S    
C23   O5    A    
C36   C40   A    
C4    C6    A    
C5    C7    A    
C6    C8    A    
Cu2   O3    S    
C1    O3    A    
C1    C3    S    
C16   H17   S    
C32   C34   A    
C35   C39   A    
N7    H19   S    
C9    C11   A    
C45   N11   T    
C28   C38   A    
Cu2   O6    S    
C7    H12   S    
C43   H30   S    
N7    C41   S    
C12   H14   S    
C10   C12   A    
C8    C10   A    
C42   H25   S    
C20   C22   A    
N9    C43   S    
C17   N10   S    
C11   H13   S    
C24   O6    A    
C41   H22   S    
C20   N6    S    
C15   C17   A    
C21   C25   A    
Cu2   O7    S    
C19   C21   A    
C12   C14   A    
C3    C5    A    
C8    H11   S    
C44   H33   S    
C1    O1    A    
C18   N9    S    
C31   N8    S    
C28   C30   A    
C29   C31   A    
C30   C32   A    
C11   C13   A    
C24   O8    A    
C27   C37   A    
C36   C38   A    
C17   C19   A    
C19   N5    S    
C34   C36   A    
C4    C14   A    
N1    N2    D    
C42   H26   S    
C16   C18   A    
N5    N6    D    
C22   C26   A    
C15   N3    A    
C16   N4    A    
Cu1   N4    S    
C43   H28   S    
C2    O4    A    
Cu2   N3    S    
Cu1   O4    S    
