data_mof_unit_54856.cif
_audit_creation_date              2012-12-11T14:08:45-0500
_audit_creation_method            fapswitch 2.2
_symmetry_space_group_name_H-M    P1
_symmetry_Int_Tables_number       1
_space_group_crystal_system       triclinic
_cell_length_a                    27.939865
_cell_length_b                    7.200569
_cell_length_c                    17.159491
_cell_angle_alpha                 90.000819
_cell_angle_beta                  102.095913
_cell_angle_gamma                 90.000323
_cell_volume                      3375.55157937

loop_
_atom_site_label
_atom_site_type_symbol
_atom_type_description
_atom_site_fract_x
_atom_site_fract_y
_atom_site_fract_z
_atom_type_partial_charge
O1    O     O_R   0.000700 0.436510 0.857920 -0.532386
O2    O     O_R   0.999300 0.563490 0.142080 -0.532458
O3    O     O_R   0.999300 0.936510 0.642080 -0.532388
O4    O     O_R   0.000700 0.063490 0.357920 -0.532459
O5    O     O_R   0.930080 0.766380 0.721890 -0.534493
O6    O     O_R   0.069920 0.233620 0.278110 -0.530049
O7    O     O_R   0.069920 0.266380 0.778110 -0.534494
O8    O     O_R   0.930080 0.733620 0.221890 -0.530051
C1    C     C_R   0.910751 0.597927 0.706588 0.708694
C2    C     C_R   0.089491 0.402820 0.285524 0.711633
C3    C     C_R   0.089249 0.097929 0.793412 0.708686
C4    C     C_R   0.910509 0.902818 0.214476 0.711629
O9    O     O_R   0.996180 0.766230 0.862310 -0.547102
O10   O     O_R   0.003820 0.233770 0.137690 -0.548138
O11   O     O_R   0.003820 0.266230 0.637690 -0.547101
O12   O     O_R   0.996180 0.733770 0.362310 -0.548136
O13   O     O_R   0.065870 0.936460 0.783500 -0.528921
O14   O     O_R   0.934130 0.063540 0.216500 -0.531616
O15   O     O_R   0.934130 0.436460 0.716500 -0.528924
O16   O     O_R   0.065870 0.563540 0.283500 -0.531618
C5    C     C_R   0.998520 0.596482 0.894484 0.750656
C6    C     C_R   0.001532 0.403529 0.105530 0.735156
C7    C     C_R   0.001480 0.096481 0.605517 0.750656
C8    C     C_R   0.998468 0.903530 0.394470 0.735164
O17   O     O_3   0.022790 0.603020 0.723980 -0.374255
O18   O     O_3   0.977210 0.396980 0.276020 -0.371285
O19   O     O_3   0.977210 0.103020 0.776020 -0.374255
O20   O     O_3   0.022790 0.896980 0.223980 -0.371286
V1    V     V_3+5 0.995770 0.877900 0.754830 1.440123
V2    V     V_3+5 0.004230 0.122100 0.245170 1.448032
V3    V     V_3+5 0.004230 0.377900 0.745170 1.440123
V4    V     V_3+5 0.995770 0.622100 0.254830 1.448033
C9    C     C_2   0.001635 0.082642 0.519502 -0.329535
C10   C     C_2   0.998175 0.917381 0.480433 -0.325394
C11   C     C_2   0.998365 0.582643 0.980499 -0.329532
C12   C     C_2   0.001825 0.417381 0.019566 -0.325389
H1    H     H_    0.004480 0.211321 0.487750 0.153959
H2    H     H_    0.995296 0.788705 0.512169 0.153727
H3    H     H_    0.995520 0.711322 0.012252 0.153955
H4    H     H_    0.004704 0.288704 0.987829 0.153724
C13   C     C_R   0.675272 0.791639 0.134543 0.639129
C14   C     C_R   0.314646 0.170656 0.005722 0.631499
C15   C     C_R   0.324725 0.291654 0.365451 0.639130
C16   C     C_R   0.685354 0.670653 0.494279 0.631473
O21   O     O_2   0.700595 0.651852 0.109716 -0.458395
O22   O     O_2   0.288432 0.317063 0.022520 -0.476719
O23   O     O_2   0.299401 0.151869 0.390276 -0.458393
O24   O     O_2   0.711570 0.817058 0.477484 -0.476714
N1    N     N_R   0.700442 0.936438 0.175097 -0.550966
N2    N     N_R   0.291911 0.040549 0.952866 -0.538856
N3    N     N_R   0.299557 0.436453 0.324898 -0.550969
N4    N     N_R   0.708089 0.540543 0.547133 -0.538857
C17   C     C_R   0.676623 0.081078 0.202079 0.701923
C18   C     C_R   0.316074 0.885939 0.935889 0.645613
C19   C     C_R   0.323377 0.581092 0.297918 0.701929
C20   C     C_R   0.683923 0.385936 0.564108 0.645647
C21   C     C_R   0.781091 0.818152 0.248716 0.039382
C22   C     C_R   0.228677 0.163740 0.839773 0.072476
C23   C     C_R   0.218908 0.318163 0.251279 0.039371
C24   C     C_R   0.771325 0.663795 0.660211 0.072476
C25   C     C_R   0.832512 0.808783 0.258388 0.324852
C26   C     C_R   0.179171 0.176349 0.798918 0.338348
C27   C     C_R   0.167487 0.308789 0.241609 0.324851
C28   C     C_R   0.820832 0.676410 0.701065 0.338349
C29   C     C_R   0.828770 0.032705 0.150976 -0.336008
C30   C     C_R   0.155365 0.991291 0.903381 -0.331465
C31   C     C_R   0.171230 0.532716 0.349022 -0.336006
C32   C     C_R   0.844631 0.491207 0.596638 -0.331461
C33   C     C_R   0.777483 0.043742 0.141471 0.412650
C34   C     C_R   0.204389 0.980579 0.944712 0.402129
C35   C     C_R   0.222516 0.543759 0.358525 0.412654
C36   C     C_R   0.795608 0.480494 0.555305 0.402140
C37   C     C_R   0.753450 0.934795 0.189584 0.283773
C38   C     C_R   0.241231 0.065977 0.912995 0.289548
C39   C     C_R   0.246549 0.434810 0.310411 0.283773
C40   C     C_R   0.758769 0.565966 0.587004 0.289526
C41   C     C_R   0.597820 0.942176 0.140727 -0.154947
C42   C     C_R   0.391215 0.995287 0.024261 -0.159397
C43   C     C_R   0.402179 0.442187 0.359270 -0.154947
C44   C     C_R   0.608784 0.495288 0.475737 -0.159399
C45   C     C_R   0.623581 0.788390 0.118145 -0.091542
C46   C     C_R   0.365067 0.153601 0.041482 -0.090402
C47   C     C_R   0.376417 0.288403 0.381850 -0.091545
C48   C     C_R   0.634934 0.653599 0.458518 -0.090400
C49   C     C_R   0.597247 0.634336 0.080706 0.414147
C50   C     C_R   0.390020 0.292850 0.092050 0.395316
C51   C     C_R   0.402749 0.134350 0.419288 0.414145
C52   C     C_R   0.609982 0.792847 0.407949 0.395317
C53   C     C_R   0.624433 0.089045 0.185387 -0.029117
C54   C     C_R   0.366290 0.857348 0.971556 -0.029980
C55   C     C_R   0.375567 0.589056 0.314610 -0.029116
C56   C     C_R   0.633707 0.357349 0.528441 -0.029984
C57   C     C_R   0.856554 0.913242 0.207430 -0.186895
C58   C     C_R   0.142134 0.088300 0.831096 -0.192196
C59   C     C_R   0.143446 0.413248 0.292568 -0.186893
C60   C     C_R   0.857866 0.588291 0.668905 -0.192213
H5    H     H_    0.847031 0.114968 0.113028 0.147175
H6    H     H_    0.127096 0.925245 0.928353 0.141471
H7    H     H_    0.152969 0.614980 0.386971 0.147177
H8    H     H_    0.872898 0.425105 0.571679 0.141482
C61   C     C_R   0.468221 0.817323 0.041705 0.022927
C62   C     C_R   0.519564 0.104492 0.138298 0.018173
C63   C     C_R   0.531776 0.317331 0.458291 0.022927
C64   C     C_R   0.480436 0.604499 0.361700 0.018173
C65   C     C_R   0.467665 0.118861 0.108339 0.003757
C66   C     C_R   0.519588 0.801014 0.073359 0.012503
C67   C     C_R   0.532335 0.618865 0.391659 0.003757
C68   C     C_R   0.480410 0.301024 0.426636 0.012503
C69   C     C_R   0.442395 0.976555 0.058665 0.061676
C70   C     C_R   0.545530 0.949330 0.117568 0.064437
C71   C     C_R   0.557603 0.476560 0.441333 0.061677
C72   C     C_R   0.454469 0.449340 0.382428 0.064438
C73   C     C_R   0.442447 0.682696 0.989577 -0.170306
C74   C     C_R   0.546583 0.240801 0.188329 -0.200388
C75   C     C_R   0.557549 0.182704 0.510418 -0.170305
C76   C     C_R   0.453418 0.740809 0.311671 -0.200391
C77   C     C_R   0.392754 0.698783 0.955136 0.184121
C78   C     C_R   0.597802 0.236634 0.211559 0.149099
C79   C     C_R   0.607242 0.198789 0.544860 0.184119
C80   C     C_R   0.402199 0.736643 0.288440 0.149095
O25   O     O_2   0.291144 0.762397 0.883762 -0.522541
O26   O     O_2   0.703767 0.216033 0.244284 -0.505137
O27   O     O_2   0.708852 0.262392 0.616233 -0.522549
O28   O     O_2   0.296234 0.716046 0.255714 -0.505133
C81   C     C_R   0.546110 0.640192 0.061565 -0.276536
C82   C     C_R   0.440361 0.274848 0.123839 -0.292017
C83   C     C_R   0.453886 0.140204 0.438430 -0.276535
C84   C     C_R   0.559642 0.774847 0.376159 -0.292016
H9    H     H_    0.460676 0.564269 0.971225 0.127741
H10   H     H_    0.528725 0.354688 0.210955 0.133888
H11   H     H_    0.539319 0.064278 0.528769 0.127742
H12   H     H_    0.471277 0.854696 0.289047 0.133889
H13   H     H_    0.528112 0.514126 0.038001 0.119013
H14   H     H_    0.457114 0.388767 0.159851 0.123697
H15   H     H_    0.471883 0.014138 0.461992 0.119013
H16   H     H_    0.542890 0.888765 0.340147 0.123696
O29   O     O_3   0.749761 0.157313 0.084517 -0.598556
H17   H     H_    0.771818 0.224914 0.055964 0.309957
O30   O     O_3   0.217490 0.885606 0.015925 -0.610019
H18   H     H_    0.187621 0.834035 0.030433 0.305089
O31   O     O_3   0.250239 0.657334 0.415478 -0.598555
H19   H     H_    0.228182 0.724935 0.444032 0.309959
O32   O     O_3   0.782505 0.385449 0.484108 -0.609997
H20   H     H_    0.812372 0.333825 0.469613 0.305088
O33   O     O_3   0.621867 0.477129 0.064157 -0.593176
H21   H     H_    0.598159 0.382152 0.038013 0.296100
O34   O     O_3   0.365042 0.448942 0.108583 -0.607535
H22   H     H_    0.388188 0.537286 0.140929 0.288994
O35   O     O_3   0.378128 0.977146 0.435837 -0.593175
H23   H     H_    0.401835 0.882170 0.461982 0.296100
O36   O     O_3   0.634962 0.948935 0.391417 -0.607531
H24   H     H_    0.611817 0.037279 0.359070 0.288994
O37   O     O_3   0.169045 0.270525 0.727029 -0.630081
H25   H     H_    0.135346 0.242503 0.698141 0.284897
O38   O     O_3   0.857920 0.699432 0.319525 -0.634962
H26   H     H_    0.891394 0.749424 0.337370 0.283488
O39   O     O_3   0.830959 0.770655 0.772939 -0.630078
H27   H     H_    0.864652 0.742602 0.801843 0.284904
O40   O     O_3   0.142078 0.199432 0.180473 -0.634969
H28   H     H_    0.108604 0.249422 0.162628 0.283487
C85   C     C_3   0.267584 0.250628 0.802351 -0.608850
H29   H     H_    0.262020 0.403261 0.798118 0.248417
H30   H     H_    0.305190 0.223412 0.836364 0.170598
H31   H     H_    0.265040 0.193315 0.741545 0.225585
C86   C     C_3   0.756757 0.705644 0.303943 -0.500225
H32   H     H_    0.762392 0.555356 0.294527 0.245611
H33   H     H_    0.773218 0.741241 0.366812 0.238298
H34   H     H_    0.716869 0.731518 0.295002 0.187121
C87   C     C_3   0.732420 0.750743 0.697621 -0.608836
H35   H     H_    0.737982 0.903382 0.701822 0.248449
H36   H     H_    0.694813 0.723487 0.663619 0.170594
H37   H     H_    0.734967 0.693508 0.758440 0.225574
C88   C     C_3   0.243241 0.205654 0.196051 -0.500205
H38   H     H_    0.237605 0.055366 0.205466 0.245612
H39   H     H_    0.226780 0.241249 0.133182 0.238309
H40   H     H_    0.283129 0.231529 0.204992 0.187124
C89   C     C_3   0.370086 0.542989 0.900522 -0.682589
H41   H     H_    0.396020 0.427310 0.897959 0.169990
H42   H     H_    0.339076 0.482417 0.922730 0.258852
H43   H     H_    0.357720 0.595561 0.838770 0.228583
C90   C     C_3   0.622070 0.393282 0.264392 -0.662777
H44   H     H_    0.595138 0.493419 0.279125 0.176915
H45   H     H_    0.643123 0.337328 0.321656 0.237295
H46   H     H_    0.646479 0.473900 0.233782 0.249947
C91   C     C_3   0.629908 0.042994 0.599472 -0.682613
H47   H     H_    0.603972 0.927320 0.602036 0.169997
H48   H     H_    0.660916 0.982417 0.577262 0.258849
H49   H     H_    0.642275 0.095569 0.661225 0.228586
C92   C     C_3   0.377933 0.893290 0.235607 -0.662773
H50   H     H_    0.404866 0.993424 0.220875 0.176916
H51   H     H_    0.356880 0.837332 0.178343 0.237297
H52   H     H_    0.353523 0.973909 0.266216 0.249948

loop_
_geom_bond_atom_site_label_1
_geom_bond_atom_site_label_2
_ccdc_geom_bond_type
O17   V3    S    
C36   O32   S    
C47   C51   A    
N1    C17   A    
C22   C26   A    
C86   H32   S    
C50   C82   A    
O13   V1    S    
C87   H35   S    
O1    C5    A    
O3    C7    A    
O34   H22   S    
C14   C46   A    
C27   O40   S    
C44   C48   A    
O15   V3    S    
C50   O34   S    
C51   C83   A    
C85   H29   S    
O4    V2    S    
C75   H11   S    
C90   H44   S    
C42   C54   A    
O7    C3    A    
C66   C81   A    
C41   C53   A    
C32   C60   A    
C73   H9    S    
C43   C72   A    
C24   C87   S    
C63   C71   A    
C56   C79   A    
C83   H15   S    
C67   C84   A    
C18   C54   A    
C17   O26   S    
N2    C38   S    
C66   C70   A    
O4    C8    A    
C25   C57   A    
C91   H48   S    
C31   C35   A    
O19   V1    S    
C61   C69   A    
O32   H20   S    
C27   C59   A    
O1    V3    S    
C15   C47   A    
C62   C65   A    
O2    V4    S    
C14   O22   S    
C21   C37   A    
O3    V1    S    
C19   C55   A    
C64   C76   A    
C49   C81   A    
C1    O15   A    
O39   H27   S    
C11   C12   D    
C2    O16   A    
C89   H42   S    
C28   O39   S    
C34   C38   A    
O36   H24   S    
C33   C37   A    
C63   C68   A    
O14   V2    S    
C43   C55   A    
O8    C4    A    
C30   C58   A    
C16   N4    A    
O11   C7    A    
C34   O30   S    
O12   C8    A    
C31   C59   A    
C87   H36   S    
C92   H50   S    
O31   H19   S    
O10   V2    S    
C25   O38   S    
C13   N1    A    
C85   H30   S    
C77   C89   S    
O33   H21   S    
O5    V1    S    
C88   H39   S    
C33   O29   S    
C35   O31   S    
O7    V3    S    
O8    V4    S    
C54   C77   A    
C12   H4    S    
C28   C60   A    
C90   H45   S    
C64   C72   A    
O18   V4    S    
C91   H49   S    
C7    C9    S    
C88   H38   S    
C24   C40   A    
C8    C10   S    
C76   C80   A    
C44   C56   A    
C92   H52   S    
C11   H3    S    
C79   C91   S    
O5    C1    A    
C63   C75   A    
C62   C74   A    
C42   C46   A    
O40   H28   S    
C76   H12   S    
C41   C45   A    
C32   C36   A    
C89   H43   S    
C13   C45   A    
C20   O27   S    
O9    C5    A    
C36   C40   A    
N2    C18   A    
C21   C25   A    
C1    C60   S    
C74   C78   A    
C14   N2    A    
C73   C77   A    
C65   C82   A    
C3    C58   S    
O6    V2    S    
C18   O25   S    
C86   H34   S    
C75   C79   A    
C26   C58   A    
C17   C53   A    
C52   O36   S    
N1    C37   S    
C4    C57   S    
C62   C70   A    
O9    V1    S    
C23   C39   A    
C85   H31   S    
C22   C38   A    
O16   V4    S    
C90   H46   S    
C81   H13   S    
C61   C66   A    
C65   C69   A    
C19   O28   S    
C3    O13   A    
C10   H2    S    
C67   C71   A    
C32   H8    S    
C48   C52   A    
N3    C39   S    
C23   C88   S    
O6    C2    A    
O30   H18   S    
C30   H6    S    
O11   V3    S    
C5    C11   S    
C31   H7    S    
O12   V4    S    
C6    C12   S    
O29   H17   S    
C74   H10   S    
C23   C27   A    
C26   O37   S    
C16   C48   A    
N4    C40   S    
C24   C28   A    
O2    C6    A    
C84   H16   S    
C29   H5    S    
C52   C84   A    
C46   C50   A    
O35   H23   S    
C35   C39   A    
O10   C6    A    
C91   H47   S    
C30   C34   A    
N4    C20   A    
C2    C59   S    
C15   N3    A    
C29   C33   A    
C49   O33   S    
C44   C71   A    
O20   V2    S    
C29   C57   A    
C88   H40   S    
C9    C10   D    
C42   C69   A    
N3    C19   A    
C68   C83   A    
C41   C70   A    
C61   C73   A    
C9    H1    S    
C43   C47   A    
C68   C72   A    
C20   C56   A    
C21   C86   S    
C53   C78   A    
C82   H14   S    
C86   H33   S    
C89   H41   S    
C51   O35   S    
C4    O14   A    
O38   H26   S    
C13   O21   S    
C55   C80   A    
C87   H37   S    
C78   C90   S    
C92   H51   S    
O37   H25   S    
C80   C92   S    
C22   C85   S    
C15   O23   S    
C64   C67   A    
C45   C49   A    
C16   O24   S    
