data_mof_unit_16750.cif
_audit_creation_date              2012-12-10T16:53:30-0500
_audit_creation_method            fapswitch 2.2
_symmetry_space_group_name_H-M    P1
_symmetry_Int_Tables_number       1
_space_group_crystal_system       triclinic
_cell_length_a                    7.844488
_cell_length_b                    8.648289
_cell_length_c                    13.594599
_cell_angle_alpha                 93.075165
_cell_angle_beta                  78.330022
_cell_angle_gamma                 93.646943
_cell_volume                      900.598143456

loop_
_atom_site_label
_atom_site_type_symbol
_atom_type_description
_atom_site_fract_x
_atom_site_fract_y
_atom_site_fract_z
_atom_type_partial_charge
C1    C     C_R   0.545727 0.794209 0.497642 0.859248
C2    C     C_1   0.567438 0.488394 0.119283 0.001649
C3    C     C_2   0.565758 0.958025 0.507475 0.180515
C4    C     C_2   0.437739 0.042013 0.487164 0.168743
C5    C     C_3   0.980918 0.324440 0.326692 0.187368
C6    C     C_3   0.100834 0.220905 0.252271 -0.405516
C7    C     C_3   0.037598 0.195442 0.153276 -0.947297
C8    C     C_3   0.035616 0.753010 0.629995 0.162542
C9    C     C_3   0.922045 0.836119 0.719439 -0.419530
C10   C     C_3   0.003156 0.996084 0.741699 -0.898467
C11   C     C_R   0.454975 0.205719 0.500587 0.858028
C12   C     C_R   0.470027 0.503095 0.687170 0.871018
C13   C     C_R   0.529938 0.496499 0.312839 0.873599
C14   C     C_1   0.551891 0.492140 0.207947 -0.188093
C15   C     C_1   0.447424 0.502824 0.792018 -0.160034
C16   C     C_2   0.572942 0.485867 0.015074 -0.154951
C17   C     C_2   0.424640 0.499464 0.984795 -0.158977
C18   C     C_1   0.431029 0.501703 0.880630 0.003479
H1    H     H_    0.301045 0.510687 0.037262 0.158213
H2    H     H_    0.126915 0.119623 0.100998 0.275645
H3    H     H_    0.035965 0.307875 0.117689 0.261087
H4    H     H_    0.064801 0.830281 0.565337 0.185525
H5    H     H_    0.156372 0.726802 0.654025 0.180297
H6    H     H_    0.790049 0.848921 0.704000 0.244284
H7    H     H_    0.906860 0.765296 0.786869 0.227814
H8    H     H_    0.134391 0.985491 0.758884 0.253674
H9    H     H_    0.919135 0.052709 0.807644 0.271108
H10   H     H_    0.015052 0.070278 0.676136 0.289814
H11   H     H_    0.696667 0.475300 0.962630 0.160170
H12   H     H_    0.791327 0.949282 0.547933 0.346280
H13   H     H_    0.228953 0.055309 0.429895 0.353285
H14   H     H_    0.974666 0.435633 0.290193 0.148131
H15   H     H_    0.851124 0.262466 0.345118 0.180066
H16   H     H_    0.235108 0.275491 0.237000 0.237521
H17   H     H_    0.104661 0.106712 0.285265 0.234431
H18   H     H_    0.904351 0.138642 0.166440 0.266154
N1    N     N_2   0.954190 0.457600 0.473930 0.181142
N2    N     N_2   0.045810 0.542400 0.526070 0.177602
O1    O     O_R   0.388300 0.738660 0.506400 -0.609210
O2    O     O_3   0.305199 0.974658 0.442435 -0.803094
O3    O     O_3   0.050229 0.352723 0.413612 -0.556310
O4    O     O_3   0.944774 0.617238 0.603896 -0.555939
O5    O     O_R   0.611700 0.261340 0.493600 -0.575895
O6    O     O_R   0.679920 0.711490 0.489690 -0.628559
O7    O     O_R   0.320080 0.288510 0.510310 -0.596406
O8    O     O_R   0.333200 0.515510 0.649910 -0.644637
O9    O     O_R   0.666800 0.484490 0.350090 -0.675615
O10   O     O_R   0.624820 0.488340 0.633200 -0.544758
O11   O     O_R   0.375180 0.511660 0.366800 -0.573733
O12   O     O_3   0.703480 0.026129 0.547533 -0.769806
Zn1   Zn    Zn3+2 0.305280 0.518140 0.511160 1.034512
Zn2   Zn    Zn3+2 0.694720 0.481860 0.488840 1.033882

loop_
_geom_bond_atom_site_label_1
_geom_bond_atom_site_label_2
_ccdc_geom_bond_type
C10   H9    S    
C15   C18   T    
C8    H4    S    
C9    H6    S    
C11   O5    A    
C6    C7    S    
C2    C16   S    
C7    H18   S    
C1    O6    A    
O1    Zn1   S    
C12   C15   S    
C12   O10   A    
C5    H14   S    
C10   H8    S    
C17   C18   S    
H12   O12   S    
C9    H7    S    
C13   C14   S    
C6    H17   S    
C4    C11   S    
O6    Zn2   S    
N1    N2    D    
C13   O11   A    
C17   H1    S    
C3    O12   S    
C8    O4    S    
N2    O4    S    
N1    O3    S    
C5    C6    S    
C2    C14   T    
O5    Zn2   S    
C11   O7    A    
O7    Zn1   S    
C3    C4    D    
C6    H16   S    
O10   Zn2   S    
C8    H5    S    
H13   O2    S    
C12   O8    A    
C7    H2    S    
C9    C10   S    
C10   H10   S    
C13   O9    A    
N1    Zn2   S    
C1    O1    A    
C8    C9    S    
O9    Zn2   S    
C5    O3    S    
N2    Zn1   S    
C1    C3    S    
C16   H11   S    
C7    H3    S    
O8    Zn1   S    
C4    O2    S    
C16   C17   D    
O11   Zn1   S    
C5    H15   S    
