data_mof_unit_52825.cif
_audit_creation_date              2012-12-11T15:30:33-0500
_audit_creation_method            fapswitch 2.2
_symmetry_space_group_name_H-M    P1
_symmetry_Int_Tables_number       1
_space_group_crystal_system       triclinic
_cell_length_a                    6.951965
_cell_length_b                    20.492228
_cell_length_c                    24.401984
_cell_angle_alpha                 89.776232
_cell_angle_beta                  90.012405
_cell_angle_gamma                 89.187851
_cell_volume                      3475.96132054

loop_
_atom_site_label
_atom_site_type_symbol
_atom_type_description
_atom_site_fract_x
_atom_site_fract_y
_atom_site_fract_z
_atom_type_partial_charge
O1    O     O_R   0.507310 0.423620 0.460450 -0.534548
O2    O     O_R   0.170760 0.556060 0.437190 -0.532658
O3    O     O_R   0.004040 0.576380 0.539550 -0.544174
C1    C     C_R   0.338994 0.576104 0.421283 0.719768
O4    O     O_R   0.177350 0.422870 0.454070 -0.539207
O5    O     O_R   0.010680 0.442240 0.556560 -0.537018
C2    C     C_R   0.347057 0.398836 0.443635 0.675818
O6    O     O_R   0.500670 0.557760 0.443440 -0.538397
O7    O     O_3   0.340380 0.506510 0.533610 -0.366878
V1    V     V_3+5 0.064130 0.498790 0.493770 1.435712
O8    O     O_R   0.681170 0.443940 0.562810 -0.531486
C3    C     C_R   0.850546 0.423889 0.578671 0.723463
O9    O     O_R   0.674570 0.577130 0.545930 -0.534394
C4    C     C_R   0.841557 0.600880 0.556939 0.682199
V2    V     V_3+5 0.564560 0.501210 0.506230 1.449797
O10   O     O_3   0.838170 0.493490 0.466390 -0.366917
C5    C     C_R   0.987223 0.835943 0.913640 -0.046071
C6    C     C_R   0.840140 0.658739 0.593253 -0.119690
C7    C     C_R   0.150920 0.731188 0.902162 -0.014210
C8    C     C_R   0.106398 0.785982 0.933745 -0.239599
C9    C     C_R   0.899353 0.828854 0.862255 -0.216882
C10   C     C_R   0.933350 0.772308 0.829649 0.062304
C11   C     C_R   0.076794 0.726937 0.848073 0.125872
C12   C     C_R   0.845945 0.763064 0.776698 -0.032177
C13   C     C_R   0.928137 0.715859 0.739787 0.082789
C14   C     C_R   0.092235 0.680532 0.756801 -0.109844
C15   C     C_R   0.157892 0.683171 0.810303 -0.137666
C16   C     C_R   0.682089 0.799511 0.758426 -0.026377
C17   C     C_R   0.641772 0.802588 0.702236 -0.168874
C18   C     C_R   0.729344 0.759213 0.665588 0.066695
C19   C     C_R   0.853338 0.709043 0.685275 0.078859
C20   C     C_R   0.681254 0.762727 0.609965 -0.151146
C21   C     C_R   0.741889 0.714265 0.574000 -0.156322
C22   C     C_R   0.891814 0.654421 0.649627 -0.070219
H1    H     H_    0.283837 0.653965 0.820274 0.171854
H2    H     H_    0.696344 0.717254 0.531564 0.112843
H3    H     H_    0.528554 0.835083 0.687422 0.166839
H4    H     H_    0.170868 0.791021 0.973992 0.102147
H5    H     H_    0.819840 0.870414 0.846335 0.119596
H6    H     H_    0.175944 0.651306 0.728557 0.130215
H7    H     H_    0.590766 0.802161 0.594463 0.122630
C23   C     C_3   0.817153 0.269148 0.809903 -0.317967
C24   C     C_3   0.132431 0.229588 0.770870 -0.400507
C25   C     C_3   0.111343 0.280274 0.723029 -0.173045
H8    H     H_    0.866875 0.365615 0.774279 0.113847
H9    H     H_    0.892317 0.292543 0.844817 0.120781
H10   H     H_    0.217782 0.185903 0.757917 0.145997
H11   H     H_    0.213054 0.252063 0.805227 0.152797
H12   H     H_    0.172326 0.327278 0.737284 0.154261
C26   C     C_1   0.862060 0.378535 0.624403 -0.123914
C27   C     C_3   0.932105 0.207669 0.791400 0.233541
C28   C     C_3   0.794497 0.319689 0.761993 0.064266
C29   C     C_3   0.894046 0.292787 0.708924 0.178777
C30   C     C_3   0.800685 0.226461 0.694505 -0.301889
C31   C     C_3   0.824140 0.176851 0.742489 -0.341284
C32   C     C_1   0.874528 0.340186 0.662409 -0.016716
C33   C     C_1   0.950607 0.160039 0.837560 -0.066143
C34   C     C_1   0.962453 0.121531 0.875511 -0.182881
H13   H     H_    0.679614 0.160475 0.755979 0.154285
H14   H     H_    0.904536 0.132927 0.727849 0.153293
H15   H     H_    0.645338 0.233813 0.685575 0.214356
H16   H     H_    0.673761 0.254030 0.825385 0.157403
H17   H     H_    0.866005 0.205785 0.656680 0.138282
C35   C     C_3   0.607759 0.720337 0.279564 0.012718
C36   C     C_3   0.305777 0.678250 0.236705 0.045221
C37   C     C_3   0.323301 0.728779 0.188304 0.020324
H18   H     H_    0.726871 0.751003 0.199919 0.117387
H19   H     H_    0.676247 0.673748 0.265818 0.132950
H20   H     H_    0.393266 0.633824 0.226769 0.140643
H21   H     H_    0.176552 0.744078 0.174966 0.122791
C38   C     C_1   0.474749 0.878206 0.124332 -0.188244
C39   C     C_3   0.389122 0.706915 0.290966 0.149445
C40   C     C_3   0.630556 0.771157 0.232173 -0.335934
C41   C     C_3   0.431743 0.791568 0.207808 0.091217
C42   C     C_3   0.314764 0.823379 0.256078 -0.159398
C43   C     C_3   0.283295 0.772708 0.303239 -0.340824
C44   C     C_1   0.458306 0.839516 0.161977 -0.071952
C45   C     C_1   0.364914 0.659682 0.337381 -0.005503
C46   C     C_1   0.349344 0.621434 0.375386 -0.186739
H22   H     H_    0.334452 0.793381 0.342551 0.145454
H23   H     H_    0.127764 0.763879 0.310056 0.200202
H24   H     H_    0.401991 0.863871 0.272923 0.153734
H25   H     H_    0.703936 0.815423 0.247463 0.201678
C47   C     C_R   0.467684 0.161464 0.089094 -0.042007
C48   C     C_R   0.356373 0.336838 0.412979 -0.124141
C49   C     C_R   0.495559 0.278726 0.093100 -0.154708
C50   C     C_R   0.497133 0.221176 0.063015 -0.169312
C51   C     C_R   0.437178 0.159532 0.146059 -0.208845
C52   C     C_R   0.437063 0.217663 0.178010 0.085903
C53   C     C_R   0.466582 0.277549 0.150035 0.136517
C54   C     C_R   0.410321 0.218605 0.236445 0.054118
C55   C     C_R   0.413137 0.279432 0.265577 0.062873
C56   C     C_R   0.442488 0.337243 0.235261 -0.185570
C57   C     C_R   0.468415 0.336105 0.178876 -0.195141
C58   C     C_R   0.381501 0.160798 0.266754 -0.172531
C59   C     C_R   0.356371 0.161945 0.323155 -0.178792
C60   C     C_R   0.358145 0.220530 0.352027 0.090111
C61   C     C_R   0.386488 0.280323 0.324046 0.089711
C62   C     C_R   0.330598 0.219184 0.408991 -0.128689
C63   C     C_R   0.328632 0.276703 0.439915 -0.040147
C64   C     C_R   0.385608 0.338348 0.355923 -0.203892
H26   H     H_    0.490929 0.381881 0.157540 0.129667
H27   H     H_    0.404602 0.385828 0.337806 0.100073
H28   H     H_    0.334650 0.116115 0.344482 0.135943
H29   H     H_    0.518627 0.324444 0.071766 0.121295
H30   H     H_    0.521965 0.223179 0.019207 0.106262
H31   H     H_    0.416640 0.111998 0.163925 0.097347
H32   H     H_    0.446909 0.384716 0.253868 0.124589
H33   H     H_    0.377484 0.113323 0.248128 0.130640
H34   H     H_    0.309432 0.172726 0.429395 0.159870
O11   O     O_R   0.323590 0.942280 0.056590 -0.538143
O12   O     O_R   0.647030 0.077140 0.045940 -0.537588
O13   O     O_R   0.813570 0.057750 0.943430 -0.535537
C65   C     C_R   0.477297 0.100991 0.056669 0.694865
O14   O     O_R   0.653510 0.943950 0.062820 -0.536276
O15   O     O_R   0.820100 0.923600 0.960440 -0.540863
C66   C     C_R   0.485265 0.923872 0.078693 0.720249
O16   O     O_R   0.317060 0.076430 0.039590 -0.536809
O17   O     O_3   0.483830 0.993520 0.966410 -0.364843
V3    V     V_3+5 0.760140 0.001200 0.006230 1.432562
O18   O     O_R   0.149560 0.922820 0.954030 -0.535414
C67   C     C_R   0.982858 0.898404 0.943798 0.710427
O19   O     O_R   0.143080 0.056020 0.937150 -0.535858
C68   C     C_R   0.973723 0.076082 0.921262 0.732413
V4    V     V_3+5 0.259690 0.998730 0.993720 1.440788
O20   O     O_3   0.986120 0.006480 0.033580 -0.367531
C69   C     C_2   0.226068 0.258684 0.673485 0.404133
H35   H     H_    0.211449 0.209674 0.657477 0.076475
O21   O     O_2   0.334883 0.296375 0.650734 -0.529188
C70   C     C_2   0.946625 0.588840 0.671409 0.319871
H36   H     H_    0.035320 0.555877 0.647208 0.054309
O22   O     O_2   0.885372 0.569882 0.715501 -0.516755
N1    N     N_3   0.590028 0.334658 0.752522 -0.640637
H37   H     H_    0.578674 0.373817 0.725073 0.258844
H38   H     H_    0.530161 0.351777 0.789169 0.224222
N2    N     N_3   0.106712 0.656743 0.243779 -0.668621
H39   H     H_    0.067667 0.630277 0.209039 0.237347
H40   H     H_    0.013990 0.697172 0.245526 0.234958
N3    N     N_3   0.413877 0.697279 0.140651 -0.673624
H41   H     H_    0.415784 0.729783 0.107548 0.237875
H42   H     H_    0.555408 0.683155 0.149494 0.231994
N4    N     N_3   0.713927 0.741592 0.328250 -0.664081
H43   H     H_    0.653803 0.784553 0.343995 0.249661
H44   H     H_    0.708971 0.705558 0.358616 0.237415
C71   C     C_2   0.125578 0.854155 0.238291 0.355817
H45   H     H_    0.068923 0.846724 0.197409 0.044295
O23   O     O_2   0.033519 0.888017 0.270234 -0.525265
C72   C     C_2   0.297568 0.273356 0.500202 0.386272
H46   H     H_    0.298358 0.317264 0.524880 0.068040
O24   O     O_2   0.270697 0.221269 0.523257 -0.525144
C73   C     C_2   0.277510 0.680597 0.927699 0.359182
H47   H     H_    0.375390 0.694071 0.960306 0.051523
O25   O     O_2   0.266603 0.623168 0.915127 -0.514956
C74   C     C_2   0.536214 0.826958 0.796864 0.359192
H48   H     H_    0.530750 0.809945 0.838996 0.052750
O26   O     O_2   0.417164 0.867535 0.781661 -0.526846

loop_
_geom_bond_atom_site_label_1
_geom_bond_atom_site_label_2
_ccdc_geom_bond_type
C25   H12   S    
C13   C19   A    
C25   C69   S    
C56   C57   A    
C31   H13   S    
C40   C41   S    
C4    C6    S    
C70   O22   D    
C7    C8    A    
C47   C50   A    
C1    O6    A    
C24   C27   S    
C21   H2    S    
O12   C65   A    
C60   C61   A    
C55   C61   A    
O19   C68   A    
C37   H21   S    
C29   C30   S    
C42   C71   S    
O13   C68   A    
C14   C15   A    
O15   C67   A    
C48   C63   A    
C35   H19   S    
C16   C17   A    
C72   O24   D    
C56   H32   S    
O5    C3    A    
C18   C19   A    
V3    O20   S    
O19   V4    S    
C30   H17   S    
V2    O10   S    
C37   C41   S    
C5    C8    A    
C27   C31   S    
C23   H9    S    
C39   C45   S    
C60   C62   A    
O8    V2    S    
C25   C29   S    
C37   N3    S    
C58   C59   A    
O14   C66   A    
C41   C44   S    
O11   V4    S    
C7    C73   S    
C35   C40   S    
O1    V2    S    
O16   V4    S    
C11   C15   A    
C52   C54   A    
C12   C16   A    
C24   H11   S    
C23   H16   S    
C74   O26   D    
C39   C43   S    
C23   C27   S    
C31   H14   S    
C73   O25   D    
V4    O20   S    
C64   H27   S    
O1    C2    A    
O9    C4    A    
C16   C74   S    
C28   N1    S    
C71   O23   D    
C53   C57   A    
N4    H43   S    
C41   C42   S    
C38   C66   S    
C47   C51   A    
C12   C13   A    
C1    C46   S    
N2    H40   S    
C49   C53   A    
C54   C55   A    
O12   V3    S    
C51   H31   S    
C49   C50   A    
H8    C28   S    
C15   H1    S    
C13   C14   A    
C62   H34   S    
C26   C32   T    
O15   V3    S    
O2    C1    A    
C42   C43   S    
C69   O21   D    
O18   V4    S    
C17   C18   A    
O13   V3    S    
C8    H4    S    
C62   C63   A    
C9    H5    S    
C73   H47   S    
C59   C60   A    
O18   C67   A    
C19   C22   A    
C72   H46   S    
O17   V3    S    
C6    C22   A    
C22   C70   S    
C74   H48   S    
C65   O16   A    
O3    C4    A    
C27   C33   S    
H18   C40   S    
O17   V4    S    
C36   C37   S    
O6    V2    S    
C59   H28   S    
C24   C25   S    
C58   H33   S    
N1    H37   S    
C10   C12   A    
C49   H29   S    
C20   H7    S    
C69   H35   S    
O2    V1    S    
C71   H45   S    
C38   C44   T    
C48   C64   A    
C28   C29   S    
C7    C11   A    
O4    C2    A    
O7    V1    S    
C29   C32   S    
C30   C31   S    
C47   C65   S    
C45   C46   T    
C43   H22   S    
N2    H39   S    
C43   H23   S    
O5    V1    S    
C3    C26   S    
N3    H41   S    
C42   H24   S    
C30   H15   S    
C36   C39   S    
C34   C68   S    
C61   C64   A    
O11   C66   A    
C20   C21   A    
O9    V2    S    
C70   H36   S    
O7    V2    S    
O4    V1    S    
O3    V1    S    
V1    O10   S    
C18   C20   A    
N3    H42   S    
C14   H6    S    
C33   C34   T    
C2    C48   S    
C50   H30   S    
C35   N4    S    
C63   C72   S    
C36   H20   S    
C55   C56   A    
N4    H44   S    
C35   C39   S    
C6    C21   A    
C5    C9    A    
C36   N2    S    
C54   C58   A    
C5    C67   S    
C51   C52   A    
C57   H26   S    
O14   V3    S    
C17   H3    S    
N1    H38   S    
C10   C11   A    
C52   C53   A    
C9    C10   A    
C24   H10   S    
C40   H25   S    
O8    C3    A    
C23   C28   S    
