data_mof_unit_47494.cif
_audit_creation_date              2013-03-05T16:46:09-0500
_audit_creation_method            fapswitch 2.2
_symmetry_space_group_name_H-M    P1
_symmetry_Int_Tables_number       1
_space_group_crystal_system       triclinic
_cell_length_a                    10.898833
_cell_length_b                    10.780972
_cell_length_c                    10.01488
_cell_angle_alpha                 92.374277
_cell_angle_beta                  91.081533
_cell_angle_gamma                 94.219121
_cell_volume                      1172.2682261

loop_
_atom_site_label
_atom_site_type_symbol
_atom_site_description
_atom_site_fract_x
_atom_site_fract_y
_atom_site_fract_z
_atom_type_partial_charge
O1    O     O_R   0.500020 0.316790 0.614690 -0.619300
O2    O     O_R   0.500000 0.316760 0.385350 -0.605177
C1    C     C_R   0.505105 0.261211 0.498249 0.889406
O3    O     O_R   0.316770 0.500030 0.614670 -0.625984
O4    O     O_R   0.316750 0.499990 0.385330 -0.610166
C2    C     C_R   0.260556 0.506768 0.498678 0.879857
Zn1   Zn    Zn3+2 0.500010 0.500020 0.653130 1.006343
Zn2   Zn    Zn3+2 0.499990 0.499980 0.346870 0.967937
O5    O     O_R   0.500000 0.683240 0.614650 -0.574024
O6    O     O_R   0.499980 0.683210 0.385310 -0.644185
O7    O     O_R   0.683250 0.500010 0.614670 -0.576625
O8    O     O_R   0.683230 0.499970 0.385330 -0.636341
C3    C     C_R   0.502038 0.739893 0.501601 0.883127
C4    C     C_R   0.739809 0.502703 0.502044 0.864822
H1    H     H_    0.226849 0.526003 0.884017 0.164447
C5    C     C_R   0.219826 0.628906 0.067487 -0.172044
H2    H     H_    0.278434 0.706177 0.033406 0.169780
C6    C     C_R   0.179403 0.630572 0.198493 -0.068750
H3    H     H_    0.204617 0.710465 0.265146 0.145720
C7    C     C_R   0.107971 0.528047 0.243413 0.066548
C8    C     C_R   0.072653 0.426834 0.155706 -0.231031
H4    H     H_    0.014922 0.349525 0.191394 0.188672
C9    C     C_R   0.109701 0.425230 0.022943 0.330776
C10   C     C_R   0.186636 0.526656 0.980792 -0.291107
C11   C     C_R   0.931826 0.528130 0.385425 -0.235480
H5    H     H_    0.879279 0.534386 0.293558 0.163284
C12   C     C_R   0.872948 0.513602 0.506509 -0.093851
C13   C     C_R   0.943039 0.515345 0.626802 0.012605
C14   C     C_R   0.069854 0.527368 0.619269 -0.171991
H6    H     H_    0.122618 0.532472 0.710149 0.176382
C15   C     C_R   0.128612 0.522860 0.496889 -0.098040
C16   C     C_R   0.058192 0.529288 0.378277 0.027295
C17   C     C_R   0.908823 0.589744 0.862833 -0.062936
H7    H     H_    0.958714 0.677625 0.843782 0.147366
C18   C     C_R   0.860798 0.570459 0.989482 -0.084013
H8    H     H_    0.873572 0.643134 0.067367 0.159853
C19   C     C_R   0.797252 0.456977 0.015818 -0.185752
H9    H     H_    0.760252 0.441618 0.113619 0.160002
C20   C     C_R   0.781679 0.362633 0.915985 -0.087610
H10   H     H_    0.733888 0.274399 0.937323 0.164595
C21   C     C_R   0.828354 0.381950 0.789028 0.014917
H11   H     H_    0.816920 0.307949 0.712510 0.112250
C22   C     C_R   0.890490 0.496506 0.760738 0.154554
C23   C     C_R   0.502801 0.071098 0.617742 0.139562
C24   C     C_R   0.511733 0.129744 0.497195 -0.130346
C25   C     C_R   0.526510 0.061019 0.379098 -0.113615
H12   H     H_    0.547465 0.106680 0.288263 0.232687
C26   C     C_R   0.519625 0.932803 0.379870 -0.156857
H13   H     H_    0.530672 0.881582 0.286090 0.194256
C27   C     C_R   0.504231 0.872884 0.501324 -0.131215
C28   C     C_R   0.495599 0.942891 0.620165 0.069303
C29   C     C_3   0.583317 0.946990 0.736230 -0.296247
C30   C     C_3   0.598010 0.085404 0.727432 -0.505324
H14   H     H_    0.533889 0.918871 0.827196 0.260133
H15   H     H_    0.669822 0.902662 0.713882 0.249522
H16   H     H_    0.569948 0.135834 0.818331 0.244390
H17   H     H_    0.690046 0.118738 0.691497 0.198527
C31   C     C_R   0.484178 0.390541 0.065040 0.102405
N1    N     N_R   0.499160 0.499140 0.142800 -0.150989
C32   C     C_R   0.535191 0.603492 0.078974 -0.195887
H18   H     H_    0.564573 0.685973 0.139392 0.200887
C33   C     C_R   0.544791 0.602390 0.936690 0.334782
N2    N     N_R   0.499160 0.499180 0.857150 -0.152004
C34   C     C_R   0.481606 0.391728 0.923578 0.060302
C35   C     C_3   0.375190 0.299234 0.907617 -0.462945
C36   C     C_3   0.376064 0.295683 0.059753 0.151654
H19   H     H_    0.297978 0.340677 0.860842 0.229314
H20   H     H_    0.395737 0.211432 0.854977 0.230743
H21   H     H_    0.295831 0.330009 0.110910 0.135506
N3    N     N_R   0.619614 0.702972 0.883350 0.177251
O9    O     O_R   0.680680 0.683734 0.775878 -0.390841
O10   O     O_R   0.658882 0.797315 0.962189 -0.453762
N4    N     N_R   0.405214 0.173888 0.104311 0.218053
O11   O     O_R   0.498107 0.119093 0.055467 -0.454670
O12   O     O_R   0.325803 0.110858 0.175320 -0.378522
N5    N     N_R   0.074996 0.317617 0.936266 0.190113
O13   O     O_R   0.088185 0.320426 0.807684 -0.450606
O14   O     O_R   0.028221 0.215237 0.985641 -0.371691

loop_
_geom_bond_atom_site_label_1
_geom_bond_atom_site_label_2
_geom_bond_distance
_ccdc_geom_bond_type
C21   C22   1.406182 A    
C21   H11   1.081832 S    
C18   H8    1.082077 S    
C9    N5    1.442984 S    
C20   C21   1.396253 A    
C24   C25   1.387760 A    
C23   C24   1.387560 A    
Zn1   O7    2.041039 S    
C19   H9    1.080695 S    
C13   C14   1.382456 A    
C18   C19   1.398216 A    
N5    O14   1.301779 A    
Zn2   N1    2.043228 S    
O4    C2    1.301919 A    
O7    C4    1.295908 A    
C36   H21   1.101314 S    
C33   N3    1.435460 S    
C32   C33   1.430383 A    
C6    H3    1.083318 S    
N4    O11   1.302320 A    
O5    C3    1.308281 A    
C23   C30   1.492210 S    
C31   C36   1.500980 S    
C5    H2    1.082577 S    
C35   H19   1.088589 S    
C9    C10   1.411960 A    
N3    O9    1.293558 A    
C4    C12   1.446866 S    
C29   H15   1.110295 S    
C11   C16   1.379624 A    
C26   C27   1.407762 A    
C2    C15   1.460943 S    
N1    C32   1.353702 A    
C5    C10   1.396445 A    
C8    H4    1.083651 S    
N4    O12   1.301261 A    
O3    Zn1   2.026764 S    
C29   H14   1.108799 S    
C17   H7    1.082965 S    
C31   C34   1.417085 A    
C19   C20   1.395311 A    
C25   C26   1.379158 A    
C28   C29   1.488165 S    
C17   C22   1.404765 A    
N5    O13   1.299776 A    
O3    C2    1.310240 A    
C20   H10   1.081661 S    
C30   H17   1.111814 S    
C11   H5    1.081633 S    
C36   N4    1.459035 S    
C1    C24   1.424099 S    
N2    C34   1.362795 A    
C32   H18   1.079625 S    
O1    C1    1.292841 A    
C14   H6    1.064674 S    
C15   C16   1.408958 A    
Zn2   O8    2.026765 S    
C35   H20   1.103812 S    
C33   N2    1.396492 A    
C27   C28   1.391141 A    
Zn1   N2    2.043824 S    
C23   C28   1.379893 A    
C5    C6    1.391701 A    
H1    C10   1.071166 S    
O8    C4    1.309450 A    
C8    C9    1.396630 A    
C29   C30   1.495473 S    
C7    C16   1.464919 S    
C30   H16   1.100836 S    
Zn1   O5    2.028148 S    
C25   H12   1.072589 S    
C26   H13   1.082872 S    
O1    Zn1   1.996853 S    
O2    Zn2   2.028146 S    
O6    C3    1.291652 A    
O4    Zn2   2.041039 S    
C11   C12   1.391808 A    
C13   C22   1.484235 S    
C34   C35   1.474685 S    
O2    C1    1.303372 A    
C31   N1    1.376742 A    
C14   C15   1.394231 A    
C17   C18   1.398879 A    
C6    C7    1.399290 A    
C3    C27   1.432327 S    
C7    C8    1.398714 A    
Zn2   O6    1.996854 S    
C35   C36   1.525557 S    
C12   C13   1.412984 A    
N3    O10   1.302979 A    
