data_mof_unit_44883.cif
_audit_creation_date              2012-12-11T14:13:05-0500
_audit_creation_method            fapswitch 2.2
_symmetry_space_group_name_H-M    P1
_symmetry_Int_Tables_number       1
_space_group_crystal_system       triclinic
_cell_length_a                    11.8168
_cell_length_b                    18.542739
_cell_length_c                    10.096145
_cell_angle_alpha                 89.952188
_cell_angle_beta                  112.11359
_cell_angle_gamma                 90.226163
_cell_volume                      2049.47611195

loop_
_atom_site_label
_atom_site_type_symbol
_atom_type_description
_atom_site_fract_x
_atom_site_fract_y
_atom_site_fract_z
_atom_type_partial_charge
C1    C     C_R   0.072115 0.646722 0.139812 0.570038
C2    C     C_R   0.927882 0.353278 0.860193 0.571329
C3    C     C_R   0.927684 0.146662 0.861299 0.585988
C4    C     C_R   0.070315 0.852419 0.139223 0.564065
C5    C     C_R   0.400209 0.462952 0.511930 -0.004099
C6    C     C_R   0.599707 0.537003 0.487918 -0.004335
C7    C     C_R   0.597113 0.964951 0.485860 0.002537
C8    C     C_R   0.395267 0.038692 0.502523 -0.006286
C9    C     C_2   0.363071 0.937428 0.026697 0.043503
C10   C     C_2   0.593114 0.069479 0.058052 -0.034676
C11   C     C_2   0.628254 0.438436 0.012396 0.022052
C12   C     C_2   0.371658 0.561550 0.987803 0.021187
C13   C     C_2   0.441920 0.969959 0.977668 0.248540
C14   C     C_2   0.474460 0.047049 0.005777 0.223027
C15   C     C_2   0.522064 0.461947 0.018068 0.218123
C16   C     C_2   0.477776 0.537992 0.982003 0.217716
C17   C     C_2   0.001781 0.919645 0.117241 0.225873
C18   C     C_2   0.993212 0.078425 0.890330 0.248826
C19   C     C_2   0.990219 0.422566 0.880579 0.223335
C20   C     C_2   0.009736 0.577444 0.119452 0.221969
C21   C     C_2   0.982265 0.959672 0.999521 -0.007391
C22   C     C_2   0.003129 0.039986 0.007592 -0.018854
C23   C     C_2   0.013641 0.460176 0.001658 -0.028718
C24   C     C_2   0.986238 0.539825 0.998371 -0.028388
C25   C     C_R   0.471938 0.647533 0.443100 0.528555
C26   C     C_R   0.528045 0.352453 0.556868 0.517888
C27   C     C_R   0.527189 0.148120 0.555647 0.533934
C28   C     C_R   0.471275 0.852959 0.441850 0.517038
C29   C     C_R   0.354025 0.637821 0.007326 0.595452
C30   C     C_R   0.645940 0.362190 0.992745 0.589453
C31   C     C_R   0.623271 0.144137 0.034578 0.599458
C32   C     C_R   0.349670 0.859455 0.018193 0.616388
C33   C     C_R   0.494286 0.424149 0.488327 0.010519
C34   C     C_R   0.505639 0.575810 0.511540 0.009600
C35   C     C_R   0.501342 0.925841 0.505426 0.013104
C36   C     C_R   0.491351 0.077459 0.482938 -0.018493
C37   C     C_R   0.291776 0.429252 0.509119 -0.131291
C38   C     C_R   0.708167 0.570692 0.490793 -0.132318
C39   C     C_R   0.708573 0.932457 0.498155 -0.137634
C40   C     C_R   0.288135 0.072839 0.501060 -0.127363
C41   C     C_R   0.206975 0.467250 0.547203 -0.027436
C42   C     C_R   0.792996 0.532682 0.452780 -0.028938
C43   C     C_R   0.800126 0.973046 0.476952 -0.051965
C44   C     C_R   0.202558 0.034912 0.538583 -0.003562
C45   C     C_R   0.229306 0.538988 0.590529 0.298854
C46   C     C_R   0.770659 0.460946 0.409433 0.299144
C47   C     C_R   0.779128 0.044803 0.434009 0.271481
C48   C     C_R   0.222172 0.962809 0.578529 0.324342
C49   C     C_R   0.334709 0.572560 0.593064 -0.008319
C50   C     C_R   0.665211 0.427389 0.406797 -0.008676
C51   C     C_R   0.666606 0.075004 0.410205 -0.061753
C52   C     C_R   0.324829 0.928730 0.577158 0.010158
C53   C     C_R   0.415098 0.537346 0.541260 -0.022271
C54   C     C_R   0.584809 0.462611 0.458572 -0.020882
C55   C     C_R   0.582420 0.039131 0.455189 -0.048518
C56   C     C_R   0.407808 0.964053 0.529011 -0.015072
Cr1   Cr    Cr6+3 0.187610 0.750000 0.979860 1.065800
Cr2   Cr    Cr6+3 0.812390 0.250000 0.020140 1.062517
Cr3   Cr    Cr6+3 0.245810 0.750000 0.341640 1.098125
Cr4   Cr    Cr6+3 0.754190 0.250000 0.658360 1.114357
Cr5   Cr    Cr6+3 0.485760 0.750000 0.219910 1.086286
Cr6   Cr    Cr6+3 0.514240 0.250000 0.780090 1.123786
H1    H     H_    0.123618 0.440916 0.540467 0.254544
H2    H     H_    0.876389 0.559001 0.459609 0.253904
H3    H     H_    0.886584 0.948563 0.494070 0.255211
H4    H     H_    0.122445 0.062078 0.537466 0.256348
H5    H     H_    0.270031 0.374164 0.472639 0.155815
H6    H     H_    0.729928 0.625772 0.527307 0.155944
H7    H     H_    0.728663 0.877167 0.533423 0.156977
H8    H     H_    0.268817 0.128503 0.468070 0.151722
H9    H     H_    0.351470 0.627418 0.632410 0.203801
H10   H     H_    0.648449 0.372528 0.367462 0.199833
H11   H     H_    0.649178 0.129099 0.366792 0.165966
H12   H     H_    0.340365 0.874232 0.618221 0.209210
O1    O     O_R   0.267710 0.668200 0.902110 -0.447934
O2    O     O_R   0.732290 0.331800 0.097890 -0.452801
O3    O     O_R   0.732290 0.168200 0.097890 -0.492560
O4    O     O_R   0.267710 0.831800 0.902110 -0.425234
O5    O     O_R   0.099480 0.674460 0.038850 -0.556221
O6    O     O_R   0.900520 0.325540 0.961150 -0.555897
O7    O     O_R   0.900520 0.174460 0.961150 -0.541960
O8    O     O_R   0.099480 0.825540 0.038850 -0.553902
O9    O     O_R   0.116720 0.669210 0.267660 -0.428717
O10   O     O_R   0.883280 0.330790 0.732340 -0.428245
O11   O     O_R   0.883280 0.169210 0.732340 -0.424099
O12   O     O_R   0.116720 0.830790 0.267660 -0.438320
O13   O     O_R   0.366710 0.675440 0.427590 -0.503080
O14   O     O_R   0.633290 0.324560 0.572410 -0.511581
O15   O     O_R   0.633290 0.175440 0.572410 -0.502528
O16   O     O_R   0.366710 0.824560 0.427590 -0.514390
O17   O     O_R   0.534870 0.669390 0.371760 -0.521831
O18   O     O_R   0.465130 0.330610 0.628240 -0.523491
O19   O     O_R   0.465130 0.169390 0.628240 -0.494614
O20   O     O_R   0.534870 0.830610 0.371760 -0.525568
O21   O     O_R   0.453080 0.674480 0.075160 -0.428494
O22   O     O_R   0.546920 0.325520 0.924840 -0.431671
O23   O     O_R   0.546920 0.174480 0.924840 -0.423642
O24   O     O_R   0.453080 0.825520 0.075160 -0.443601
O25   O     O_3   0.306390 0.750000 0.180470 -0.348145
O26   O     O_3   0.693610 0.250000 0.819530 -0.320069
Cl1   Cl    Cl    0.120768 0.591649 0.624706 -0.542003
Cl2   Cl    Cl    0.879258 0.408273 0.375401 -0.540652
Cl3   Cl    Cl    0.893655 0.100768 0.419600 -0.573155
Cl4   Cl    Cl    0.117845 0.910690 0.622417 -0.528034
Cl5   Cl    Cl    0.351027 0.109155 0.958215 -0.554501
Cl6   Cl    Cl    0.513016 0.919617 0.880977 -0.639452
Cl7   Cl    Cl    0.553000 0.599398 0.905372 -0.655115
Cl8   Cl    Cl    0.446730 0.400467 0.094430 -0.659038
C57   C     C_3   0.697208 0.016502 0.099081 -0.361999
H13   H     H_    0.681031 0.969966 0.159114 0.187667
H14   H     H_    0.712474 0.998182 0.002618 0.194447
H15   H     H_    0.782893 0.042880 0.165858 0.221922
C58   C     C_3   0.310433 0.975105 0.122425 -0.411114
H16   H     H_    0.234380 0.009728 0.057035 0.217099
H17   H     H_    0.275187 0.936025 0.180895 0.102319
H18   H     H_    0.380964 0.008250 0.203527 0.136338
C59   C     C_3   0.266569 0.514011 0.978315 -0.363643
H19   H     H_    0.258115 0.467955 0.905097 0.231151
H20   H     H_    0.275765 0.496508 0.086779 0.152617
H21   H     H_    0.181110 0.544916 0.931980 0.191119
C60   C     C_3   0.733360 0.486017 0.022096 -0.363749
H22   H     H_    0.741646 0.532088 0.095233 0.229688
H23   H     H_    0.818842 0.455145 0.068595 0.191983
H24   H     H_    0.724330 0.503506 0.913680 0.152337
C61   C     C_3   0.058123 0.078523 0.150470 -0.345403
H25   H     H_    0.131455 0.045224 0.226635 0.155422
H26   H     H_    0.102938 0.130184 0.141808 0.139855
H27   H     H_    0.986686 0.090462 0.193282 0.229357
C62   C     C_3   0.923524 0.922208 0.856428 -0.338647
H28   H     H_    0.852382 0.957399 0.781674 0.157641
H29   H     H_    0.993185 0.908381 0.812075 0.235980
H30   H     H_    0.876441 0.871560 0.865933 0.134508
C63   C     C_3   0.918061 0.579411 0.859188 -0.348241
H31   H     H_    0.843526 0.545124 0.786506 0.164362
H32   H     H_    0.873190 0.628986 0.877326 0.141496
H33   H     H_    0.981083 0.595769 0.806542 0.227410
C64   C     C_3   0.081821 0.420590 0.140844 -0.347765
H34   H     H_    0.156351 0.454876 0.213531 0.164240
H35   H     H_    0.018801 0.404229 0.193489 0.227629
H36   H     H_    0.126704 0.371017 0.122714 0.143065
Cl9   Cl    Cl    0.045664 0.046358 0.761376 -0.548555
Cl10  Cl    Cl    0.969593 0.950112 0.264398 -0.649059
Cl11  Cl    Cl    0.993438 0.541471 0.271998 -0.629814
Cl12  Cl    Cl    0.006543 0.458556 0.728069 -0.627498

loop_
_geom_bond_atom_site_label_1
_geom_bond_atom_site_label_2
_ccdc_geom_bond_type
C24   C63   S    
C44   C48   A    
C19   Cl12  S    
C5    C37   A    
C12   C29   S    
C3    O11   A    
Cr3   O25   S    
Cr1   O5    S    
C44   H4    S    
Cr5   O24   S    
C7    C55   A    
C8    C56   A    
Cr4   O14   S    
Cr2   O2    S    
C11   C60   S    
Cr4   O15   S    
C62   H29   S    
C64   H35   S    
C50   C54   A    
C40   H8    S    
C10   C57   S    
C5    C53   A    
Cr3   O9    S    
C38   C42   A    
C48   C52   A    
C52   H12   S    
C59   H20   S    
C2    O6    A    
C42   C46   A    
C4    O12   A    
C26   O18   A    
C15   C16   S    
C48   Cl4   S    
C25   O13   A    
C9    C13   D    
C3    C18   S    
C28   O20   A    
C8    C36   A    
C50   H10   S    
C60   H24   S    
C30   O22   A    
C16   Cl7   S    
C11   C15   D    
C10   C31   S    
C14   Cl5   S    
C20   C24   D    
C11   C30   S    
C5    C33   A    
C3    O7    A    
C63   H33   S    
C23   C24   S    
C6    C38   A    
Cr2   O3    S    
Cr2   O6    S    
C25   C34   S    
C58   H18   S    
C35   C56   A    
C21   C22   S    
C20   Cl11  S    
Cr5   O25   S    
C6    C54   A    
C31   O3    A    
C64   H36   S    
C25   O17   A    
C47   Cl3   S    
C12   C16   D    
Cr2   O26   S    
C28   C35   S    
C10   C14   D    
C59   H21   S    
C29   O21   A    
Cr5   O20   S    
C22   C61   S    
C39   C43   A    
C17   C21   D    
C6    C34   A    
Cr6   O18   S    
C17   Cl10  S    
Cr3   O16   S    
C15   Cl8   S    
C19   C23   D    
C61   H27   S    
Cr6   O23   S    
C30   O2    A    
C26   C33   S    
C45   C49   A    
C43   H3    S    
C2    O10   A    
C39   H7    S    
C21   C62   S    
C60   H22   S    
C45   Cl1   S    
Cr6   O26   S    
C4    C17   S    
C38   H6    S    
C63   H31   S    
C1    O5    A    
C57   H15   S    
C41   H1    S    
C9    C32   S    
C42   H2    S    
C61   H26   S    
C58   H16   S    
C33   C54   A    
Cr2   O7    S    
C1    C20   S    
C7    C39   A    
C2    C19   S    
C18   C22   D    
C7    C35   A    
Cr1   O4    S    
C23   C64   S    
C18   Cl9   S    
C51   H11   S    
C13   Cl6   S    
Cr4   O26   S    
C47   C51   A    
Cr4   O11   S    
Cr5   O21   S    
C29   O1    A    
C27   C36   S    
C1    O9    A    
C64   H34   S    
C46   C50   A    
C59   H19   S    
C9    C58   S    
C62   H30   S    
C57   H14   S    
C62   H28   S    
Cr3   O12   S    
C36   C55   A    
C57   H13   S    
Cr4   O10   S    
Cr1   O1    S    
C61   H25   S    
C49   C53   A    
C37   H5    S    
C32   O24   A    
C27   O15   A    
C51   C55   A    
C31   O23   A    
C37   C41   A    
Cr3   O13   S    
C60   H23   S    
C27   O19   A    
C32   O4    A    
C12   C59   S    
Cr5   O17   S    
C40   C44   A    
C4    O8    A    
C34   C53   A    
C26   O14   A    
C49   H9    S    
Cr6   O19   S    
C63   H32   S    
C41   C45   A    
Cr1   O8    S    
C28   O16   A    
C8    C40   A    
C58   H17   S    
Cr6   O22   S    
C13   C14   S    
C43   C47   A    
C52   C56   A    
C46   Cl2   S    
Cr1   O25   S    
