data_mof_unit_18099.cif
_audit_creation_date              2013-03-05T16:39:55-0500
_audit_creation_method            fapswitch 2.2
_symmetry_space_group_name_H-M    P1
_symmetry_Int_Tables_number       1
_space_group_crystal_system       triclinic
_cell_length_a                    10.878971
_cell_length_b                    16.009927
_cell_length_c                    14.73826
_cell_angle_alpha                 90.184032
_cell_angle_beta                  91.096872
_cell_angle_gamma                 90.334848
_cell_volume                      2566.45692692

loop_
_atom_site_label
_atom_site_type_symbol
_atom_site_description
_atom_site_fract_x
_atom_site_fract_y
_atom_site_fract_z
_atom_type_partial_charge
O1    O     O_R   0.500060 0.380310 0.575320 -0.587521
O2    O     O_R   0.499940 0.619690 0.424680 -0.572104
O3    O     O_R   0.500000 0.380310 0.424640 -0.565303
O4    O     O_R   0.500000 0.619690 0.575360 -0.558588
C1    C     C_R   0.500454 0.340949 0.499893 0.805906
C2    C     C_R   0.500672 0.659114 0.500173 0.840047
O5    O     O_R   0.319670 0.500010 0.575340 -0.581529
O6    O     O_R   0.680330 0.499990 0.424660 -0.584091
O7    O     O_R   0.319610 0.500010 0.424650 -0.573659
O8    O     O_R   0.680390 0.499990 0.575350 -0.567281
C3    C     C_R   0.261563 0.495834 0.498849 0.796403
C4    C     C_R   0.738172 0.495361 0.501032 0.800256
Cu1   Cu    Cu3+1 0.500040 0.500000 0.589220 0.986572
Cu2   Cu    Cu3+1 0.499960 0.500000 0.410780 0.983973
H1    H     H_    0.208260 0.442085 0.073565 0.138048
H2    H     H_    0.748992 0.393203 0.905148 0.140596
C5    C     C_R   0.115654 0.525677 0.165020 0.216321
C6    C     C_R   0.759305 0.360627 0.762935 0.153092
C7    C     C_R   0.080288 0.538329 0.255183 -0.188672
C8    C     C_R   0.810406 0.382366 0.679476 -0.110997
H3    H     H_    0.026741 0.592766 0.272487 0.129644
H4    H     H_    0.790192 0.344644 0.619846 0.093567
C9    C     C_R   0.109714 0.479475 0.322650 0.085976
C10   C     C_R   0.885775 0.453605 0.672129 0.102689
C11   C     C_R   0.174158 0.407120 0.298852 -0.069159
C12   C     C_R   0.912633 0.501603 0.750027 -0.148071
H5    H     H_    0.194209 0.359724 0.349224 0.146418
H6    H     H_    0.971311 0.556297 0.745978 0.139406
C13   C     C_R   0.211016 0.394853 0.209593 -0.170947
C14   C     C_R   0.863528 0.479381 0.833558 -0.170936
H7    H     H_    0.260663 0.338949 0.191797 0.150583
H8    H     H_    0.884306 0.516762 0.893303 0.138205
C15   C     C_R   0.181413 0.453528 0.142820 -0.166305
C16   C     C_R   0.787273 0.409224 0.840128 -0.143511
C17   C     C_R   0.930735 0.490595 0.419367 -0.226781
C18   C     C_R   0.068477 0.479189 0.579826 -0.224878
H9    H     H_    0.877497 0.493650 0.356509 0.166065
H10   H     H_    0.121726 0.473025 0.642366 0.163203
C19   C     C_R   0.871558 0.487075 0.502609 -0.086782
C20   C     C_R   0.127833 0.487675 0.496682 -0.087261
C21   C     C_R   0.941005 0.475277 0.583723 0.013801
C22   C     C_R   0.057737 0.487662 0.414653 0.012318
C23   C     C_R   0.606919 0.956304 0.533339 0.325522
C24   C     C_R   0.399112 0.044150 0.469192 0.332339
C25   C     C_R   0.501825 0.912813 0.501269 -0.069554
C26   C     C_R   0.504226 0.087577 0.500889 -0.068327
C27   C     C_R   0.396730 0.956197 0.469807 -0.075885
C28   C     C_R   0.608683 0.044352 0.533713 -0.067587
C29   C     C_1   0.502601 0.822980 0.501011 0.065593
C30   C     C_1   0.503081 0.177317 0.500255 0.061150
C31   C     C_1   0.501829 0.252164 0.499863 -0.163600
C32   C     C_1   0.502002 0.748046 0.500595 -0.150247
H11   H     H_    0.572239 0.625575 0.085156 0.136892
H12   H     H_    0.436723 0.372381 0.914953 0.126416
C33   C     C_R   0.542115 0.570038 0.952865 -0.161140
C34   C     C_R   0.468156 0.427648 0.047154 -0.163155
H13   H     H_    0.571324 0.625810 0.917695 0.141761
H14   H     H_    0.439318 0.371772 0.082256 0.129457
C35   C     C_R   0.503211 0.499294 0.902890 0.050899
C36   C     C_R   0.504842 0.498890 0.097163 0.060098
C37   C     C_R   0.466747 0.427971 0.951297 -0.190678
C38   C     C_R   0.542956 0.569824 0.048757 -0.187459
C39   C     C_1   0.501209 0.499755 0.802783 0.122111
C40   C     C_1   0.502185 0.499497 0.197252 0.114906
N1    N     N_1   0.500040 0.499980 0.276710 -0.150453
N2    N     N_1   0.499960 0.500020 0.723290 -0.149537
C41   C     C_3   0.077883 0.586823 0.091968 -0.424542
C42   C     C_3   0.134846 0.673855 0.106828 -0.356747
C43   C     C_3   0.274684 0.673232 0.099968 -0.770240
H15   H     H_    0.301751 0.647512 0.033250 0.256708
H16   H     H_    0.310948 0.737982 0.106358 0.227404
H17   H     H_    0.316104 0.635136 0.155295 0.261253
H18   H     H_    0.096975 0.716643 0.054197 0.213358
H19   H     H_    0.108817 0.699002 0.174005 0.216089
H20   H     H_    0.103312 0.563442 0.023723 0.190705
H21   H     H_    0.976077 0.592389 0.091529 0.165134
C44   C     C_3   0.673499 0.286800 0.769364 -0.422458
C45   C     C_3   0.740511 0.210796 0.808626 -0.373429
C46   C     C_3   0.652673 0.136963 0.819452 -0.800404
H22   H     H_    0.579675 0.152905 0.868152 0.251286
H23   H     H_    0.609250 0.119737 0.753156 0.256117
H24   H     H_    0.704260 0.082264 0.845845 0.255117
H25   H     H_    0.815600 0.192347 0.762618 0.225912
H26   H     H_    0.781745 0.226684 0.876153 0.226566
H27   H     H_    0.594817 0.303585 0.812713 0.197421
H28   H     H_    0.634854 0.270651 0.701098 0.200179
C47   C     C_3   0.723159 0.092008 0.565373 -0.364834
C48   C     C_3   0.803420 0.114810 0.484685 -0.353308
C49   C     C_3   0.914699 0.166906 0.515114 -0.749154
H29   H     H_    0.884622 0.226351 0.546341 0.223045
H30   H     H_    0.971576 0.131767 0.565203 0.282330
H31   H     H_    0.971595 0.181850 0.455500 0.275399
H32   H     H_    0.835787 0.056759 0.451379 0.254926
H33   H     H_    0.749049 0.151183 0.434060 0.221750
H34   H     H_    0.696873 0.149607 0.602195 0.187920
H35   H     H_    0.778206 0.055217 0.614979 0.245114
C50   C     C_3   0.284702 0.909196 0.432558 -0.328493
C51   C     C_3   0.297028 0.893298 0.330568 -0.337035
C52   C     C_3   0.185269 0.846556 0.291761 -0.835814
H36   H     H_    0.177434 0.783943 0.323499 0.253706
H37   H     H_    0.100001 0.882416 0.303887 0.271250
H38   H     H_    0.195479 0.838534 0.217472 0.241611
H39   H     H_    0.306226 0.953857 0.294545 0.249633
H40   H     H_    0.380722 0.855748 0.318077 0.221887
H41   H     H_    0.272390 0.848946 0.468545 0.193509
H42   H     H_    0.199246 0.944587 0.444998 0.247114
N3    N     N_R   0.712559 0.910605 0.564303 0.119885
O9    O     O_R   0.734628 0.902419 0.650863 -0.371128
O10   O     O_R   0.776899 0.868309 0.506760 -0.366947
N4    N     N_R   0.294871 0.089854 0.435612 0.116195
O11   O     O_R   0.199243 0.098753 0.486261 -0.398640
O12   O     O_R   0.302739 0.132575 0.360995 -0.383585

loop_
_geom_bond_atom_site_label_1
_geom_bond_atom_site_label_2
_geom_bond_distance
_ccdc_geom_bond_type
C47   C48   1.532538 S    
C33   C35   1.407672 A    
C17   C19   1.397508 A    
C50   C51   1.532280 S    
C19   C21   1.415683 A    
C44   C45   1.531572 S    
O5    C3    1.283248 A    
C9    C22   1.484795 S    
O1    C1    1.276175 A    
C17   H9    1.084521 S    
C10   C12   1.404587 A    
C43   H15   1.110436 S    
C42   H19   1.109961 S    
C51   H39   1.111795 S    
C33   C38   1.413158 A    
C13   C15   1.397130 A    
C36   C38   1.407714 A    
C25   C27   1.412677 A    
O4    Cu1   1.927739 S    
C43   H16   1.110089 S    
C17   C22   1.385792 A    
N4    O11   1.300235 A    
H2    C16   1.083114 S    
C45   H25   1.112246 S    
C8    C10   1.406447 A    
C42   C43   1.526663 S    
C47   H34   1.110163 S    
N3    O9    1.300786 A    
C49   H30   1.110673 S    
C23   C28   1.409655 A    
C24   C27   1.408281 A    
C50   H41   1.110940 S    
C20   C22   1.416976 A    
C39   N2    1.171426 T    
C44   H27   1.111573 S    
Cu1   Cu2   2.629877 S    
C10   C21   1.486454 S    
N3    O10   1.300885 A    
C18   C21   1.390106 A    
O2    C2    1.277293 A    
C5    C15   1.403306 A    
C24   C26   1.406226 A    
C26   C28   1.412305 A    
Cu1   N2    1.975976 S    
C6    C16   1.403770 A    
C11   C13   1.396221 A    
C48   H33   1.111575 S    
C5    C41   1.510264 S    
C35   C37   1.407480 A    
C14   C16   1.397155 A    
C41   C42   1.535003 S    
C18   C20   1.402622 A    
O4    C2    1.277156 A    
C46   H23   1.110406 S    
C45   C46   1.526340 S    
C42   H18   1.111397 S    
C34   C36   1.407646 A    
C43   H17   1.110090 S    
C7    C9    1.405848 A    
O7    Cu2   1.976531 S    
O7    C3    1.274962 A    
H11   C38   1.083052 S    
C52   H36   1.111076 S    
C25   C29   1.438289 S    
O6    C4    1.281559 A    
C29   C32   1.199669 T    
C47   H35   1.109147 S    
C30   C31   1.198480 T    
C28   C47   1.521582 S    
C23   N3    1.433961 S    
C49   H31   1.110301 S    
C23   C25   1.408289 A    
O3    Cu2   1.927739 S    
O8    C4    1.275438 A    
C50   H42   1.109491 S    
C52   H37   1.110824 S    
C8    H4    1.083099 S    
C44   H28   1.112093 S    
C12   C14   1.397611 A    
C33   H13   1.082998 S    
C41   H20   1.112545 S    
C48   H32   1.111850 S    
O6    Cu2   1.968978 S    
C7    H3    1.083581 S    
C12   H6    1.083083 S    
O3    C1    1.277330 A    
O8    Cu1   1.976533 S    
C46   H24   1.110301 S    
H12   C37   1.082840 S    
C11   H5    1.083457 S    
C26   C30   1.436913 S    
C35   C39   1.475191 S    
C27   C50   1.521181 S    
C36   C40   1.475970 S    
C40   N1    1.171755 T    
C4    C19   1.457669 S    
C18   H10   1.084307 S    
C13   H7    1.082188 S    
C14   H8    1.082596 S    
C6    C44   1.506192 S    
C51   H40   1.111944 S    
C5    C7    1.404869 A    
Cu2   N1    1.975974 S    
C34   H14   1.082684 S    
C6    C8    1.403507 A    
C9    C11   1.404529 A    
C3    C20   1.459675 S    
O2    Cu2   1.926495 S    
N4    O12   1.300876 A    
C46   H22   1.110853 S    
C45   H26   1.111917 S    
O5    Cu1   1.968977 S    
C52   H38   1.109745 S    
O1    Cu1   1.926495 S    
C48   C49   1.525560 S    
C51   C52   1.524913 S    
C34   C37   1.412580 A    
C1    C31   1.421605 S    
C41   H21   1.111544 S    
C2    C32   1.423781 S    
C49   H29   1.109604 S    
H1    C15   1.082377 S    
C24   N4    1.434192 S    
