data_mof_unit_67782.cif
_audit_creation_date              2013-03-05T15:41:21-0500
_audit_creation_method            fapswitch 2.2
_symmetry_space_group_name_H-M    P1
_symmetry_Int_Tables_number       1
_space_group_crystal_system       triclinic
_cell_length_a                    7.829453
_cell_length_b                    8.753207
_cell_length_c                    10.814884
_cell_angle_alpha                 92.013405
_cell_angle_beta                  86.415754
_cell_angle_gamma                 92.854982
_cell_volume                      738.425352339

loop_
_atom_site_label
_atom_site_type_symbol
_atom_site_description
_atom_site_fract_x
_atom_site_fract_y
_atom_site_fract_z
_atom_type_partial_charge
O1    O     O_R   0.389250 0.738570 0.508370 -0.562291
O2    O     O_R   0.678390 0.711620 0.486510 -0.555896
C1    C     C_R   0.543663 0.793438 0.491959 0.945226
O3    O     O_R   0.355430 0.513500 0.696140 -0.613409
O4    O     O_R   0.644580 0.486550 0.674270 -0.537080
C2    C     C_R   0.503279 0.496912 0.742193 0.992057
Zn1   Zn    Zn3+2 0.306940 0.517990 0.514600 1.173645
Zn2   Zn    Zn3+2 0.693060 0.482010 0.485400 1.214289
O5    O     O_R   0.321610 0.288380 0.513490 -0.559938
O6    O     O_R   0.610750 0.261430 0.491630 -0.556859
O7    O     O_R   0.355420 0.513450 0.325730 -0.607878
O8    O     O_R   0.644570 0.486500 0.303860 -0.592679
C3    C     C_R   0.455305 0.206380 0.496770 1.011776
C4    C     C_R   0.498177 0.505068 0.259171 0.971533
C5    C     C_3   0.348414 0.581313 0.937885 -0.316728
H1    H     H_    0.232678 0.522404 0.901850 0.207976
C6    C     C_3   0.325511 0.562081 0.079505 -0.312810
H2    H     H_    0.228678 0.467393 0.097224 0.248363
C7    C     C_3   0.492543 0.318833 0.926040 -0.298121
C8    C     C_3   0.686962 0.577076 0.926924 -0.298137
C9    C     C_3   0.511841 0.493850 0.879735 -0.298284
C10   C     C_3   0.496181 0.502433 0.123859 -0.239237
C11   C     C_3   0.514379 0.329099 0.074571 0.517701
C12   C     C_3   0.655127 0.603699 0.071561 0.144581
H3    H     H_    0.768348 0.571285 0.118035 0.236923
C13   C     C_2   0.565280 0.953559 0.474894 0.133955
C14   C     C_2   0.429733 0.044960 0.493788 0.135817
N1    N     N_2   0.950330 0.457950 0.465890 0.140551
N2    N     N_2   0.049670 0.542050 0.534110 0.141626
C15   C     C_2   0.620706 0.211146 0.855585 0.929325
O9    O     O_2   0.636306 0.209012 0.742566 -0.591364
O10   O     O_R   0.710137 0.104595 0.915212 -0.646735
H4    H     H_    0.812417 0.068846 0.861991 0.381678
Cl1   Cl    Cl    0.714097 0.262682 0.124768 -0.342762
Cl2   Cl    Cl    0.776541 0.013860 0.420573 -0.324417
Cl3   Cl    Cl    0.210618 0.984119 0.522054 -0.416095
Cl4   Cl    Cl    0.041071 0.327320 0.362268 -0.285005
Cl5   Cl    Cl    0.967513 0.695491 0.615464 -0.345902
C16   C     C_2   0.333229 0.745155 0.897160 1.053053
O11   O     O_2   0.241495 0.770466 0.813468 -0.510716
O12   O     O_R   0.414966 0.867709 0.958633 -0.691358
H5    H     H_    0.388615 0.969049 0.924658 0.372154
C17   C     C_2   0.238374 0.696144 0.148362 1.088869
O13   O     O_2   0.091352 0.721254 0.125961 -0.535902
O14   O     O_R   0.320626 0.789825 0.235630 -0.716652
H6    H     H_    0.247315 0.875604 0.269688 0.406179
C18   C     C_2   0.315491 0.248536 0.889740 0.854768
O15   O     O_2   0.189837 0.245085 0.962490 -0.493431
O16   O     O_R   0.295259 0.190731 0.769077 -0.786629
H7    H     H_    0.175117 0.146306 0.757178 0.386071
Cl6   Cl    Cl    0.368933 0.198940 0.160723 -0.432903
C19   C     C_2   0.848075 0.480741 0.899325 0.921268
O17   O     O_2   0.941826 0.454644 0.981205 -0.566202
O18   O     O_R   0.899692 0.432712 0.779127 -0.735272
H8    H     H_    0.009104 0.375226 0.774139 0.355485
C20   C     C_2   0.739697 0.728833 0.865530 1.108624
O19   O     O_2   0.870947 0.798722 0.895421 -0.500098
O20   O     O_R   0.648108 0.785470 0.771477 -0.820887
H9    H     H_    0.703021 0.881832 0.734309 0.365106
Cl7   Cl    Cl    0.658389 0.799647 0.129333 -0.346925

loop_
_geom_bond_atom_site_label_1
_geom_bond_atom_site_label_2
_geom_bond_distance
_ccdc_geom_bond_type
N2    Cl5   1.709988 S    
O4    Zn2   2.053475 S    
Zn1   O7    2.053474 S    
C17   O13   1.223050 D    
C6    C17   1.533592 S    
C12   H3    1.099864 S    
C5    C6    1.545020 S    
Zn1   N2    2.032783 S    
C14   Cl3   1.781863 S    
C18   O16   1.398385 S    
C8    C19   1.559663 S    
O12   H5    1.007493 S    
C11   Cl6   1.809860 S    
C6    C10   1.567007 S    
C8    C20   1.532619 S    
Zn2   O8    2.024961 S    
C11   Cl1   1.815677 S    
O10   H4    1.012502 S    
C4    C10   1.463803 S    
C6    H2    1.108533 S    
O8    C4    1.291149 A    
C7    C15   1.556965 S    
C16   O12   1.391759 S    
O1    Zn1   2.006871 S    
O14   H6    1.012893 S    
C8    C9    1.622633 S    
C15   O10   1.392749 S    
C17   O14   1.395306 S    
C5    C16   1.527347 S    
C13   C14   1.361650 D    
C15   O9    1.220336 D    
N1    Cl4   1.720291 S    
O3    Zn1   2.024962 S    
O3    C2    1.305005 A    
N1    N2    1.291407 D    
C7    C9    1.625399 S    
C19   O18   1.393821 S    
O2    C1    1.301376 A    
C10   C12   1.578490 S    
O4    C2    1.294390 A    
Zn2   N1    2.032783 S    
O7    C4    1.294861 A    
C7    C18   1.555785 S    
C20   O19   1.224645 D    
C5    H1    1.105603 S    
C8    C12   1.579454 S    
C13   Cl2   1.781280 S    
C5    C9    1.606855 S    
C19   O17   1.219542 D    
C7    C11   1.624895 S    
Zn2   O6    2.006870 S    
O16   H7    1.013794 S    
C16   O11   1.222862 D    
Zn1   O5    2.018380 S    
O5    C3    1.298328 A    
O18   H8    1.012518 S    
C3    C14   1.416666 S    
C12   Cl7   1.804211 S    
O20   H9    1.011921 S    
C10   C11   1.600511 S    
C2    C9    1.494437 S    
C1    C13   1.420468 S    
O2    Zn2   2.018380 S    
C18   O15   1.220546 D    
C20   O20   1.398810 S    
O1    C1    1.282611 A    
O6    C3    1.285102 A    
