data_mof_unit_37228.cif
_audit_creation_date              2012-12-10T17:44:30-0500
_audit_creation_method            fapswitch 2.2
_symmetry_space_group_name_H-M    P1
_symmetry_Int_Tables_number       1
_space_group_crystal_system       triclinic
_cell_length_a                    9.935815
_cell_length_b                    10.624763
_cell_length_c                    15.497629
_cell_angle_alpha                 91.303709
_cell_angle_beta                  67.761969
_cell_angle_gamma                 89.928314
_cell_volume                      1513.85208118

loop_
_atom_site_label
_atom_site_type_symbol
_atom_type_description
_atom_site_fract_x
_atom_site_fract_y
_atom_site_fract_z
_atom_type_partial_charge
C1    C     C_R   0.501158 0.739122 0.497816 0.869349
C2    C     C_R   0.404147 0.450533 0.915098 0.095637
C3    C     C_R   0.258848 0.485980 0.970835 0.169535
C4    C     C_R   0.504448 0.422464 0.957253 0.066008
C5    C     C_R   0.464277 0.450572 0.053343 0.079850
C6    C     C_R   0.316790 0.479769 0.108079 -0.187516
C7    C     C_R   0.215412 0.495040 0.067282 -0.216969
C8    C     C_R   0.643644 0.368594 0.906689 -0.201399
C9    C     C_R   0.744426 0.352733 0.948092 -0.222961
C10   C     C_R   0.711475 0.393595 0.039852 0.167425
C11   C     C_R   0.572584 0.446492 0.091862 0.097684
C12   C     C_R   0.408781 0.498609 0.675801 0.882771
C13   C     C_R   0.814874 0.381587 0.080933 -0.212475
C14   C     C_R   0.780902 0.421638 0.173261 -0.200784
C15   C     C_R   0.546888 0.496481 0.180551 -0.216156
C16   C     C_R   0.491419 0.864956 0.336324 -0.204492
C17   C     C_R   0.486797 0.928996 0.259814 0.326952
C18   C     C_R   0.488221 0.060071 0.260254 -0.157313
C19   C     C_R   0.493770 0.127292 0.337137 -0.228802
C20   C     C_R   0.496887 0.063784 0.415753 0.054020
C21   C     C_R   0.496210 0.931940 0.415086 0.057849
C22   C     C_R   0.504027 0.871180 0.492904 -0.119474
C23   C     C_R   0.500630 0.260665 0.499218 0.932313
C24   C     C_R   0.515460 0.936319 0.568470 -0.241257
C25   C     C_R   0.514680 0.065107 0.570202 0.260582
C26   C     C_R   0.503833 0.128061 0.494724 -0.163694
C27   C     C_R   0.789845 0.666454 0.621675 -0.154825
C28   C     C_R   0.824638 0.745407 0.682881 -0.168557
C29   C     C_R   0.963037 0.742202 0.684316 -0.180742
C30   C     C_R   0.067924 0.660829 0.623937 -0.164840
C31   C     C_R   0.036751 0.579875 0.560834 0.166193
C32   C     C_R   0.892666 0.581139 0.560227 0.175494
C33   C     C_R   0.962956 0.423104 0.441949 -0.104151
C34   C     C_R   0.591121 0.498132 0.324155 0.834153
C35   C     C_R   0.106013 0.423404 0.441774 -0.102344
C36   C     C_R   0.351741 0.489430 0.777011 -0.044604
C37   C     C_R   0.645444 0.478027 0.223376 -0.056329
C38   C     C_R   0.160098 0.515706 0.929031 -0.199279
C39   C     C_R   0.206236 0.516800 0.832230 -0.198219
C40   C     C_R   0.448095 0.454387 0.818462 -0.199680
H1    H     H_    0.103982 0.519082 0.111132 0.151846
H2    H     H_    0.920035 0.338172 0.042572 0.152055
H3    H     H_    0.521964 0.886529 0.627161 0.161062
H4    H     H_    0.492858 0.763224 0.332861 0.160556
H5    H     H_    0.485990 0.110172 0.200728 0.171580
H6    H     H_    0.497199 0.228800 0.333722 0.151703
H7    H     H_    0.937497 0.360208 0.394490 0.143530
H8    H     H_    0.681628 0.675996 0.624702 0.196966
H9    H     H_    0.743461 0.809627 0.729462 0.173296
H10   H     H_    0.448436 0.548984 0.218747 0.178069
H11   H     H_    0.989667 0.803578 0.732178 0.163859
H12   H     H_    0.172114 0.663767 0.628548 0.200986
H13   H     H_    0.187735 0.360702 0.394131 0.147917
H14   H     H_    0.857839 0.404981 0.206096 0.154259
H15   H     H_    0.849449 0.310431 0.907568 0.161568
H16   H     H_    0.048839 0.542468 0.971098 0.156584
H17   H     H_    0.129984 0.543230 0.800876 0.159591
H18   H     H_    0.559977 0.436813 0.773965 0.173506
H19   H     H_    0.275842 0.488228 0.183170 0.145298
H20   H     H_    0.675901 0.333620 0.835761 0.173954
N1    N     N_R   0.856800 0.501200 0.500850 -0.115505
N2    N     N_R   0.142390 0.501280 0.500880 -0.118244
O1    O     O_R   0.385310 0.683220 0.500000 -0.631181
O2    O     O_R   0.614640 0.683250 0.500010 -0.627591
O3    O     O_R   0.319840 0.499980 0.632240 -0.631981
O4    O     O_R   0.549160 0.500000 0.632250 -0.626229
O5    O     O_R   0.385360 0.316750 0.499990 -0.610567
O6    O     O_R   0.614690 0.316780 0.500000 -0.583755
O7    O     O_R   0.450840 0.500000 0.367750 -0.627961
O8    O     O_R   0.680160 0.500020 0.367760 -0.611248
Zn1   Zn    Zn3+2 0.346880 0.499980 0.499990 0.941263
Zn2   Zn    Zn3+2 0.653120 0.500020 0.500010 0.958229
Br1   Br    Br    0.480547 0.837096 0.153981 -0.542185
Br2   Br    Br    0.522598 0.150488 0.679051 -0.540183

loop_
_geom_bond_atom_site_label_1
_geom_bond_atom_site_label_2
_ccdc_geom_bond_type
C27   H8    S    
C18   H5    S    
C16   C21   A    
C35   H13   S    
C34   C37   S    
C19   C20   A    
C4    C8    A    
C19   H6    S    
C28   C29   A    
C32   N1    A    
C5    C11   A    
C3    C7    A    
C5    C6    A    
C23   C26   S    
C16   C17   A    
C39   H17   S    
C25   Br2   S    
C15   H10   S    
C23   O5    A    
O7    Zn1   S    
C15   C37   A    
C30   H12   S    
C11   C15   A    
O4    Zn2   S    
C3    C38   A    
C8    C9    A    
C9    H15   S    
C12   C36   S    
C9    C10   A    
C16   H4    S    
O2    Zn2   S    
C1    C22   S    
C13   C14   A    
C17   Br1   S    
C31   N2    A    
C1    O1    A    
C13   H2    S    
C40   H18   S    
C36   C40   A    
C24   C25   A    
C18   C19   A    
C25   C26   A    
O3    Zn1   S    
C12   O4    A    
C23   O6    A    
C2    C4    A    
C29   C30   A    
C28   H9    S    
C31   C32   A    
C30   C31   A    
O6    Zn2   S    
C17   C18   A    
C34   O7    A    
N1    Zn2   S    
C14   H14   S    
O1    Zn1   S    
C33   H7    S    
C22   C24   A    
C1    O2    A    
C29   H11   S    
C34   O8    A    
C27   C32   A    
C6    H19   S    
C36   C39   A    
C4    C5    A    
C10   C13   A    
C6    C7    A    
C12   O3    A    
C2    C3    A    
C8    H20   S    
C14   C37   A    
C38   C39   A    
C20   C26   A    
C33   C35   A    
N2    Zn1   S    
C35   N2    A    
O5    Zn1   S    
C7    H1    S    
C10   C11   A    
C2    C40   A    
C38   H16   S    
C20   C21   A    
C33   N1    A    
C27   C28   A    
C24   H3    S    
O8    Zn2   S    
C21   C22   A    
