data_mof_unit_54243.cif
_audit_creation_date              2012-12-11T18:11:16-0500
_audit_creation_method            fapswitch 2.2
_symmetry_space_group_name_H-M    P1
_symmetry_Int_Tables_number       1
_space_group_crystal_system       triclinic
_cell_length_a                    8.293447
_cell_length_b                    12.977134
_cell_length_c                    18.741676
_cell_angle_alpha                 101.271872
_cell_angle_beta                  90.199756
_cell_angle_gamma                 99.45945
_cell_volume                      1949.9468534

loop_
_atom_site_label
_atom_site_type_symbol
_atom_type_description
_atom_site_fract_x
_atom_site_fract_y
_atom_site_fract_z
_atom_type_partial_charge
Ba1   Ba    Ba6+2 0.852780 0.548340 0.465070 1.726280
Ba2   Ba    Ba6+2 0.337060 0.451750 0.534940 1.699708
C1    C     C_3   0.625779 0.918816 0.298015 -0.397684
C2    C     C_3   0.645193 0.817789 0.321266 0.330963
C3    C     C_3   0.602911 0.205675 0.302756 0.323189
C4    C     C_3   0.679812 0.129785 0.246651 -0.467498
C5    C     C_3   0.059572 0.251120 0.736268 0.386856
C6    C     C_3   0.073485 0.233098 0.813722 -0.389019
C7    C     C_3   0.550508 0.192440 0.722486 0.345191
C8    C     C_3   0.633070 0.155253 0.784090 -0.244692
C9    C     C_R   0.980881 0.467154 0.050493 0.005079
C10   C     C_R   0.889434 0.406951 0.096582 -0.077971
C11   C     C_R   0.756242 0.430439 0.956236 -0.105504
C12   C     C_3   0.142854 0.771114 0.269614 0.357984
C13   C     C_R   0.919977 0.471906 0.979949 0.017188
C14   C     C_R   0.701461 0.427735 0.885643 -0.105383
C15   C     C_R   0.807490 0.464811 0.834706 -0.034474
C16   C     C_R   0.968487 0.515733 0.858204 0.003982
C17   C     C_R   0.024298 0.520981 0.931587 0.023877
C18   C     C_R   0.756924 0.452930 0.761031 -0.016497
C19   C     C_R   0.866684 0.489881 0.711462 -0.291696
C20   C     C_R   0.021832 0.547639 0.733920 0.031990
C21   C     C_R   0.072749 0.562352 0.808651 -0.042010
C22   C     C_R   0.140981 0.519798 0.074671 0.036156
C23   C     C_3   0.127164 0.801717 0.195944 -0.357253
C24   C     C_R   0.201416 0.516304 0.145908 -0.004222
C25   C     C_R   0.101776 0.459825 0.192840 -0.085752
C26   C     C_R   0.949172 0.402713 0.165388 0.012392
C27   C     C_R   0.223794 0.622685 0.835775 -0.033957
C28   C     C_R   0.278589 0.628154 0.907010 -0.093138
C29   C     C_R   0.183781 0.574766 0.955817 0.009195
C30   C     C_R   0.242264 0.574517 0.027783 0.016019
C31   C     C_R   0.401446 0.624695 0.053959 -0.097246
C32   C     C_R   0.363077 0.567417 0.169466 -0.092236
C33   C     C_R   0.459792 0.621117 0.122767 -0.081058
C34   C     C_3   0.227455 0.782246 0.619446 0.293849
C35   C     C_R   0.427120 0.557372 0.237144 -0.043043
C36   C     C_R   0.329815 0.493602 0.278380 0.166009
C37   C     C_R   0.163670 0.455608 0.263302 0.001650
C38   C     C_R   0.760917 0.182990 0.535606 -0.256921
C39   C     C_R   0.430090 0.809442 0.474090 -0.293572
C40   C     C_R   0.399718 0.984039 0.455001 -0.088400
C41   C     C_R   0.338983 0.876138 0.447752 -0.006735
C42   C     C_R   0.578718 0.850129 0.512877 0.038956
C43   C     C_R   0.641022 0.962512 0.522515 -0.056214
C44   C     C_R   0.549898 0.029601 0.491956 -0.050364
C45   C     C_3   0.258952 0.903332 0.637080 -0.388550
C46   C     C_R   0.611417 0.140452 0.498505 0.031097
C47   C     C_R   0.854532 0.118463 0.563165 -0.009642
C48   C     C_R   0.792877 0.009779 0.559026 -0.101564
C49   C     C_3   0.981929 0.213701 0.385071 0.293171
C50   C     C_3   0.037620 0.105316 0.372639 -0.314731
C51   C     C_3   0.732190 0.709135 0.681334 0.315763
C52   C     C_3   0.754083 0.747255 0.763449 -0.403376
H1    H     H_    0.739206 0.835354 0.366322 0.091261
H2    H     H_    0.380547 0.932258 0.665095 0.087862
H3    H     H_    0.257438 0.935441 0.586690 0.102912
H4    H     H_    0.161911 0.933183 0.672014 0.138594
H5    H     H_    0.853691 0.202598 0.400862 -0.100425
H6    H     H_    0.054951 0.264456 0.432255 0.078593
H7    H     H_    0.956044 0.044650 0.333151 0.106648
H8    H     H_    0.036817 0.076764 0.424625 0.100410
H9    H     H_    0.162794 0.111152 0.351615 0.156753
H10   H     H_    0.848258 0.686968 0.659414 0.004810
H11   H     H_    0.633291 0.638518 0.670075 0.065160
H12   H     H_    0.640971 0.985377 0.345880 0.096147
H13   H     H_    0.856967 0.815313 0.776419 0.119107
H14   H     H_    0.780896 0.682188 0.789656 0.060160
H15   H     H_    0.640256 0.773117 0.786044 0.117732
H16   H     H_    0.524593 0.784983 0.340310 -0.063927
H17   H     H_    0.503292 0.910469 0.271298 0.116987
H18   H     H_    0.524958 0.231756 0.265065 0.167962
H19   H     H_    0.696010 0.270150 0.331406 0.114015
H20   H     H_    0.585684 0.063205 0.218511 0.126598
H21   H     H_    0.736116 0.172452 0.204567 0.094012
H22   H     H_    0.779069 0.102017 0.271643 0.144280
H23   H     H_    0.720926 0.933502 0.258145 0.140073
H24   H     H_    0.163630 0.739837 0.152445 0.075923
H25   H     H_    0.141827 0.326501 0.732576 0.093758
H26   H     H_    0.931344 0.259162 0.724605 -0.092965
H27   H     H_    0.202883 0.233909 0.828994 0.145985
H28   H     H_    0.027638 0.297284 0.852212 0.072790
H29   H     H_    0.000532 0.155034 0.818348 0.110952
H30   H     H_    0.645074 0.214561 0.683672 -0.061789
H31   H     H_    0.463349 0.124823 0.690900 0.059754
H32   H     H_    0.732201 0.220256 0.809415 0.083379
H33   H     H_    0.690185 0.084935 0.760678 0.073372
H34   H     H_    0.061362 0.693746 0.268527 0.073816
H35   H     H_    0.827063 0.478850 0.655013 0.065192
H36   H     H_    0.574653 0.394695 0.871589 0.103837
H37   H     H_    0.874690 0.351903 0.196076 0.090031
H38   H     H_    0.303171 0.666224 0.802284 0.101258
H39   H     H_    0.584631 0.658480 0.137586 0.106712
H40   H     H_    0.665521 0.400824 0.991609 0.070979
H41   H     H_    0.772103 0.358393 0.079951 0.055220
H42   H     H_    0.397283 0.675589 0.921791 0.058693
H43   H     H_    0.271762 0.762251 0.278791 -0.079805
H44   H     H_    0.487304 0.666134 0.022053 0.066944
H45   H     H_    0.325783 0.031647 0.432536 0.115287
H46   H     H_    0.866956 0.963005 0.582534 0.108896
H47   H     H_    0.810620 0.266249 0.538308 0.041419
H48   H     H_    0.380840 0.725355 0.467045 0.074813
H49   H     H_    0.998484 0.809311 0.184743 0.140838
H50   H     H_    0.207721 0.878909 0.195432 0.114410
H51   H     H_    0.337377 0.753000 0.596109 0.003480
H52   H     H_    0.123090 0.755914 0.579439 0.080676
O1    O     O_2   0.873090 0.425890 0.325140 -0.436280
O2    O     O_3   0.691099 0.792329 0.651129 -0.641854
O3    O     O_3   0.096302 0.851138 0.323410 -0.597027
O4    O     O_2   0.316610 0.574140 0.674900 -0.459146
O5    O     O_3   0.067290 0.565720 0.585630 -0.509256
O6    O     O_3   0.530210 0.372990 0.631200 -0.465675
O7    O     O_3   0.192954 0.744754 0.683625 -0.644681
O8    O     O_3   0.611340 0.366290 0.463630 -0.405229
O9    O     O_3   0.108550 0.314140 0.595200 -0.488398
O10   O     O_2   0.193245 0.123834 0.553484 -0.486360
O11   O     O_3   0.105852 0.164788 0.687748 -0.596247
O12   O     O_3   0.122420 0.434370 0.414380 -0.471569
O13   O     O_3   0.578370 0.633800 0.536380 -0.455549
O14   O     O_2   0.341510 0.231850 0.465510 -0.480637
O15   O     O_3   0.501512 0.156615 0.351062 -0.646183
O16   O     O_2   0.427621 0.469951 0.755992 -0.489218
O17   O     O_3   0.462481 0.274201 0.751479 -0.598317
O18   O     O_3   0.659500 0.627100 0.368810 -0.406895
O19   O     O_2   0.775122 0.561927 0.238797 -0.462535
O20   O     O_3   0.994134 0.254247 0.319950 -0.624681
O21   O     O_3   0.697088 0.750087 0.261461 -0.622472
O22   O     O_2   0.848200 0.768190 0.534530 -0.479050
O23   O     O_3   0.081160 0.685950 0.404810 -0.499736
O24   O     O_2   0.007295 0.877597 0.456856 -0.492442
P1    P     P_3+3 0.041040 0.394770 0.336330 1.049416
P2    P     P_3+3 0.672880 0.754030 0.556100 0.980546
P3    P     P_3+3 0.132089 0.822807 0.408961 0.934658
P4    P     P_3+3 0.148670 0.605320 0.663680 0.964875
P5    P     P_3+3 0.064497 0.178645 0.598804 0.952171
P6    P     P_3+3 0.639656 0.621194 0.274565 1.050899
P7    P     P_3+3 0.525093 0.226357 0.443739 0.978506
P8    P     P_3+3 0.546643 0.393723 0.725761 0.950088
C53   C     C_3   0.519221 0.128829 0.845033 -0.171595
C54   C     C_3   0.383966 0.032813 0.818877 -0.198306
C55   C     C_3   0.282063 0.003666 0.881853 -0.433626
H53   H     H_    0.360187 0.981650 0.922817 0.132345
H54   H     H_    0.223525 0.071814 0.908245 0.132402
H55   H     H_    0.184707 0.934463 0.860939 0.134446
H56   H     H_    0.301256 0.052075 0.778568 0.152203
H57   H     H_    0.439353 0.962875 0.793095 0.130837
H58   H     H_    0.595297 0.110799 0.888530 0.101692
H59   H     H_    0.464494 0.199572 0.869561 0.129969
S1    S     S_3+6 0.428441 0.421675 0.326399 -0.118062
O25   O     O_2   0.588077 0.411153 0.292991 -0.347944
O26   O     O_2   0.452174 0.480208 0.403510 -0.259197
O27   O     O_3   0.319001 0.299934 0.318122 -0.604960
H60   H     H_    0.289856 0.295875 0.367804 0.362354

loop_
_geom_bond_atom_site_label_1
_geom_bond_atom_site_label_2
_ccdc_geom_bond_type
C12   O3    S    
C14   H36   S    
C32   C35   A    
C5    O11   S    
Ba1   O22   S    
Ba1   P2    S    
C17   C29   A    
C2    H16   S    
Ba2   O12   S    
C5    C6    S    
O10   P5    D    
C19   H35   S    
C43   C44   A    
C13   C17   A    
O17   P8    S    
C53   H58   S    
C24   C25   A    
Ba2   P4    S    
O9    P5    S    
C46   P7    S    
C20   P4    S    
C6    H28   S    
C21   C27   A    
C35   C36   A    
C22   C24   A    
Ba1   Ba2   S    
C3    H18   S    
Ba1   O23   S    
C50   H7    S    
S1    O26   D    
C40   C44   A    
C3    C4    S    
C51   H10   S    
C52   H14   S    
Ba1   O8    S    
C18   P8    S    
C38   C47   A    
C6    H29   S    
C3    O15   S    
C9    C22   A    
C15   C18   A    
C39   H48   S    
C34   C45   S    
C32   C33   A    
Ba1   O13   S    
O8    P7    S    
O15   P7    S    
C6    H27   S    
C41   P3    S    
C28   H42   S    
O12   P1    S    
C7    H31   S    
C38   H47   S    
C9    C13   A    
C24   C32   A    
Ba2   O4    S    
C31   H44   S    
C25   C37   A    
C14   C15   A    
C10   H41   S    
C51   H11   S    
C7    C8    S    
C36   S1    S    
C47   P5    S    
C19   C20   A    
C39   C41   A    
C55   H53   S    
C34   O7    S    
O22   P2    D    
C4    H20   S    
C33   H39   S    
C53   H59   S    
C44   C46   A    
Ba2   O5    S    
O18   P6    S    
O3    P3    S    
C16   C21   A    
O6    P8    S    
C4    H21   S    
C54   C55   S    
O16   P8    D    
O1    P1    D    
C55   H55   S    
C54   H57   S    
Ba2   O14   S    
C16   C17   A    
C52   H13   S    
C51   C52   S    
C34   H52   S    
C23   H24   S    
C1    H17   S    
C22   C30   A    
C27   C28   A    
C45   H3    S    
Ba2   O9    S    
C29   C30   A    
C28   C29   A    
Ba2   O13   S    
Ba2   O6    S    
C18   C19   A    
C15   C16   A    
C35   P6    S    
C8    H33   S    
O5    P4    S    
O21   P6    S    
Ba1   O1    S    
O23   P3    S    
C7    O17   S    
O19   P6    D    
C10   C26   A    
O7    P4    S    
C11   C13   A    
C2    H1    S    
C39   C42   A    
S1    O27   S    
C1    H12   S    
C49   H5    S    
C40   C41   A    
C1    C2    S    
C1    H23   S    
C42   C43   A    
C12   H43   S    
C5    H25   S    
C38   C46   A    
C8    H32   S    
C2    O21   S    
C34   H51   S    
C49   O20   S    
C23   H49   S    
Ba1   P1    S    
C50   H9    S    
O13   P2    S    
C54   H56   S    
C53   C54   S    
C23   H50   S    
C4    H22   S    
O14   P7    D    
C42   P2    S    
C48   H46   S    
C11   H40   S    
C30   C31   A    
C55   H54   S    
Ba1   O18   S    
C12   H34   S    
C49   C50   S    
C50   H8    S    
S1    O25   D    
Ba1   O5    S    
C45   H4    S    
C43   C48   A    
Ba2   O8    S    
C51   O2    S    
C36   C37   A    
C52   H15   S    
C37   P1    S    
O20   P1    S    
C31   C33   A    
C26   H37   S    
Ba1   O12   S    
C12   C23   S    
C3    H19   S    
O2    P2    S    
O4    P4    D    
C7    H30   S    
O24   P3    D    
O27   H60   S    
C47   C48   A    
C8    C53   S    
C11   C14   A    
C25   C26   A    
C20   C21   A    
C45   H2    S    
C49   H6    S    
C40   H45   S    
C27   H38   S    
C9    C10   A    
C5    H26   S    
O11   P5    S    
