data_mof_unit_59044.cif
_audit_creation_date              2012-12-10T17:13:39-0500
_audit_creation_method            fapswitch 2.2
_symmetry_space_group_name_H-M    P1
_symmetry_Int_Tables_number       1
_space_group_crystal_system       triclinic
_cell_length_a                    27.077169
_cell_length_b                    10.584397
_cell_length_c                    10.033747
_cell_angle_alpha                 91.947018
_cell_angle_beta                  90.098583
_cell_angle_gamma                 90.365519
_cell_volume                      2873.90273889

loop_
_atom_site_label
_atom_site_type_symbol
_atom_type_description
_atom_site_fract_x
_atom_site_fract_y
_atom_site_fract_z
_atom_type_partial_charge
C1    C     C_R   0.501753 0.262394 0.497416 0.783080
C2    C     C_R   0.275073 0.396804 0.525715 0.486269
C3    C     C_R   0.254580 0.507244 0.589922 -0.003774
C4    C     C_R   0.107763 0.492177 0.698353 -0.148619
C5    C     C_R   0.134621 0.378597 0.697671 -0.089667
C6    C     C_R   0.109294 0.262083 0.693543 0.489584
C7    C     C_R   0.133258 0.607331 0.718131 -0.102024
C8    C     C_R   0.352619 0.505223 0.504245 -0.112617
C9    C     C_R   0.648720 0.498556 0.503151 -0.137984
C10   C     C_R   0.978563 0.374249 0.648534 0.089408
C11   C     C_R   0.981212 0.605933 0.630307 -0.025037
C12   C     C_R   0.405867 0.500075 0.500132 0.880814
C13   C     C_R   0.954871 0.489917 0.620614 0.074976
C14   C     C_R   0.949720 0.262429 0.648447 -0.221701
C15   C     C_R   0.899950 0.263516 0.615676 -0.143435
C16   C     C_R   0.877068 0.375759 0.581344 -0.010136
C17   C     C_R   0.904418 0.489530 0.582503 -0.115597
C18   C     C_R   0.881205 0.602716 0.546291 -0.158866
C19   C     C_R   0.830342 0.599627 0.516754 0.619161
C20   C     C_R   0.826760 0.377531 0.549909 0.594850
C21   C     C_R   0.728003 0.487879 0.389244 0.436294
C22   C     C_R   0.676156 0.491322 0.384654 -0.325399
C23   C     C_R   0.494696 0.737060 0.502066 0.831881
C24   C     C_R   0.673241 0.503090 0.626478 -0.348560
C25   C     C_R   0.724735 0.499988 0.632468 0.422252
C26   C     C_R   0.751820 0.491868 0.513667 0.246963
C27   C     C_R   0.030336 0.374099 0.671403 0.024208
C28   C     C_R   0.055966 0.491056 0.683579 0.026893
C29   C     C_R   0.030513 0.607535 0.678012 -0.048133
C30   C     C_R   0.057667 0.260974 0.679739 -0.340605
C31   C     C_R   0.107069 0.719450 0.737039 -0.214887
C32   C     C_R   0.958468 0.715362 0.583561 -0.276151
C33   C     C_R   0.909429 0.714775 0.541127 0.485172
C34   C     C_R   0.594575 0.499951 0.500349 0.907804
C35   C     C_R   0.055990 0.720586 0.720185 0.433683
C36   C     C_2   0.471474 0.931423 0.397462 0.369991
C37   C     C_2   0.477621 0.865586 0.508817 0.258048
C38   C     C_2   0.471144 0.068058 0.411937 -0.337173
C39   C     C_2   0.505338 0.128503 0.487394 0.425846
C40   C     C_2   0.534692 0.555006 0.925903 0.359775
C41   C     C_2   0.532769 0.561549 0.078505 0.529498
C42   C     C_R   0.186560 0.387276 0.694751 0.610173
C43   C     C_R   0.184830 0.606431 0.716101 0.630295
C44   C     C_R   0.279018 0.624235 0.564776 0.523650
C45   C     C_R   0.329566 0.620399 0.530192 -0.367816
C46   C     C_R   0.324954 0.394755 0.493033 -0.306428
H1    H     H_    0.342010 0.306903 0.459583 0.156381
H2    H     H_    0.126164 0.807759 0.760548 0.200246
H3    H     H_    0.978682 0.802369 0.572485 0.215786
H4    H     H_    0.652480 0.508670 0.718571 0.218773
H5    H     H_    0.443904 0.120067 0.356287 0.093868
H6    H     H_    0.466792 0.484300 0.894534 0.191179
H7    H     H_    0.657403 0.487743 0.289129 0.182804
H8    H     H_    0.879390 0.175432 0.617753 0.203002
H9    H     H_    0.964144 0.172385 0.675942 0.155191
H10   H     H_    0.040221 0.169547 0.669561 0.153739
H11   H     H_    0.351509 0.705434 0.521746 0.102569
N1    N     N_R   0.208652 0.500729 0.667647 -0.349645
N2    N     N_R   0.804479 0.488714 0.521574 -0.318844
N3    N     N_2   0.500520 0.501330 0.852150 -0.204603
N4    N     N_2   0.500540 0.501360 0.147810 0.019756
O1    O     O_R   0.499990 0.319060 0.613040 -0.583406
O2    O     O_2   0.799905 0.269631 0.550380 -0.549482
O3    O     O_2   0.210280 0.705566 0.769397 -0.543949
O4    O     O_2   0.806378 0.706433 0.486911 -0.492824
O5    O     O_R   0.500010 0.319100 0.386900 -0.648984
O6    O     O_R   0.428750 0.500000 0.613050 -0.618999
O7    O     O_R   0.428760 0.500040 0.386920 -0.627335
O8    O     O_R   0.499990 0.680900 0.613100 -0.613667
O9    O     O_R   0.500010 0.680940 0.386960 -0.532516
O10   O     O_R   0.571240 0.499960 0.613080 -0.572889
O11   O     O_R   0.571250 0.500000 0.386950 -0.566317
O12   O     O_2   0.214342 0.286593 0.723727 -0.457306
Zn1   Zn    Zn3+2 0.499990 0.499970 0.650990 0.979787
Zn2   Zn    Zn3+2 0.500010 0.500030 0.349010 1.015519
O13   O     O_3   0.250678 0.733078 0.551718 -0.583354
C47   C     C_3   0.277662 0.847140 0.571044 0.073172
H12   H     H_    0.300185 0.865857 0.481149 0.122423
H13   H     H_    0.301615 0.844637 0.661345 0.146588
C48   C     C_3   0.241785 0.956337 0.590395 -0.622412
H14   H     H_    0.219346 0.943944 0.681570 0.284621
H15   H     H_    0.262636 0.046807 0.601077 0.243202
H16   H     H_    0.216724 0.960608 0.502989 0.242854
O14   O     O_3   0.888785 0.826996 0.502347 -0.559768
C49   C     C_3   0.901797 0.846611 0.368349 0.098976
H17   H     H_    0.887845 0.767682 0.301872 0.158585
H18   H     H_    0.942581 0.855288 0.356860 0.111550
C50   C     C_3   0.878625 0.968858 0.324110 -0.705021
H19   H     H_    0.892656 0.049829 0.386847 0.244112
H20   H     H_    0.888231 0.984710 0.218394 0.192166
H21   H     H_    0.837808 0.963299 0.333521 0.286668
O15   O     O_3   0.749724 0.504890 0.752701 -0.745408
H22   H     H_    0.725451 0.510618 0.826537 0.341178
O16   O     O_3   0.032152 0.833858 0.745692 -0.640757
C51   C     C_3   0.011340 0.832329 0.874459 0.094740
H23   H     H_    0.040762 0.824518 0.951479 0.146594
H24   H     H_    0.984583 0.752616 0.883237 0.154740
C52   C     C_3   0.983713 0.955243 0.901248 -0.809742
H25   H     H_    0.953650 0.964613 0.826812 0.264571
H26   H     H_    0.967332 0.955764 0.002665 0.207331
H27   H     H_    0.009439 0.036953 0.894536 0.253476
O17   O     O_3   0.475003 0.874594 0.271115 -0.580083
C53   C     C_3   0.431224 0.894907 0.198563 0.106615
H28   H     H_    0.432478 0.989732 0.154181 0.155464
H29   H     H_    0.397487 0.887055 0.261719 0.106889
C54   C     C_3   0.427241 0.795042 0.086258 -0.802790
H30   H     H_    0.425115 0.699448 0.128332 0.259724
H31   H     H_    0.393417 0.810829 0.026512 0.207100
H32   H     H_    0.460016 0.799976 0.020179 0.237183
O18   O     O_3   0.469191 0.921475 0.633965 -0.576372
C55   C     C_3   0.418920 0.905633 0.666983 0.037078
H33   H     H_    0.412039 0.806807 0.696979 0.152677
H34   H     H_    0.393827 0.927851 0.582694 0.097922
C56   C     C_3   0.406409 0.995190 0.783550 -0.763379
H35   H     H_    0.410620 0.094658 0.753251 0.262469
H36   H     H_    0.367679 0.979210 0.815416 0.199341
H37   H     H_    0.431538 0.978986 0.868691 0.260132
O19   O     O_3   0.247274 0.290679 0.491174 -0.576718
C57   C     C_3   0.217503 0.317597 0.380110 0.092721
H38   H     H_    0.240754 0.344035 0.293691 0.145698
H39   H     H_    0.191194 0.395484 0.404423 0.132901
C58   C     C_3   0.187574 0.200430 0.339609 -0.781035
H40   H     H_    0.163788 0.172009 0.423657 0.277417
H41   H     H_    0.163770 0.220656 0.252766 0.210561
H42   H     H_    0.212725 0.121439 0.311666 0.249943
O20   O     O_3   0.542648 0.064995 0.553094 -0.588429
C59   C     C_3   0.590057 0.110225 0.517367 0.068057
H43   H     H_    0.590359 0.172347 0.429613 0.118402
H44   H     H_    0.613115 0.027191 0.489082 0.185812
C60   C     C_3   0.614510 0.179059 0.636193 -0.790442
H45   H     H_    0.618293 0.114685 0.720480 0.256796
H46   H     H_    0.651824 0.212636 0.607535 0.230112
H47   H     H_    0.592225 0.261575 0.669545 0.270930
O21   O     O_3   0.574428 0.609715 0.862592 -0.617766
C61   C     C_3   0.566924 0.741776 0.857908 0.101313
H48   H     H_    0.574904 0.789165 0.956016 0.152365
H49   H     H_    0.528406 0.766002 0.829867 0.182918
C62   C     C_3   0.601971 0.796657 0.756282 -0.712209
H50   H     H_    0.595166 0.752794 0.655904 0.257296
H51   H     H_    0.596025 0.899916 0.751564 0.228859
H52   H     H_    0.640853 0.779304 0.785559 0.239915
O22   O     O_3   0.566692 0.634612 0.149673 -0.742608
H53   H     H_    0.597313 0.639772 0.096437 0.324450
O23   O     O_3   0.480590 0.396962 0.089972 -0.771328
H54   H     H_    0.461046 0.357838 0.161033 0.376106
O24   O     O_3   0.135450 0.150346 0.696153 -0.728583
H55   H     H_    0.112182 0.077580 0.692427 0.333916
O25   O     O_3   0.756176 0.480258 0.274773 -0.741774
H56   H     H_    0.733882 0.478455 0.196196 0.339553

loop_
_geom_bond_atom_site_label_1
_geom_bond_atom_site_label_2
_ccdc_geom_bond_type
C10   C27   A    
C61   C62   S    
C21   C26   A    
O20   C59   S    
C40   N3    D    
C23   O8    A    
C55   H33   S    
C41   N4    D    
C5    C42   A    
C1    O1    A    
C42   N1    A    
C56   H35   S    
C2    O19   S    
C51   C52   S    
C61   H48   S    
C47   H12   S    
N4    Zn2   S    
O7    Zn2   S    
C12   O7    A    
C45   H11   S    
C54   H31   S    
C36   C37   D    
C4    C7    A    
C49   H17   S    
C5    C6    A    
C6    O24   S    
C9    C22   A    
C47   C48   S    
C54   H30   S    
C15   C16   A    
C36   O17   S    
C18   C19   A    
C44   O13   S    
C8    C45   A    
H6    N3    S    
C43   N1    A    
O19   C57   S    
O14   C49   S    
C51   H23   S    
C16   C17   A    
C25   O15   S    
C7    C43   A    
C53   C54   S    
C26   N2    S    
C16   C20   A    
C49   H18   S    
C14   H9    S    
C39   O20   S    
C21   C22   A    
C27   C30   A    
C23   O9    A    
O16   C51   S    
O11   Zn2   S    
C4    C28   A    
C43   O3    S    
C1    O5    A    
C22   H7    S    
C47   H13   S    
C24   H4    S    
C12   O6    A    
C3    C44   A    
C7    C31   A    
C15   H8    S    
C24   C25   A    
C53   H29   S    
C33   O14   S    
C10   C14   A    
O23   H54   S    
C38   H5    S    
C19   N2    A    
C21   O25   S    
C23   C37   S    
C40   O21   S    
C10   C13   A    
C2    C46   A    
O18   C55   S    
C60   H46   S    
C59   H44   S    
N4    O23   S    
C60   H45   S    
C50   H21   S    
C8    C12   S    
C17   C18   A    
O8    Zn1   S    
C55   H34   S    
O6    Zn1   S    
O13   C47   S    
C20   N2    A    
C37   O18   S    
C57   H39   S    
C62   H51   S    
C48   H15   S    
C40   C41   S    
C6    C30   A    
C50   H20   S    
C11   C32   A    
C52   H26   S    
C31   H2    S    
C9    C34   S    
C31   C35   A    
C60   H47   S    
C58   H41   S    
C59   H43   S    
C34   O11   A    
O9    Zn2   S    
C44   C45   A    
C48   H16   S    
O24   H55   S    
C49   C50   S    
C61   H49   S    
C46   H1    S    
C28   C29   A    
C42   O12   S    
C14   C15   A    
C48   H14   S    
C62   H52   S    
O10   Zn1   S    
C56   H36   S    
C57   H38   S    
C51   H24   S    
C9    C24   A    
O21   C61   S    
C52   H27   S    
C29   C35   A    
C13   C17   A    
C32   C33   A    
C35   O16   S    
C58   H42   S    
C36   C38   S    
C2    C3    A    
C25   C26   A    
C59   C60   S    
C41   O22   S    
C11   C13   A    
C38   C39   D    
C30   H10   S    
C20   O2    S    
O5    Zn2   S    
N3    Zn1   S    
O15   H22   S    
C57   C58   S    
C19   O4    S    
C55   C56   S    
O25   H56   S    
O17   C53   S    
C18   C33   A    
C8    C46   A    
C32   H3    S    
C56   H37   S    
C62   H50   S    
C1    C39   S    
C3    N1    S    
C4    C5    A    
C50   H19   S    
C11   C29   A    
C52   H25   S    
C53   H28   S    
O22   H53   S    
O1    Zn1   S    
C58   H40   S    
C34   O10   A    
C27   C28   A    
C54   H32   S    
