data_mof_unit_19560.cif
_audit_creation_date              2013-03-05T16:48:30-0500
_audit_creation_method            fapswitch 2.2
_symmetry_space_group_name_H-M    P1
_symmetry_Int_Tables_number       1
_space_group_crystal_system       triclinic
_cell_length_a                    10.839376
_cell_length_b                    14.70585
_cell_length_c                    14.753628
_cell_angle_alpha                 64.91067
_cell_angle_beta                  103.961176
_cell_angle_gamma                 102.864379
_cell_volume                      2047.48285629

loop_
_atom_site_label
_atom_site_type_symbol
_atom_site_description
_atom_site_fract_x
_atom_site_fract_y
_atom_site_fract_z
_atom_type_partial_charge
O1    O     O_R   0.455540 0.022090 0.338120 -0.546519
O2    O     O_R   0.544460 0.977910 0.661880 -0.546758
O3    O     O_R   0.512510 0.160150 0.379180 -0.600680
O4    O     O_R   0.487490 0.839850 0.620820 -0.600566
C1    C     C_R   0.471821 0.119552 0.312501 0.840488
C2    C     C_R   0.528181 0.880451 0.687499 0.840377
O5    O     O_R   0.291160 0.930970 0.479480 -0.573118
O6    O     O_R   0.708840 0.069030 0.520520 -0.573020
O7    O     O_R   0.348130 0.069020 0.520540 -0.592577
O8    O     O_R   0.651870 0.930980 0.479460 -0.592589
C3    C     C_R   0.262946 0.998824 0.502744 0.824692
C4    C     C_R   0.737052 0.001179 0.497245 0.824928
Cu1   Cu    Cu3+1 0.466270 0.918260 0.475690 0.981737
Cu2   Cu    Cu3+1 0.533730 0.081740 0.524310 0.981661
H1    H     H_    0.444858 0.229822 0.774325 0.188751
H2    H     H_    0.555977 0.769016 0.226264 0.188869
C5    C     C_R   0.362941 0.086072 0.762007 0.368929
C6    C     C_R   0.637186 0.913004 0.238292 0.368492
C7    C     C_R   0.268748 0.038989 0.705515 -0.154248
C8    C     C_R   0.731077 0.960374 0.294703 -0.153858
H3    H     H_    0.260051 0.958047 0.726446 0.149355
H4    H     H_    0.739486 0.041325 0.273604 0.149533
C9    C     C_R   0.187849 0.096598 0.619649 0.073173
C10   C     C_R   0.812181 0.903049 0.380621 0.073079
C11   C     C_R   0.198233 0.201320 0.592538 -0.158170
C12   C     C_R   0.802230 0.798323 0.407921 -0.158583
H5    H     H_    0.136466 0.246786 0.526717 0.150079
H6    H     H_    0.864166 0.753075 0.473776 0.150170
C13   C     C_R   0.290388 0.248276 0.648919 -0.121966
C14   C     C_R   0.710361 0.751083 0.351654 -0.122269
H7    H     H_    0.298607 0.329255 0.627158 0.186923
H8    H     H_    0.702501 0.670104 0.373551 0.186853
C15   C     C_R   0.373212 0.191412 0.732508 -0.121863
C16   C     C_R   0.627393 0.807663 0.267979 -0.121733
C17   C     C_R   0.964614 0.050038 0.549674 -0.161704
C18   C     C_R   0.035390 0.949977 0.450299 -0.161881
H9    H     H_    0.937574 0.087345 0.590107 0.196119
H10   H     H_    0.062444 0.912667 0.409874 0.196093
C19   C     C_R   0.870542 0.001780 0.494970 -0.097409
C20   C     C_R   0.129452 0.998222 0.505009 -0.097440
C21   C     C_R   0.906132 0.952030 0.443471 0.005284
C22   C     C_R   0.093864 0.047910 0.556562 0.005246
C23   C     C_R   0.437450 0.187110 0.205751 -0.140879
C24   C     C_R   0.562608 0.812910 0.794245 -0.141111
C25   C     C_R   0.298829 0.230809 0.042370 -0.145129
C26   C     C_R   0.701389 0.769197 0.957560 -0.144683
C27   C     C_R   0.331997 0.160120 0.140509 0.371933
C28   C     C_R   0.668167 0.839886 0.859428 0.371633
C29   C     C_R   0.504870 0.284749 0.172386 -0.250940
C30   C     C_R   0.495163 0.715284 0.827653 -0.250505
C31   C     C_R   0.465170 0.360050 0.077129 0.076996
C32   C     C_R   0.534966 0.639972 0.922870 0.077049
C33   C     C_R   0.363919 0.330464 0.009322 -0.039496
C34   C     C_R   0.636289 0.669549 0.990636 -0.039416
C35   C     C_R   0.521349 0.463807 0.048827 0.023752
C36   C     C_R   0.478822 0.536210 0.951162 0.023681
C37   C     C_R   0.384069 0.502240 0.883543 -0.259103
C38   C     C_R   0.616183 0.497769 0.116412 -0.259090
C39   C     C_R   0.326028 0.401958 0.911418 0.336150
C40   C     C_R   0.674259 0.598044 0.088515 0.336085
H11   H     H_    0.412336 0.700586 0.776031 0.161585
H12   H     H_    0.587592 0.299458 0.224077 0.161646
H13   H     H_    0.215278 0.208641 0.995179 0.223222
H14   H     H_    0.785009 0.791347 0.004707 0.223245
H15   H     H_    0.353786 0.551270 0.806298 0.175471
H16   H     H_    0.646565 0.448737 0.193632 0.175465
N1    N     N_R   0.584450 0.204570 0.560790 -0.201827
N2    N     N_R   0.415550 0.795430 0.439210 -0.201846
C41   C     C_R   0.717568 0.285610 0.666787 -0.252646
C42   C     C_R   0.282423 0.714383 0.333221 -0.252422
C43   C     C_R   0.682705 0.203670 0.637910 0.112468
C44   C     C_R   0.317278 0.796319 0.362104 0.112258
C45   C     C_R   0.518023 0.285296 0.508985 0.014404
C46   C     C_R   0.482001 0.714716 0.490997 0.014446
C47   C     C_R   0.548877 0.371693 0.534432 -0.022499
C48   C     C_R   0.451143 0.628317 0.465554 -0.022342
C49   C     C_R   0.650868 0.369606 0.615711 0.125883
C50   C     C_R   0.349141 0.630397 0.384284 0.125823
C51   C     C_R   0.481839 0.458542 0.483782 0.068787
C52   C     C_R   0.518182 0.541468 0.516203 0.068911
C53   C     C_R   0.620468 0.534875 0.597824 -0.232358
C54   C     C_R   0.379547 0.465131 0.402165 -0.232306
C55   C     C_R   0.685285 0.450815 0.646111 -0.156729
C56   C     C_R   0.314724 0.549188 0.353884 -0.156551
H17   H     H_    0.763199 0.449240 0.708459 0.170250
H18   H     H_    0.236802 0.550759 0.291542 0.170349
H19   H     H_    0.559313 0.720757 0.550353 0.133586
H20   H     H_    0.440728 0.279264 0.449615 0.133570
H21   H     H_    0.266080 0.861092 0.322648 0.201551
H22   H     H_    0.733882 0.138885 0.677383 0.201561
H23   H     H_    0.795908 0.283111 0.729031 0.190530
H24   H     H_    0.204070 0.716875 0.270987 0.190617
H25   H     H_    0.653206 0.593662 0.626745 0.141375
H26   H     H_    0.346806 0.406343 0.373247 0.141355
N3    N     N_R   0.448125 0.027498 0.848187 0.151019
O9    O     O_R   0.545148 0.072192 0.892686 -0.273417
O10   O     O_R   0.429307 0.928934 0.883150 -0.337177
N4    N     N_R   0.551876 0.971278 0.151967 0.151185
O11   O     O_R   0.456419 0.926324 0.106464 -0.272319
O12   O     O_R   0.569142 0.069824 0.117747 -0.338307
N5    N     N_R   0.228977 0.374526 0.838127 0.112558
O13   O     O_R   0.145743 0.435496 0.779259 -0.363072
O14   O     O_R   0.235964 0.297497 0.818890 -0.370301
N6    N     N_R   0.771451 0.625449 0.161751 0.112531
O15   O     O_R   0.854707 0.564464 0.220520 -0.363110
O16   O     O_R   0.764605 0.702478 0.181041 -0.370176
N7    N     N_R   0.749333 0.935003 0.825034 0.116697
O17   O     O_R   0.804630 0.959456 0.747257 -0.411545
O18   O     O_R   0.790164 0.985315 0.883325 -0.288607
N8    N     N_R   0.250921 0.064952 0.174832 0.116683
O19   O     O_R   0.210542 0.014539 0.116609 -0.288787
O20   O     O_R   0.195327 0.040479 0.252464 -0.411490

loop_
_geom_bond_atom_site_label_1
_geom_bond_atom_site_label_2
_geom_bond_distance
_ccdc_geom_bond_type
C35   C36   1.421045 A    
N5    O13   1.301499 A    
C54   H26   1.076339 S    
C42   C50   1.400623 A    
C45   C47   1.421896 A    
N2    C46   1.362910 A    
C41   C49   1.400627 A    
N3    O9    1.301545 A    
N6    O16   1.300268 A    
C33   C39   1.406628 A    
C19   C21   1.414183 A    
C34   C40   1.406629 A    
O5    C3    1.297712 A    
C9    C22   1.483107 S    
C46   C48   1.421898 A    
O1    C1    1.299375 A    
C17   H9    1.084558 S    
C48   C50   1.416086 A    
C17   C19   1.400413 A    
C37   C39   1.391814 A    
C28   N7    1.433032 S    
C49   C55   1.393441 A    
C38   C40   1.391819 A    
C13   C15   1.397000 A    
C36   C37   1.414015 A    
C41   C43   1.389688 A    
C25   C27   1.394675 A    
O4    Cu1   1.937481 S    
C47   C49   1.416084 A    
C17   C22   1.386436 A    
N8    O19   1.301244 A    
H2    C16   1.082527 S    
C38   H16   1.074409 S    
C8    C10   1.405833 A    
C29   C31   1.409644 A    
C30   C32   1.409635 A    
Cu2   N1    2.023415 S    
N1    C45   1.362908 A    
C46   H19   1.075068 S    
C6    C8    1.407464 A    
N2    C44   1.355669 A    
C20   C22   1.414095 A    
C1    C23   1.470035 S    
C25   C33   1.408120 A    
N5    O14   1.300272 A    
C2    C24   1.470018 S    
Cu1   Cu2   2.693625 S    
C10   C21   1.483206 S    
N7    O18   1.301176 A    
C18   C21   1.386445 A    
O2    C2    1.299336 A    
C5    C15   1.405847 A    
N6    O15   1.301490 A    
C53   C55   1.388398 A    
C32   C34   1.421709 A    
C6    C16   1.405958 A    
C11   C13   1.394848 A    
C26   C28   1.394701 A    
C14   C16   1.396969 A    
C32   C36   1.428947 A    
C39   N5    1.438990 S    
C18   C20   1.400309 A    
O4    C2    1.300117 A    
C23   C29   1.394634 A    
C31   C35   1.428981 A    
C25   H13   1.080727 S    
C26   H14   1.080719 S    
C31   C33   1.421729 A    
C7    C9    1.405750 A    
O7    Cu2   1.967901 S    
C45   H20   1.075065 S    
C53   H25   1.076339 S    
O6    C4    1.297753 A    
C26   C34   1.408099 A    
O7    C3    1.294430 A    
O3    Cu2   1.937481 S    
O8    C4    1.294402 A    
C5    N3    1.438762 S    
C55   H17   1.084308 S    
C8    H4    1.083285 S    
C12   C14   1.394814 A    
C54   C56   1.388397 A    
O1    Cu1   1.949724 S    
N7    O17   1.300491 A    
C24   C30   1.394620 A    
O6    Cu2   1.964393 S    
C29   H12   1.075152 S    
C7    H3    1.083270 S    
C42   H24   1.083861 S    
C48   C52   1.435100 A    
C37   H15   1.074440 S    
C52   C53   1.411875 A    
O3    C1    1.300088 A    
O8    Cu1   1.967901 S    
C51   C54   1.411873 A    
N3    O10   1.301416 A    
C11   H5    1.083190 S    
C27   N8    1.432985 S    
C12   H6    1.083224 S    
C4    C19   1.453395 S    
C18   H10   1.084566 S    
C13   H7    1.082360 S    
C41   H23   1.083860 S    
C14   H8    1.082402 S    
C44   H21   1.078622 S    
C10   C12   1.402382 A    
C43   H22   1.078637 S    
C23   C27   1.407725 A    
C5    C7    1.407298 A    
N1    C43   1.355671 A    
C9    C11   1.402315 A    
C3    C20   1.453394 S    
O2    Cu2   1.949724 S    
N4    O12   1.301713 A    
N8    O20   1.300529 A    
C51   C52   1.435615 A    
C50   C56   1.393437 A    
O5    Cu1   1.964392 S    
N4    O11   1.301900 A    
C35   C38   1.414041 A    
C30   H11   1.075198 S    
C56   H18   1.084309 S    
C42   C44   1.389687 A    
C6    N4    1.438929 S    
C40   N6    1.439006 S    
C47   C51   1.435099 A    
H1    C15   1.082503 S    
C24   C28   1.407783 A    
Cu1   N2    2.023415 S    
