data_mof_unit_39657.cif
_audit_creation_date              2012-12-10T17:59:18-0500
_audit_creation_method            fapswitch 2.2
_symmetry_space_group_name_H-M    P1
_symmetry_Int_Tables_number       1
_space_group_crystal_system       triclinic
_cell_length_a                    10.815573
_cell_length_b                    9.678793
_cell_length_c                    10.803366
_cell_angle_alpha                 88.772148
_cell_angle_beta                  93.610763
_cell_angle_gamma                 89.829739
_cell_volume                      1128.39993262

loop_
_atom_site_label
_atom_site_type_symbol
_atom_type_description
_atom_site_fract_x
_atom_site_fract_y
_atom_site_fract_z
_atom_type_partial_charge
C1    C     C_R   0.262174 0.499827 0.498342 0.824183
C2    C     C_3   0.627542 0.537688 0.930527 -0.548315
C3    C     C_R   0.066837 0.419142 0.585841 0.120440
C4    C     C_R   0.055747 0.569475 0.401423 0.091117
C5    C     C_R   0.938315 0.419637 0.584687 -0.244806
C6    C     C_R   0.926984 0.572251 0.404006 -0.212044
C7    C     C_R   0.869415 0.498777 0.496365 -0.057710
C8    C     C_R   0.126910 0.498221 0.496403 -0.007247
C9    C     C_R   0.413901 0.077277 0.424997 0.265704
C10   C     C_R   0.416030 0.928187 0.421827 0.221701
C11   C     C_R   0.582713 0.924279 0.574581 -0.068602
C12   C     C_R   0.583091 0.071556 0.574129 -0.076155
C13   C     C_R   0.502687 0.500622 0.260360 0.823637
C14   C     C_R   0.736654 0.499832 0.498392 0.826271
C15   C     C_R   0.498377 0.498167 0.739493 0.755805
C16   C     C_3   0.403022 0.599289 0.064804 -0.483148
C17   C     C_3   0.468615 0.352732 0.075142 -0.435129
C18   C     C_3   0.401630 0.603830 0.921521 0.005703
C19   C     C_3   0.470870 0.345313 0.932847 0.007431
C20   C     C_3   0.634778 0.541161 0.076026 0.354826
C21   C     C_3   0.504274 0.499481 0.121950 0.103905
C22   C     C_3   0.495688 0.494395 0.877508 0.017560
Cu1   Cu    Cu3+1 0.500020 0.640660 0.500000 0.934238
Cu2   Cu    Cu3+1 0.500020 0.359340 0.500000 0.927719
H1    H     H_    0.422456 0.704105 0.098106 0.191682
H2    H     H_    0.530853 0.271178 0.118386 0.176496
H3    H     H_    0.649437 0.868210 0.635444 0.131477
H4    H     H_    0.650302 0.124312 0.634432 0.128411
H5    H     H_    0.311460 0.568791 0.098081 0.170672
H6    H     H_    0.375001 0.327636 0.106423 0.164250
H7    H     H_    0.438054 0.707089 0.894228 0.177615
H8    H     H_    0.552202 0.280593 0.912116 0.161419
H9    H     H_    0.652026 0.640398 0.890813 0.164507
H10   H     H_    0.698031 0.465159 0.897832 0.147936
H11   H     H_    0.892361 0.360073 0.654396 0.131502
H12   H     H_    0.871829 0.627980 0.331868 0.161420
N1    N     N_R   0.500030 0.852070 0.500030 -0.198278
N2    N     N_R   0.500030 0.147930 0.500030 -0.192840
O1    O     O_R   0.319660 0.618740 0.499990 -0.607192
O2    O     O_R   0.319660 0.381260 0.499990 -0.575802
O3    O     O_R   0.499990 0.618790 0.317690 -0.582766
O4    O     O_R   0.499990 0.381210 0.317690 -0.621143
O5    O     O_R   0.680370 0.618830 0.500010 -0.576150
O6    O     O_R   0.680370 0.381170 0.500010 -0.574964
O7    O     O_R   0.500030 0.618780 0.682310 -0.583941
O8    O     O_R   0.500030 0.381220 0.682310 -0.592014
C23   C     C_3   0.267972 0.594423 0.860447 -0.373613
C24   C     C_3   0.203482 0.735202 0.849859 -0.875445
H13   H     H_    0.198580 0.780946 0.942583 0.253843
H14   H     H_    0.254153 0.806464 0.789174 0.259166
H15   H     H_    0.107738 0.722861 0.808203 0.245192
H16   H     H_    0.269098 0.554318 0.765388 0.218460
H17   H     H_    0.210031 0.523909 0.914218 0.194209
C25   C     C_3   0.354007 0.267932 0.879843 -0.373569
C26   C     C_3   0.364116 0.112051 0.904239 -0.893224
H18   H     H_    0.442593 0.068408 0.855939 0.251749
H19   H     H_    0.378306 0.089358 0.005034 0.252924
H20   H     H_    0.277316 0.061329 0.869017 0.250867
H21   H     H_    0.269473 0.304990 0.921657 0.196172
H22   H     H_    0.339281 0.283044 0.779014 0.266744
N3    N     N_3   0.668564 0.680881 0.118471 -0.571526
H23   H     H_    0.615126 0.756170 0.069127 0.196455
H24   H     H_    0.760031 0.702026 0.098341 0.199077
N4    N     N_3   0.730081 0.443354 0.128704 -0.590261
H25   H     H_    0.817814 0.477970 0.106961 0.202585
H26   H     H_    0.720032 0.347035 0.087531 0.197343
N5    N     N_3   0.135344 0.338139 0.678476 -0.631174
H27   H     H_    0.108623 0.235089 0.668639 0.221618
H28   H     H_    0.108110 0.368781 0.764865 0.195912
N6    N     N_3   0.112737 0.629548 0.297360 -0.642895
H29   H     H_    0.075976 0.728855 0.281692 0.225341
H30   H     H_    0.085678 0.571982 0.219533 0.206791
C27   C     C_3   0.314112 0.156250 0.345189 -0.312916
C28   C     C_3   0.183707 0.143528 0.393129 -0.826813
H31   H     H_    0.130800 0.056868 0.351627 0.232915
H32   H     H_    0.189130 0.130051 0.495492 0.259456
H33   H     H_    0.129016 0.238340 0.367690 0.240988
H34   H     H_    0.331030 0.264269 0.333486 0.243056
H35   H     H_    0.318168 0.134400 0.246593 0.159183
C29   C     C_3   0.314074 0.853842 0.343924 -0.304568
C30   C     C_3   0.291098 0.890594 0.205422 -0.978745
H36   H     H_    0.214505 0.965466 0.186540 0.259074
H37   H     H_    0.377945 0.924853 0.164982 0.256465
H38   H     H_    0.253958 0.799641 0.155460 0.249134
H39   H     H_    0.336704 0.747153 0.338006 0.291278
H40   H     H_    0.226890 0.858149 0.392135 0.199372

loop_
_geom_bond_atom_site_label_1
_geom_bond_atom_site_label_2
_ccdc_geom_bond_type
C26   H18   S    
C16   C21   S    
Cu1   O7    S    
C1    C8    S    
Cu2   O4    S    
C27   C28   S    
C4    C8    A    
C18   C23   S    
C4    N6    S    
C30   H36   S    
C25   H22   S    
C28   H32   S    
C12   H4    S    
C10   N1    A    
C17   H2    S    
Cu1   O5    S    
C11   N1    A    
C20   N3    S    
N3    H24   S    
C29   H40   S    
C1    O2    A    
Cu2   O2    S    
C15   C22   S    
C28   H33   S    
C2    C22   S    
Cu2   N2    S    
Cu1   Cu2   S    
N6    H29   S    
C7    C14   S    
C9    C10   A    
C23   H17   S    
C2    H10   S    
C24   H14   S    
C17   H6    S    
C9    C27   S    
C19   H8    S    
C13   O3    A    
C13   O4    A    
C30   H37   S    
C25   H21   S    
C24   H15   S    
C28   H31   S    
C2    C20   S    
N5    H27   S    
C19   C22   S    
C4    C6    A    
C3    C8    A    
C5    C7    A    
C10   C29   S    
C16   H5    S    
Cu1   N1    S    
C17   C21   S    
N5    H28   S    
N4    H26   S    
C20   N4    S    
C29   H39   S    
C23   C24   S    
C11   H3    S    
C27   H34   S    
C27   H35   S    
C13   C21   S    
C6    C7    A    
C2    H9    S    
C24   H13   S    
C26   H19   S    
Cu2   O6    S    
C15   O7    A    
C30   H38   S    
C19   C25   S    
C14   O6    A    
C16   H1    S    
C25   C26   S    
C18   C22   S    
C3    N5    S    
C29   C30   S    
C3    C5    A    
C11   C12   A    
C23   H16   S    
Cu1   O3    S    
Cu2   O8    S    
N4    H25   S    
Cu1   O1    S    
C5    H11   S    
C9    N2    A    
C17   C19   S    
C6    H12   S    
C12   N2    A    
N3    H23   S    
C1    O1    A    
C20   C21   S    
C16   C18   S    
C26   H20   S    
N6    H30   S    
C18   H7    S    
C15   O8    A    
C14   O5    A    
