data_mof_unit_51392.cif
_audit_creation_date              2012-12-11T15:59:26-0500
_audit_creation_method            fapswitch 2.2
_symmetry_space_group_name_H-M    P1
_symmetry_Int_Tables_number       1
_space_group_crystal_system       triclinic
_cell_length_a                    10.782976
_cell_length_b                    10.763929
_cell_length_c                    17.104771
_cell_angle_alpha                 99.259195
_cell_angle_beta                  99.829704
_cell_angle_gamma                 61.126173
_cell_volume                      1705.88069512

loop_
_atom_site_label
_atom_site_type_symbol
_atom_type_description
_atom_site_fract_x
_atom_site_fract_y
_atom_site_fract_z
_atom_type_partial_charge
C1    C     C_R   0.358260 0.766062 0.396829 0.522806
C2    C     C_R   0.934122 0.175819 0.217740 0.011895
C3    C     C_R   0.912171 0.195980 0.299132 0.017723
C4    C     C_R   0.854988 0.442290 0.302537 -0.125464
C5    C     C_R   0.913565 0.417195 0.233210 -0.017193
C6    C     C_R   0.951503 0.043509 0.176446 -0.086311
C7    C     C_R   0.963895 0.934315 0.216540 -0.143682
C8    C     C_R   0.964678 0.950985 0.298724 -0.123641
C9    C     C_R   0.939310 0.080475 0.339900 -0.087209
C10   C     C_R   0.856298 0.333598 0.336851 -0.016881
C11   C     C_R   0.358479 0.812943 0.156111 0.002199
C12   C     C_R   0.370348 0.347168 0.357414 0.551976
C13   C     C_R   0.451529 0.846314 0.214464 0.027886
C14   C     C_R   0.437861 0.851359 0.295742 0.018343
C15   C     C_R   0.293107 0.730293 0.255745 -0.134553
C16   C     C_R   0.291248 0.742615 0.176745 -0.155231
C17   C     C_R   0.556010 0.876122 0.194662 -0.084713
C18   C     C_R   0.632396 0.925500 0.253180 -0.128545
C19   C     C_R   0.609180 0.943110 0.332477 -0.107638
C20   C     C_R   0.511330 0.908460 0.353666 -0.099531
C21   C     C_R   0.353675 0.795656 0.316005 0.018808
C22   C     C_R   0.328297 0.332066 0.818779 -0.023211
C23   C     C_R   0.779101 0.376364 0.405847 0.538322
C24   C     C_R   0.452451 0.236829 0.781721 -0.003279
C25   C     C_R   0.438368 0.206139 0.698973 0.039498
C26   C     C_R   0.206559 0.418385 0.690114 -0.026274
C27   C     C_R   0.206514 0.422851 0.772266 -0.135407
C28   C     C_R   0.584696 0.158510 0.825699 -0.068664
C29   C     C_R   0.688400 0.031205 0.791895 0.012883
C30   C     C_R   0.661141 0.984911 0.712782 -0.093511
C31   C     C_R   0.536133 0.069125 0.665581 0.044380
C32   C     C_R   0.328489 0.315004 0.653705 0.001621
C33   C     C_1   0.816957 0.342142 0.709098 -0.045209
C34   C     C_R   0.360539 0.763860 0.628433 0.547309
C35   C     C_1   0.844317 0.314186 0.776870 -0.040888
C36   C     C_1   0.340852 0.806980 0.710164 -0.047451
C37   C     C_1   0.313539 0.837198 0.777838 -0.043033
C38   C     C_R   0.960026 0.281782 0.100037 0.560346
C39   C     C_R   0.319124 0.298873 0.120045 0.543055
C40   C     C_R   0.298586 0.886600 0.083589 0.540913
C41   C     C_R   0.886323 0.297473 0.859096 0.561728
C42   C     C_R   0.307875 0.294241 0.892823 0.541428
C43   C     C_R   0.278266 0.885808 0.857181 0.555267
C44   C     C_R   0.367990 0.344853 0.583043 0.539962
C45   C     C_R   0.772667 0.380909 0.629852 0.539458
C46   C     C_1   0.344012 0.336794 0.274027 -0.037197
C47   C     C_1   0.332906 0.325747 0.203266 -0.049416
C48   C     C_R   0.934900 0.290195 0.183524 0.000276
Cr1   Cr    Cr6+3 0.608100 0.610860 0.522250 0.976116
Cr2   Cr    Cr6+3 0.288890 0.599990 0.488420 0.983205
Cr3   Cr    Cr6+3 0.603040 0.289190 0.489390 0.995327
Cr4   Cr    Cr6+3 0.053960 0.052250 0.967380 0.972392
Cr5   Cr    Cr6+3 0.059890 0.373160 0.992710 0.987574
Cr6   Cr    Cr6+3 0.373370 0.061690 0.991710 1.005395
H1    H     H_    0.809162 0.550110 0.330671 0.165988
H2    H     H_    0.709687 0.950122 0.236682 0.131244
H3    H     H_    0.668764 0.981701 0.377857 0.126623
H4    H     H_    0.494199 0.926698 0.415442 0.116399
H5    H     H_    0.603253 0.191718 0.887937 0.127954
H6    H     H_    0.108542 0.492140 0.798988 0.141333
H7    H     H_    0.736868 0.881700 0.688133 0.096435
H8    H     H_    0.951692 0.018861 0.113566 0.176505
H9    H     H_    0.976280 0.835042 0.183591 0.098960
H10   H     H_    0.980556 0.866221 0.331454 0.121771
H11   H     H_    0.939940 0.089726 0.403886 0.121459
H12   H     H_    0.244595 0.670729 0.269771 0.135999
H13   H     H_    0.584747 0.856030 0.134727 0.136084
H14   H     H_    0.228899 0.705792 0.132191 0.128239
O1    O     O_R   0.749810 0.499790 0.438040 -0.534392
O2    O     O_R   0.298970 0.468800 0.557390 -0.502153
O3    O     O_R   0.489400 0.255930 0.561910 -0.524056
O4    O     O_R   0.723890 0.306050 0.584610 -0.496615
O5    O     O_3   0.500010 0.500010 0.500020 -0.236554
O6    O     O_R   0.171100 0.914680 0.053100 -0.544144
O7    O     O_R   0.941680 0.184840 0.050710 -0.523511
O8    O     O_R   0.922080 0.403420 0.072610 -0.527579
O9    O     O_R   0.196880 0.369150 0.083850 -0.541054
O10   O     O_R   0.411730 0.181020 0.091530 -0.506643
O11   O     O_R   0.365010 0.944360 0.063320 -0.514258
O12   O     O_R   0.477660 0.726260 0.439290 -0.516339
O13   O     O_R   0.159380 0.906670 0.876210 -0.528538
O14   O     O_R   0.930820 0.177420 0.886730 -0.506738
O15   O     O_R   0.910360 0.395420 0.895720 -0.510761
O16   O     O_R   0.186010 0.361730 0.919870 -0.504280
O17   O     O_R   0.400000 0.173010 0.914630 -0.515185
O18   O     O_R   0.354140 0.936940 0.899340 -0.492711
O19   O     O_3   0.162410 0.162370 0.983930 -0.258931
O20   O     O_R   0.260150 0.743000 0.412270 -0.529312
O21   O     O_R   0.297740 0.466550 0.394720 -0.520196
O22   O     O_R   0.488080 0.253500 0.386430 -0.515806
O23   O     O_R   0.722670 0.303800 0.421940 -0.504236
O24   O     O_R   0.751130 0.502220 0.613520 -0.531934
O25   O     O_R   0.478890 0.728510 0.601960 -0.506821
O26   O     O_R   0.261470 0.745430 0.587750 -0.532384
C49   C     C_3   0.069891 0.512537 0.642326 -0.261989
C50   C     C_3   0.031980 0.669179 0.661108 -0.408285
H15   H     H_    0.996561 0.706699 0.721382 0.128988
H16   H     H_    0.125567 0.684727 0.659866 0.208499
H17   H     H_    0.944963 0.733441 0.616810 0.120818
H18   H     H_    0.074609 0.482580 0.577297 0.157417
H19   H     H_    0.983154 0.496889 0.657787 0.165381
C51   C     C_3   0.822272 0.939191 0.842101 -0.265994
C52   C     C_3   0.821076 0.804827 0.859319 -0.437425
H20   H     H_    0.729137 0.834018 0.892373 0.163073
H21   H     H_    0.813770 0.739359 0.803257 0.155526
H22   H     H_    0.920937 0.739688 0.896363 0.136667
H23   H     H_    0.915990 0.910126 0.810885 0.169942
H24   H     H_    0.833790 0.998228 0.900111 0.163535
C53   C     C_3   0.504447 0.000386 0.584886 -0.251092
C54   C     C_3   0.345926 0.041735 0.562756 -0.405276
H25   H     H_    0.294261 0.052447 0.616093 0.148520
H26   H     H_    0.288627 0.142358 0.533566 0.126113
H27   H     H_    0.333381 0.959871 0.519461 0.164151
H28   H     H_    0.547822 0.020407 0.537045 0.147006
H29   H     H_    0.565306 0.883398 0.585386 0.161633
C55   C     C_3   0.944392 0.532510 0.214329 -0.267772
C56   C     C_3   0.988813 0.608852 0.287869 -0.465131
H30   H     H_    0.894076 0.699269 0.312845 0.135030
H31   H     H_    0.052225 0.534988 0.334383 0.184596
H32   H     H_    0.055200 0.649354 0.270444 0.131193
H33   H     H_    0.036320 0.483314 0.179946 0.194891
H34   H     H_    0.850371 0.611987 0.179483 0.166163

loop_
_geom_bond_atom_site_label_1
_geom_bond_atom_site_label_2
_ccdc_geom_bond_type
C25   C31   A    
C1    C21   S    
C33   C45   S    
C23   O1    A    
C49   C50   S    
C34   O25   A    
Cr4   O7    S    
C7    C8    A    
C38   O8    A    
C19   H3    S    
C26   C32   A    
C26   C27   A    
C55   H34   S    
Cr5   O16   S    
C39   O9    A    
C14   C21   A    
C12   O22   A    
C28   C29   A    
Cr4   O6    S    
C27   H6    S    
C56   H31   S    
Cr3   O22   S    
C30   C31   A    
C15   C16   A    
C41   O15   A    
C50   H17   S    
C55   C56   S    
C44   O3    A    
C18   C19   A    
C22   C24   A    
C45   O24   A    
C54   H25   S    
Cr3   O23   S    
C19   C20   A    
C8    C9    A    
C50   H16   S    
C22   C42   S    
C51   H24   S    
C16   H14   S    
C38   C48   S    
C18   H2    S    
C1    O20   A    
Cr1   O1    S    
C13   C14   A    
C45   O4    A    
C2    C6    A    
Cr3   O3    S    
C54   H26   S    
C38   O7    A    
C32   C44   S    
C5    C48   A    
C17   H13   S    
C55   H33   S    
C51   C52   S    
C39   O10   A    
C14   C20   A    
C12   O21   A    
C42   O16   A    
C24   C25   A    
C52   H21   S    
Cr2   O5    S    
Cr6   O18   S    
C49   H18   S    
Cr2   O26   S    
C2    C48   A    
C15   H12   S    
C37   C43   S    
Cr5   O9    S    
C29   C30   A    
C3    C9    A    
Cr3   O5    S    
C11   C16   A    
Cr2   O21   S    
Cr4   O13   S    
C50   H15   S    
C17   C18   A    
C31   C53   S    
C40   O11   A    
C51   H23   S    
Cr5   O19   S    
C42   O17   A    
Cr4   O14   S    
C54   H27   S    
C7    H9    S    
C53   H28   S    
C8    H10   S    
C12   C46   S    
C34   O26   A    
C22   C27   A    
C4    H1    S    
C43   O13   A    
Cr1   O5    S    
C56   H32   S    
Cr5   O8    S    
Cr3   O4    S    
Cr1   O24   S    
C4    C10   A    
C44   O2    A    
C39   C47   S    
Cr6   O11   S    
C28   H5    S    
C26   C49   S    
C46   C47   T    
C36   C37   T    
C43   O18   A    
Cr4   O19   S    
C24   C28   A    
C4    C5    A    
Cr6   O17   S    
C6    C7    A    
Cr2   O20   S    
C10   C23   S    
Cr1   O12   S    
C13   C17   A    
Cr5   O15   S    
C6    H8    S    
C2    C3    A    
Cr2   O2    S    
C5    C55   S    
C3    C10   A    
C53   C54   S    
C11   C13   A    
Cr6   O19   S    
C25   C32   A    
C41   O14   A    
C33   C35   T    
C34   C36   S    
C40   O6    A    
C29   C51   S    
C52   H22   S    
C23   O23   A    
C11   C40   S    
C35   C41   S    
C9    H11   S    
C53   H29   S    
C15   C21   A    
C30   H7    S    
C52   H20   S    
C1    O12   A    
Cr1   O25   S    
C56   H30   S    
C20   H4    S    
C49   H19   S    
Cr6   O10   S    
