data_mof_unit_9169.cif
_audit_creation_date              2012-12-10T16:37:38-0500
_audit_creation_method            fapswitch 2.2
_symmetry_space_group_name_H-M    P1
_symmetry_Int_Tables_number       1
_space_group_crystal_system       triclinic
_cell_length_a                    10.900099
_cell_length_b                    10.80972
_cell_length_c                    15.504524
_cell_angle_alpha                 96.992811
_cell_angle_beta                  75.122193
_cell_angle_gamma                 98.651418
_cell_volume                      1738.90046645

loop_
_atom_site_label
_atom_site_type_symbol
_atom_type_description
_atom_site_fract_x
_atom_site_fract_y
_atom_site_fract_z
_atom_type_partial_charge
C1    C     C_R   0.159077 0.479538 0.518784 0.829931
C2    C     C_R   0.520579 0.492457 0.118789 -0.260656
C3    C     C_R   0.617469 0.305975 0.119913 -0.244009
C4    C     C_R   0.841755 0.520792 0.480602 0.876763
C5    C     C_R   0.424280 0.580831 0.841067 -0.132833
C6    C     C_2   0.978021 0.528828 0.475723 -0.400557
C7    C     C_2   0.023771 0.466756 0.528847 -0.137698
C8    C     C_2   0.545011 0.968425 0.476819 -0.353477
C9    C     C_2   0.453977 0.034586 0.525746 -0.312232
C10   C     C_R   0.467898 0.167439 0.520131 0.846687
C11   C     C_R   0.530244 0.833720 0.481054 0.881819
C12   C     C_R   0.367042 0.722808 0.975603 -0.223086
C13   C     C_R   0.555793 0.442682 0.258890 0.799939
C14   C     C_R   0.445184 0.553871 0.742294 0.767206
C15   C     C_R   0.608146 0.267601 0.032336 0.006028
C16   C     C_R   0.572077 0.416904 0.162965 -0.005175
C17   C     C_R   0.386631 0.698567 0.883050 -0.007731
C18   C     C_R   0.946258 0.377849 0.593444 0.157330
C19   C     C_R   0.911691 0.252535 0.563800 -0.102567
C20   C     C_R   0.836543 0.169463 0.624633 -0.140943
C21   C     C_R   0.796067 0.210904 0.715157 -0.111218
C22   C     C_R   0.830831 0.335419 0.745085 -0.124581
C23   C     C_R   0.400763 0.641929 0.025739 -0.216101
C24   C     C_R   0.906210 0.418736 0.684527 -0.132518
C25   C     C_R   0.671774 0.158255 0.985723 0.101018
C26   C     C_R   0.603694 0.037371 0.984033 -0.153580
C27   C     C_R   0.666264 0.935264 0.939476 -0.141654
C28   C     C_R   0.796077 0.953441 0.896095 -0.128765
C29   C     C_R   0.864124 0.073646 0.897868 -0.136766
C30   C     C_R   0.802443 0.175732 0.942925 -0.162862
C31   C     C_R   0.378853 0.804775 0.833316 0.159529
C32   C     C_R   0.264709 0.859159 0.851009 -0.148215
C33   C     C_R   0.261165 0.967478 0.811263 -0.143492
C34   C     C_R   0.451288 0.530343 0.985221 0.096833
C35   C     C_R   0.371395 0.022660 0.754149 -0.119962
C36   C     C_R   0.485055 0.968679 0.735621 -0.123672
C37   C     C_R   0.489218 0.860498 0.775317 -0.121574
C38   C     C_R   0.449161 0.493309 0.894496 0.068992
C39   C     C_R   0.504507 0.454708 0.031829 0.072581
C40   C     C_R   0.546311 0.338784 0.989219 0.103887
C41   C     C_R   0.522794 0.295315 0.905589 -0.260388
C42   C     C_R   0.472190 0.369713 0.860190 -0.187512
H1    H     H_    0.658870 0.248642 0.155020 0.139894
H2    H     H_    0.942101 0.219812 0.493697 0.123166
H3    H     H_    0.809505 0.073061 0.601573 0.120863
H4    H     H_    0.738008 0.146403 0.762039 0.136669
H5    H     H_    0.799252 0.367535 0.815129 0.137325
H6    H     H_    0.932260 0.515141 0.708249 0.124594
H7    H     H_    0.502880 0.022478 0.016952 0.132371
H8    H     H_    0.614594 0.841903 0.938331 0.151222
H9    H     H_    0.843946 0.874360 0.861279 0.125289
H10   H     H_    0.964504 0.087926 0.864166 0.123818
H11   H     H_    0.856148 0.268522 0.943951 0.129684
H12   H     H_    0.630412 0.014013 0.433401 0.147475
H13   H     H_    0.179182 0.818655 0.896512 0.125801
H14   H     H_    0.173309 0.009405 0.825477 0.120861
H15   H     H_    0.368671 0.107302 0.724291 0.119866
H16   H     H_    0.570114 0.011257 0.691030 0.132815
H17   H     H_    0.578775 0.821488 0.762245 0.099284
H18   H     H_    0.365131 0.990316 0.566043 0.166354
H19   H     H_    0.543273 0.203114 0.874435 0.166015
H20   H     H_    0.490557 0.578227 0.155690 0.127498
H21   H     H_    0.386966 0.670760 0.096146 0.141895
H22   H     H_    0.334738 0.810546 0.008670 0.147737
H23   H     H_    0.450444 0.327342 0.798342 0.174475
H24   H     H_    0.043756 0.588406 0.427857 0.142277
O1    O     O_3   0.500000 0.500000 0.500000 -0.488507
O2    O     O_R   0.463530 0.379110 0.309170 -0.636073
O3    O     O_R   0.388210 0.611730 0.699360 -0.629239
O4    O     O_R   0.624720 0.532760 0.292120 -0.638863
O5    O     O_R   0.523540 0.476390 0.699360 -0.645544
O6    O     O_R   0.537910 0.240570 0.564270 -0.639746
O7    O     O_R   0.438950 0.782540 0.540270 -0.632394
O8    O     O_R   0.222350 0.398740 0.468260 -0.642973
O9    O     O_R   0.800790 0.578160 0.427210 -0.645782
O10   O     O_R   0.212140 0.566330 0.564260 -0.643584
O11   O     O_R   0.764730 0.456770 0.540270 -0.622638
O12   O     O_R   0.412790 0.208310 0.468260 -0.636109
O13   O     O_R   0.610350 0.768590 0.427210 -0.645569
Zn1   Zn    Zn3+2 0.580150 0.419820 0.574680 0.957609
Zn2   Zn    Zn3+2 0.401380 0.373730 0.437510 0.965666
Zn3   Zn    Zn3+2 0.631680 0.593260 0.413140 0.963667
Zn4   Zn    Zn3+2 0.386790 0.613180 0.574670 0.968113

loop_
_geom_bond_atom_site_label_1
_geom_bond_atom_site_label_2
_ccdc_geom_bond_type
O1    Zn4   S    
C14   O5    A    
C35   C36   A    
C41   H19   S    
C10   O12   A    
C12   C23   A    
C3    H1    S    
C26   C27   A    
C18   C24   A    
C1    O8    A    
C36   C37   A    
C38   C42   A    
C36   H16   S    
C12   H22   S    
C28   H9    S    
C15   C25   S    
C5    C17   A    
C13   O4    A    
C18   C19   A    
C41   C42   A    
C4    O9    A    
C2    C39   A    
C19   C20   A    
C8    C9    D    
C12   C17   A    
C42   H23   S    
C2    C16   A    
C9    C10   S    
C32   H13   S    
C20   H3    S    
C27   H8    S    
C23   C34   A    
C33   H14   S    
C23   H21   S    
C22   H5    S    
C1    C7    S    
C21   C22   A    
O10   Zn4   S    
O5    Zn1   S    
C30   H11   S    
C34   C39   A    
C24   H6    S    
C4    C6    S    
C11   O7    A    
C26   H7    S    
C8    H12   S    
C39   C40   A    
C25   C26   A    
C31   C37   A    
C29   C30   A    
O3    Zn4   S    
C31   C32   A    
C7    C18   S    
C5    C14   S    
C37   H17   S    
C11   O13   A    
C40   C41   A    
O1    Zn2   S    
C17   C31   S    
C14   O3    A    
C22   C24   A    
O2    Zn2   S    
O8    Zn2   S    
C3    C15   A    
C19   H2    S    
C21   H4    S    
O11   Zn1   S    
C25   C30   A    
C28   C29   A    
C34   C38   A    
C1    O10   A    
O1    Zn1   S    
O13   Zn3   S    
O9    Zn3   S    
C6    C7    D    
C35   H15   S    
C9    H18   S    
C32   C33   A    
C4    O11   A    
O6    Zn1   S    
C13   O2    A    
O12   Zn2   S    
C8    C11   S    
C33   C35   A    
O4    Zn3   S    
C15   C40   A    
C6    H24   S    
C20   C21   A    
O1    Zn3   S    
C13   C16   S    
C27   C28   A    
C5    C38   A    
O7    Zn4   S    
C3    C16   A    
C2    H20   S    
C29   H10   S    
C10   O6    A    
