data_mof_unit_18148.cif
_audit_creation_date              2012-12-11T16:06:23-0500
_audit_creation_method            fapswitch 2.2
_symmetry_space_group_name_H-M    P1
_symmetry_Int_Tables_number       1
_space_group_crystal_system       triclinic
_cell_length_a                    7.199614
_cell_length_b                    14.460446
_cell_length_c                    15.800043
_cell_angle_alpha                 90.000376
_cell_angle_beta                  90.000674
_cell_angle_gamma                 90.000065
_cell_volume                      1644.93662216

loop_
_atom_site_label
_atom_site_type_symbol
_atom_type_description
_atom_site_fract_x
_atom_site_fract_y
_atom_site_fract_z
_atom_type_partial_charge
O1    O     O_R   0.388780 0.834790 0.412340 -0.545286
O2    O     O_R   0.111220 0.165210 0.912340 -0.545238
O3    O     O_R   0.888780 0.665210 0.587660 -0.545305
O4    O     O_R   0.611220 0.334790 0.087660 -0.545300
O5    O     O_R   0.059040 0.845930 0.587040 -0.547041
O6    O     O_R   0.440960 0.154070 0.087040 -0.547104
O7    O     O_R   0.559040 0.654070 0.412960 -0.547097
O8    O     O_R   0.940960 0.345930 0.912960 -0.547125
C1    C     C_R   0.227629 0.867915 0.615341 0.790237
C2    C     C_R   0.272373 0.132092 0.115348 0.790215
C3    C     C_R   0.727626 0.632094 0.384650 0.790193
C4    C     C_R   0.772372 0.367904 0.884649 0.790141
O9    O     O_R   0.059070 0.845930 0.412970 -0.512183
O10   O     O_R   0.440930 0.154070 0.912970 -0.512124
O11   O     O_R   0.559070 0.654070 0.587030 -0.512230
O12   O     O_R   0.940930 0.345930 0.087030 -0.512208
O13   O     O_R   0.888760 0.665210 0.412340 -0.543771
O14   O     O_R   0.611240 0.334790 0.912340 -0.543770
O15   O     O_R   0.388760 0.834790 0.587660 -0.543806
O16   O     O_R   0.111240 0.165210 0.087660 -0.543753
C5    C     C_R   0.227959 0.867853 0.384491 0.757812
C6    C     C_R   0.272042 0.132158 0.884481 0.757845
C7    C     C_R   0.727962 0.632141 0.615505 0.757826
C8    C     C_R   0.772040 0.367855 0.115508 0.757737
O17   O     O_3   0.222280 0.690700 0.500000 -0.383635
O18   O     O_3   0.277720 0.309300 0.000000 -0.383642
O19   O     O_3   0.722280 0.809300 0.500000 -0.383587
O20   O     O_3   0.777720 0.190700 0.000000 -0.383540
V1    V     V_3+5 0.947430 0.761000 0.500000 1.523262
V2    V     V_3+5 0.552570 0.239000 0.000000 1.523306
V3    V     V_3+5 0.447430 0.739000 0.500000 1.523105
V4    V     V_3+5 0.052570 0.261000 0.000000 1.523252
C9    C     C_3   0.945370 0.542100 0.712365 -0.359116
C10   C     C_3   0.554642 0.457825 0.212427 -0.358966
C11   C     C_3   0.445352 0.957792 0.287546 -0.358928
C12   C     C_3   0.054690 0.042387 0.787394 -0.358695
H1    H     H_    0.024423 0.515858 0.656788 0.230275
H2    H     H_    0.475451 0.484005 0.156872 0.230342
H3    H     H_    0.524572 0.983987 0.343091 0.230386
H4    H     H_    0.975223 0.016245 0.842878 0.230559
H5    H     H_    0.013377 0.607510 0.732920 0.211082
H6    H     H_    0.486796 0.392398 0.233030 0.211004
H7    H     H_    0.513177 0.892350 0.266958 0.210996
H8    H     H_    0.987141 0.107882 0.766777 0.210968
C13   C     C_3   0.958276 0.470776 0.784848 -0.314646
C14   C     C_3   0.541723 0.529176 0.284886 -0.314568
C15   C     C_3   0.458262 0.029118 0.215065 -0.314545
C16   C     C_3   0.041785 0.971084 0.714894 -0.314348
H9    H     H_    0.032494 0.502539 0.839405 0.187315
H10   H     H_    0.467553 0.497422 0.339463 0.187333
H11   H     H_    0.532309 0.997328 0.160475 0.187315
H12   H     H_    0.968093 0.002943 0.660249 0.187360
H13   H     H_    0.042497 0.410601 0.763459 0.205594
H14   H     H_    0.457448 0.589329 0.263486 0.205634
H15   H     H_    0.542642 0.089247 0.236427 0.205642
H16   H     H_    0.957087 0.911045 0.736176 0.205694
C17   C     C_3   0.650184 0.467714 0.660684 0.484299
C18   C     C_3   0.849658 0.532307 0.160660 0.484324
C19   C     C_3   0.150412 0.032315 0.339348 0.484277
C20   C     C_3   0.349214 0.967643 0.839396 0.484255
C21   C     C_3   0.637669 0.597060 0.767847 0.412949
C22   C     C_3   0.862494 0.402975 0.267825 0.413123
C23   C     C_3   0.137439 0.902988 0.232183 0.413186
C24   C     C_3   0.362921 0.096933 0.732235 0.413328
C25   C     C_3   0.739362 0.561365 0.687147 -0.198009
C26   C     C_3   0.760641 0.438629 0.187151 -0.198190
C27   C     C_3   0.239358 0.938625 0.312845 -0.198258
C28   C     C_3   0.260647 0.061393 0.812830 -0.198451
H17   H     H_    0.702609 0.663063 0.788745 0.123975
H18   H     H_    0.797723 0.336939 0.288731 0.123938
H19   H     H_    0.202197 0.836954 0.211256 0.123940
H20   H     H_    0.298414 0.162999 0.711246 0.123943
C29   C     C_3   0.761843 0.438175 0.812843 -0.180542
C30   C     C_3   0.738155 0.561821 0.312846 -0.180615
C31   C     C_3   0.261844 0.061817 0.187150 -0.180742
C32   C     C_3   0.238157 0.938198 0.687137 -0.180871
C33   C     C_3   0.662323 0.395989 0.734242 0.534222
C34   C     C_3   0.837564 0.604027 0.234225 0.534261
C35   C     C_3   0.162564 0.104043 0.265792 0.534276
C36   C     C_3   0.336977 0.895902 0.765853 0.534330
C37   C     C_3   0.651085 0.525157 0.840931 -0.466938
C38   C     C_3   0.849018 0.474864 0.340920 -0.467011
C39   C     C_3   0.150865 0.974891 0.159098 -0.466968
C40   C     C_3   0.349549 0.025011 0.659165 -0.467301
H21   H     H_    0.720071 0.557492 0.896586 0.209449
H22   H     H_    0.780076 0.442502 0.396573 0.209435
H23   H     H_    0.219681 0.942529 0.103416 0.209475
H24   H     H_    0.281107 0.057402 0.603413 0.209485
H25   H     H_    0.509026 0.504698 0.861441 0.204141
H26   H     H_    0.991063 0.495355 0.361427 0.204145
H27   H     H_    0.008811 0.995420 0.138645 0.204168
H28   H     H_    0.491598 0.004347 0.638855 0.204069
H29   H     H_    0.501446 0.478831 0.644462 0.069007
H30   H     H_    0.998381 0.521235 0.144384 0.069055
H31   H     H_    0.001682 0.021268 0.355623 0.069044
H32   H     H_    0.497942 0.978577 0.855736 0.069115
H33   H     H_    0.518849 0.375019 0.752155 0.013067
H34   H     H_    0.981047 0.625014 0.252109 0.013238
H35   H     H_    0.019106 0.125090 0.247935 0.013283
H36   H     H_    0.480367 0.874681 0.748106 0.013567
F1    F     F_    0.737100 0.433672 0.588771 -0.641920
F2    F     F_    0.762572 0.566325 0.088780 -0.641890
F3    F     F_    0.237521 0.066308 0.411234 -0.641904
F4    F     F_    0.261850 0.933747 0.911252 -0.641898
F5    F     F_    0.754737 0.316965 0.707651 -0.602527
F6    F     F_    0.745077 0.683040 0.207660 -0.602448
F7    F     F_    0.255197 0.183011 0.292353 -0.602488
F8    F     F_    0.243892 0.817066 0.792366 -0.602604
F9    F     F_    0.452325 0.615155 0.750498 -0.661482
F10   F     F_    0.047849 0.384980 0.250430 -0.661419
F11   F     F_    0.952092 0.884989 0.249601 -0.661344
F12   F     F_    0.548248 0.114819 0.749775 -0.661427

loop_
_geom_bond_atom_site_label_1
_geom_bond_atom_site_label_2
_ccdc_geom_bond_type
O17   V3    S    
C39   H23   S    
O1    C5    A    
O19   V1    S    
C9    C13   S    
C16   C32   S    
O3    C7    A    
C10   H6    S    
O15   V3    S    
C10   C26   S    
C9    C25   S    
O7    C3    A    
O5    C1    A    
C24   C28   S    
C13   C29   S    
O10   V2    S    
O4    C8    A    
C24   F12   S    
C21   H17   S    
O1    V3    S    
O13   V1    S    
C22   H18   S    
O2    V4    S    
O3    V1    S    
C24   C40   S    
C19   C27   S    
C1    O15   A    
C20   C36   S    
C2    O16   A    
C34   H34   S    
C33   H33   S    
C10   C14   S    
C1    C32   S    
C13   H9    S    
C11   H7    S    
C8    C26   S    
C37   H25   S    
O11   C7    A    
C21   F9    S    
C22   C38   S    
C11   C15   S    
O12   C8    A    
C17   H29   S    
C4    C29   S    
C36   H36   S    
C32   C40   S    
C19   H31   S    
C30   C38   S    
C29   C37   S    
C18   C26   S    
C37   H21   S    
O5    V1    S    
C23   C27   S    
O7    V3    S    
C22   C26   S    
O9    C5    A    
O8    V4    S    
C31   C39   S    
C17   C33   S    
C12   H4    S    
C19   C35   S    
O18   V4    S    
C15   H11   S    
C38   H22   S    
C9    H1    S    
C23   C39   S    
C11   H3    S    
O2    C6    A    
C2    C31   S    
C22   F10   S    
C11   C27   S    
O8    C4    A    
C14   H14   S    
C35   F7    S    
C6    C28   S    
C18   F2    S    
C20   H32   S    
O6    V2    S    
C23   H19   S    
O14   V2    S    
C12   H8    S    
C32   C36   S    
O9    V1    S    
C14   C30   S    
C17   F1    S    
C15   H15   S    
O16   V4    S    
C35   H35   S    
C16   H16   S    
C36   F8    S    
C3    O13   A    
C10   H2    S    
C40   H24   S    
C17   C25   S    
C15   C31   S    
C3    C30   S    
O6    C2    A    
C12   C28   S    
O11   V3    S    
O12   V4    S    
C39   H27   S    
C14   H10   S    
C38   H26   S    
C34   F6    S    
C19   F3    S    
C7    C25   S    
O20   V2    S    
C18   H30   S    
C9    H5    S    
C21   C37   S    
O10   C6    A    
C33   F5    S    
C12   C16   S    
C24   H20   S    
C23   F11   S    
O4    V2    S    
C18   C34   S    
C13   H13   S    
C21   C25   S    
C16   H12   S    
C20   C28   S    
C30   C34   S    
C4    O14   A    
C29   C33   S    
C40   H28   S    
C20   F4    S    
C31   C35   S    
C5    C27   S    
