data_mof_unit_8740.cif
_audit_creation_date              2012-12-11T14:58:01-0500
_audit_creation_method            fapswitch 2.2
_symmetry_space_group_name_H-M    P1
_symmetry_Int_Tables_number       1
_space_group_crystal_system       triclinic
_cell_length_a                    6.938334
_cell_length_b                    16.701358
_cell_length_c                    17.088615
_cell_angle_alpha                 100.479382
_cell_angle_beta                  90.484603
_cell_angle_gamma                 90.67178
_cell_volume                      1946.94582719

loop_
_atom_site_label
_atom_site_type_symbol
_atom_type_description
_atom_site_fract_x
_atom_site_fract_y
_atom_site_fract_z
_atom_type_partial_charge
O1    O     O_R   0.506180 0.438940 0.579430 -0.541269
O2    O     O_R   0.170520 0.406230 0.413590 -0.537600
O3    O     O_R   0.005180 0.561060 0.420570 -0.541289
C1    C     C_R   0.338639 0.382559 0.385840 0.699355
O4    O     O_R   0.176140 0.429310 0.578370 -0.543245
O5    O     O_R   0.010830 0.584300 0.586530 -0.536267
C2    C     C_R   0.343407 0.413611 0.605241 0.693911
O6    O     O_R   0.500520 0.415700 0.413470 -0.533685
O7    O     O_3   0.340830 0.550820 0.502480 -0.367598
V1    V     V_3+5 0.064040 0.490570 0.499540 1.412562
O8    O     O_R   0.681400 0.593770 0.586410 -0.537465
C3    C     C_R   0.851439 0.616573 0.614709 0.696527
O9    O     O_R   0.675790 0.570690 0.421630 -0.542277
C4    C     C_R   0.842794 0.586212 0.394665 0.697339
V2    V     V_3+5 0.564650 0.509430 0.500460 1.416436
O10   O     O_3   0.837730 0.449180 0.497520 -0.367152
C5    C     C_R   0.927267 0.861137 0.166891 -0.064550
C6    C     C_R   0.839212 0.638552 0.332771 -0.065740
C7    C     C_R   0.651356 0.693133 0.232933 -0.204344
C8    C     C_R   0.671641 0.638477 0.285318 -0.155280
C9    C     C_R   0.989079 0.693859 0.325224 -0.251244
C10   C     C_R   0.968630 0.749804 0.272915 0.162057
C11   C     C_R   0.797920 0.749790 0.226652 0.161741
C12   C     C_R   0.777428 0.805790 0.174391 -0.250222
C13   C     C_R   0.094932 0.861108 0.214260 -0.156697
C14   C     C_R   0.115239 0.806425 0.266609 -0.204535
H1    H     H_    0.648570 0.804366 0.137798 0.119898
H2    H     H_    0.212965 0.903091 0.210053 0.123450
H3    H     H_    0.519837 0.691598 0.197979 0.119162
H4    H     H_    0.246800 0.807923 0.301530 0.119379
H5    H     H_    0.553662 0.596442 0.289500 0.125579
H6    H     H_    0.117905 0.695317 0.361841 0.119910
H7    H     H_    0.616068 0.644645 0.967661 0.111649
C15   C     C_R   0.052090 0.900028 0.729391 -0.146097
C16   C     C_R   0.117514 0.910262 0.654940 -0.123069
C17   C     C_R   0.100020 0.846915 0.590086 -0.120233
C18   C     C_R   0.017141 0.772828 0.599212 -0.130608
C19   C     C_R   0.951252 0.760235 0.674309 0.070112
C20   C     C_R   0.968981 0.825179 0.740764 0.068062
C21   C     C_R   0.865199 0.685070 0.683486 -0.186120
C22   C     C_R   0.796597 0.674856 0.759084 0.067920
C23   C     C_R   0.814340 0.739800 0.825540 0.070104
C24   C     C_R   0.900390 0.814964 0.816360 -0.186112
C25   C     C_R   0.713511 0.600006 0.770463 -0.145388
C26   C     C_R   0.648170 0.589759 0.844924 -0.123985
C27   C     C_R   0.665693 0.653103 0.909779 -0.120880
C28   C     C_R   0.748513 0.727199 0.900645 -0.130341
H8    H     H_    0.066389 0.951697 0.777531 0.108110
H9    H     H_    0.180922 0.967900 0.647455 0.117058
H10   H     H_    0.149711 0.855364 0.532211 0.111915
H11   H     H_    0.003944 0.726040 0.546547 0.101909
H12   H     H_    0.699182 0.548344 0.722319 0.109129
H13   H     H_    0.584808 0.532116 0.852418 0.115882
H14   H     H_    0.761731 0.773984 0.953310 0.102198
H15   H     H_    0.345291 0.497341 0.144296 0.127336
C29   C     C_R   0.340978 0.212959 0.402524 -0.136657
C30   C     C_R   0.349718 0.132326 0.413158 -0.114417
C31   C     C_R   0.379565 0.070348 0.348389 -0.118613
C32   C     C_R   0.401743 0.088544 0.272531 -0.141983
C33   C     C_R   0.393533 0.169880 0.259636 0.056862
C34   C     C_R   0.361629 0.233255 0.326158 0.070713
C35   C     C_R   0.418862 0.188239 0.182231 -0.190798
C36   C     C_R   0.413808 0.271416 0.171775 0.031389
C37   C     C_R   0.368911 0.333641 0.238319 0.030152
C38   C     C_R   0.349539 0.315082 0.315562 -0.168151
C39   C     C_R   0.450520 0.295869 0.097172 0.263909
C40   C     C_R   0.419858 0.376572 0.088144 -0.166967
C41   C     C_R   0.365737 0.435071 0.152054 -0.169977
C42   C     C_R   0.344248 0.414575 0.226568 -0.147523
H16   H     H_    0.316485 0.259050 0.454674 0.092649
H17   H     H_    0.333025 0.117876 0.471995 0.114818
H18   H     H_    0.386333 0.007778 0.356959 0.111985
H19   H     H_    0.427127 0.038125 0.224393 0.092715
H20   H     H_    0.445095 0.394674 0.031310 0.118714
H21   H     H_    0.305564 0.462987 0.274799 0.107199
C43   C     C_R   0.426299 0.138090 0.832386 -0.081150
C44   C     C_R   0.339195 0.360588 0.666636 -0.072143
C45   C     C_R   0.149967 0.302662 0.763686 -0.205859
C46   C     C_R   0.170770 0.358025 0.711995 -0.159820
C47   C     C_R   0.489446 0.307244 0.675786 -0.252168
C48   C     C_R   0.468530 0.250644 0.727484 0.159723
C49   C     C_R   0.296878 0.247935 0.771459 0.162703
C50   C     C_R   0.275832 0.191274 0.823059 -0.262561
C51   C     C_R   0.594989 0.140810 0.787256 -0.163914
C52   C     C_R   0.615676 0.196071 0.735457 -0.201436
H22   H     H_    0.146176 0.190711 0.857943 0.119915
H23   H     H_    0.713681 0.100580 0.792862 0.126018
H24   H     H_    0.017820 0.302173 0.796981 0.120821
H25   H     H_    0.748001 0.196666 0.702305 0.122869
H26   H     H_    0.052395 0.398511 0.706710 0.127995
H27   H     H_    0.619131 0.307856 0.640942 0.125012
O11   O     O_R   0.265840 0.084300 0.086750 -0.542643
O12   O     O_R   0.589750 0.070740 0.921690 -0.538196
O13   O     O_R   0.755020 0.915730 0.913400 -0.536762
C53   C     C_R   0.422433 0.085557 0.894190 0.721676
O14   O     O_R   0.595830 0.093740 0.086480 -0.525056
O15   O     O_R   0.761150 0.938890 0.079360 -0.541219
C54   C     C_R   0.427734 0.119244 0.112834 0.780537
O16   O     O_R   0.259710 0.061140 0.920790 -0.542845
O17   O     O_3   0.425260 0.949200 0.997610 -0.369061
V3    V     V_3+5 0.702060 0.009430 0.000450 1.408323
O18   O     O_R   0.090530 0.929220 0.078150 -0.542574
C55   C     C_R   0.923576 0.913633 0.105124 0.697443
O19   O     O_R   0.084440 0.906220 0.913360 -0.537670
C56   C     C_R   0.914323 0.883438 0.885147 0.696932
V4    V     V_3+5 0.201450 0.990520 0.999290 1.408036
O20   O     O_3   0.928380 0.050800 0.002390 -0.373663
N1    N     N_2   0.533632 0.242644 0.032331 -0.538351
H28   H     H_    0.473688 0.248600 0.978328 0.240649
C57   C     C_3   0.741975 0.248689 0.030976 -0.473764
H29   H     H_    0.797974 0.204317 0.980221 0.200533
H30   H     H_    0.805226 0.234999 0.086971 0.202822
H31   H     H_    0.788326 0.310799 0.023575 0.167432

loop_
_geom_bond_atom_site_label_1
_geom_bond_atom_site_label_2
_ccdc_geom_bond_type
V3    O20   S    
O13   C56   A    
C6    C9    A    
C22   C23   A    
C4    C6    S    
O2    C1    A    
C7    C8    A    
C12   H1    S    
C1    O6    A    
C43   C51   A    
O19   V4    S    
H15   C41   S    
O11   C54   A    
C26   C27   A    
C29   C30   A    
C13   H2    S    
C35   C36   A    
C9    C10   A    
C17   C18   A    
C43   C53   S    
O5    C3    A    
C19   C20   A    
C18   H11   S    
C53   O16   A    
V4    O20   S    
V2    O10   S    
N1    H28   S    
C33   C35   A    
C15   C16   A    
C24   C56   S    
C57   H29   S    
C46   H26   S    
C35   C54   S    
O8    V2    S    
C16   C17   A    
O13   V3    S    
C41   C42   A    
O14   C54   A    
C16   H9    S    
C11   C12   A    
C51   H23   S    
C42   H21   S    
O1    V2    S    
O7    V1    S    
C32   H19   S    
C2    C44   S    
C25   H12   S    
C39   C40   A    
C36   C39   A    
C26   H13   S    
C32   C33   A    
O12   C53   A    
O9    C4    A    
H7    C27   S    
C43   C50   A    
O19   C56   A    
C48   C49   A    
C44   C46   A    
C9    H6    S    
C5    C12   A    
C40   C41   A    
C51   C52   A    
O12   V3    S    
O4    C2    A    
C52   H25   S    
C45   C46   A    
C20   C24   A    
C31   C32   A    
C15   C20   A    
C33   C34   A    
C3    C21   S    
C7    C11   A    
C18   C19   A    
C45   C49   A    
O15   V3    S    
C5    C55   S    
C29   C34   A    
C40   H20   S    
C37   C42   A    
C30   H17   S    
C57   H31   S    
O15   C55   A    
O3    C4    A    
C28   H14   S    
O11   V4    S    
C21   C22   A    
C14   H4    S    
O6    V2    S    
C29   H16   S    
O9    V2    S    
C22   C25   A    
C15   H8    S    
C23   C24   A    
O2    V1    S    
C17   H10   S    
C25   C26   A    
C44   C47   A    
C45   H24   S    
O16   V4    S    
C27   C28   A    
O1    C2    A    
C39   N1    S    
C47   C48   A    
O5    V1    S    
O8    C3    A    
O17   V4    S    
C5    C13   A    
C37   C38   A    
C47   H27   S    
C13   C14   A    
O4    V1    S    
O3    V1    S    
V1    O10   S    
C19   C21   A    
C31   H18   S    
C30   C31   A    
C1    C38   S    
O17   V3    S    
N1    C57   S    
O18   V4    S    
C6    C8    A    
C23   C28   A    
O7    V2    S    
O18   C55   A    
C57   H30   S    
C36   C37   A    
C34   C38   A    
C50   H22   S    
C49   C50   A    
C10   C14   A    
C10   C11   A    
O14   V3    S    
C48   C52   A    
C8    H5    S    
C7    H3    S    
