data_mof_unit_15044.cif
_audit_creation_date              2012-12-11T14:38:09-0500
_audit_creation_method            fapswitch 2.2
_symmetry_space_group_name_H-M    P1
_symmetry_Int_Tables_number       1
_space_group_crystal_system       triclinic
_cell_length_a                    19.622993
_cell_length_b                    11.134506
_cell_length_c                    19.730155
_cell_angle_alpha                 90.004333
_cell_angle_beta                  95.892789
_cell_angle_gamma                 90.094048
_cell_volume                      4288.10187234

loop_
_atom_site_label
_atom_site_type_symbol
_atom_type_description
_atom_site_fract_x
_atom_site_fract_y
_atom_site_fract_z
_atom_type_partial_charge
C1    C     C_R   0.708576 0.993368 0.366333 0.549325
C2    C     C_3   0.174307 0.483531 0.470572 -0.218474
C3    C     C_3   0.438244 0.507326 0.061180 -0.444385
C4    C     C_3   0.063669 0.870817 0.936014 -0.287535
C5    C     C_3   0.061611 0.007905 0.939058 -0.444450
C6    C     C_3   0.936232 0.870219 0.064115 -0.287437
C7    C     C_3   0.938266 0.007334 0.061196 -0.444300
C8    C     C_3   0.615001 0.383197 0.451284 -0.249694
C9    C     C_3   0.552414 0.462238 0.430579 -0.416736
C10   C     C_3   0.386495 0.384087 0.549148 -0.250246
C11   C     C_3   0.447879 0.465173 0.571502 -0.416767
C12   C     C_3   0.113474 0.883868 0.450737 -0.250318
C13   C     C_3   0.325735 0.983895 0.529468 -0.218394
C14   C     C_3   0.052317 0.964975 0.428144 -0.416003
C15   C     C_3   0.882357 0.885993 0.547036 -0.257102
C16   C     C_3   0.945160 0.965402 0.566313 -0.420615
C17   C     C_3   0.668716 0.009700 0.481316 -0.244975
C18   C     C_3   0.763201 0.302957 0.552281 -0.261493
C19   C     C_3   0.239360 0.297729 0.445761 -0.263644
C20   C     C_3   0.260582 0.797756 0.554199 -0.263584
C21   C     C_3   0.721823 0.819911 0.445489 -0.237827
C22   C     C_3   0.765881 0.437257 0.565490 0.055118
C23   C     C_3   0.235209 0.432181 0.433414 0.056892
C24   C     C_3   0.264805 0.932222 0.566592 0.056738
C25   C     C_R   0.277315 0.958107 0.638674 0.544385
C26   C     C_3   0.724098 0.957364 0.437820 0.049180
C27   C     C_3   0.746631 0.401481 0.434518 0.053599
C28   C     C_3   0.254774 0.395652 0.564226 0.053232
C29   C     C_3   0.245275 0.895657 0.435770 0.053135
C30   C     C_3   0.751481 0.902106 0.566170 0.056149
C31   C     C_3   0.807169 0.490124 0.450342 -0.267709
C32   C     C_3   0.192598 0.479850 0.548378 -0.268267
C33   C     C_3   0.307506 0.980088 0.451651 -0.268171
C34   C     C_3   0.690859 0.991217 0.557706 -0.252823
C35   C     C_3   0.765920 0.286525 0.476311 -0.223349
C36   C     C_R   0.222694 0.458060 0.361336 0.544627
C37   C     C_3   0.238190 0.279550 0.522186 -0.225671
C38   C     C_3   0.261782 0.779622 0.477781 -0.225697
C39   C     C_3   0.730062 0.791621 0.521170 -0.236569
C40   C     C_3   0.498572 0.310168 0.961161 -0.074103
C41   C     C_3   0.501328 0.310079 0.038919 -0.074115
C42   C     C_3   0.998580 0.810167 0.961160 -0.074156
C43   C     C_3   0.001335 0.810079 0.038918 -0.074163
C44   C     C_3   0.427712 0.116449 0.969158 -0.233248
C45   C     C_3   0.572280 0.116897 0.030797 -0.233376
C46   C     C_3   0.927710 0.616459 0.969158 -0.233320
C47   C     C_R   0.778132 0.460545 0.637929 0.546314
C48   C     C_3   0.072278 0.616887 0.030797 -0.233329
C49   C     C_3   0.552797 0.103588 0.953274 -0.256638
C50   C     C_3   0.447202 0.103077 0.046670 -0.256731
C51   C     C_3   0.052795 0.603578 0.953273 -0.256664
C52   C     C_3   0.947200 0.603085 0.046669 -0.256709
C53   C     C_R   0.534463 0.179316 0.337762 0.521403
C54   C     C_R   0.465538 0.179396 0.662238 0.523506
C55   C     C_R   0.034290 0.679318 0.337610 0.524440
C56   C     C_R   0.965071 0.679545 0.661928 0.525047
C57   C     C_3   0.487234 0.177009 0.933860 0.047177
C58   C     C_3   0.680967 0.459880 0.460348 -0.095735
C59   C     C_3   0.512733 0.176926 0.066138 0.046927
C60   C     C_3   0.987235 0.677009 0.933860 0.047111
C61   C     C_3   0.012734 0.676925 0.066137 0.047075
C62   C     C_1   0.762345 0.428959 0.904865 -0.023484
C63   C     C_1   0.237644 0.428935 0.095132 -0.023295
C64   C     C_1   0.262347 0.928962 0.904866 -0.023321
C65   C     C_1   0.737642 0.928941 0.095130 -0.024775
C66   C     C_1   0.748798 0.406813 0.034850 -0.059905
C67   C     C_1   0.251248 0.406880 0.965155 -0.059883
C68   C     C_1   0.248800 0.906818 0.034851 -0.059976
C69   C     C_3   0.319614 0.457601 0.538920 -0.097068
C70   C     C_1   0.751245 0.906890 0.965152 -0.059699
C71   C     C_1   0.754614 0.417408 0.964348 -0.062121
C72   C     C_1   0.245397 0.417424 0.035652 -0.062039
C73   C     C_1   0.254616 0.917414 0.964349 -0.062112
C74   C     C_1   0.745394 0.917433 0.035650 -0.062254
C75   C     C_1   0.744004 0.391600 0.094673 -0.019452
C76   C     C_1   0.256049 0.391703 0.905330 -0.019631
C77   C     C_1   0.244005 0.891605 0.094674 -0.019628
C78   C     C_1   0.756046 0.891711 0.905328 -0.019591
C79   C     C_R   0.738855 0.363152 0.361574 0.527327
C80   C     C_3   0.180480 0.957408 0.461085 -0.096906
C81   C     C_R   0.262010 0.360095 0.637433 0.532751
C82   C     C_R   0.238012 0.860046 0.362559 0.532542
C83   C     C_R   0.761814 0.860013 0.637745 0.533670
C84   C     C_R   0.722083 0.954859 0.163040 0.546563
C85   C     C_R   0.277921 0.954914 0.836958 0.539527
C86   C     C_R   0.222084 0.454858 0.163040 0.539789
C87   C     C_R   0.777921 0.454913 0.836957 0.539937
C88   C     C_R   0.533617 0.179747 0.140272 0.532079
C89   C     C_R   0.466359 0.179827 0.859733 0.531106
C90   C     C_R   0.033618 0.679747 0.140271 0.531275
C91   C     C_3   0.815883 0.962103 0.539650 -0.098867
C92   C     C_R   0.966359 0.679828 0.859733 0.531213
C93   C     C_R   0.736016 0.357373 0.163480 0.546349
C94   C     C_R   0.263991 0.357489 0.836515 0.546034
C95   C     C_R   0.236017 0.857376 0.163481 0.545809
C96   C     C_R   0.763989 0.857494 0.836513 0.545624
C97   C     C_1   0.487815 0.168018 0.595114 -0.045184
C98   C     C_1   0.512024 0.167874 0.404813 -0.045850
C99   C     C_1   0.986691 0.668589 0.594569 -0.044286
C100  C     C_1   0.011414 0.668020 0.404454 -0.043745
C101  C     C_1   0.502862 0.161556 0.464431 -0.082760
C102  C     C_3   0.825514 0.493865 0.528515 -0.220162
C103  C     C_1   0.496837 0.161618 0.535470 -0.080696
C104  C     C_1   0.001872 0.661991 0.463956 -0.079556
C105  C     C_1   0.995542 0.662307 0.534900 -0.080580
C106  C     C_3   0.695755 0.488360 0.536626 -0.210895
C107  C     C_3   0.305129 0.484337 0.462496 -0.208935
C108  C     C_3   0.194922 0.984070 0.537524 -0.209010
C109  C     C_3   0.798862 0.992840 0.464139 -0.203967
C110  C     C_3   0.563658 0.370829 0.936014 -0.287540
C111  C     C_3   0.561592 0.507917 0.939057 -0.444490
C112  C     C_3   0.436224 0.370213 0.064118 -0.287577
Cr1   Cr    Cr6+3 0.765780 0.160710 0.267420 1.004825
Cr2   Cr    Cr6+3 0.383970 0.323720 0.751490 0.993945
Cr3   Cr    Cr6+3 0.116030 0.823720 0.248510 0.994327
Cr4   Cr    Cr6+3 0.883970 0.823720 0.751490 0.994932
Cr5   Cr    Cr6+3 0.234220 0.160710 0.732580 1.005511
Cr6   Cr    Cr6+3 0.265780 0.660710 0.267420 1.005293
Cr7   Cr    Cr6+3 0.734220 0.660710 0.732580 1.004637
Cr8   Cr    Cr6+3 0.612200 0.009560 0.248850 1.007154
Cr9   Cr    Cr6+3 0.387800 0.009560 0.751150 1.009320
Cr10  Cr    Cr6+3 0.112200 0.509560 0.248850 1.010007
Cr11  Cr    Cr6+3 0.887800 0.509560 0.751150 1.009990
Cr12  Cr    Cr6+3 0.616030 0.323720 0.248510 0.991804
H1    H     H_    0.693634 0.583501 0.544648 0.120023
H2    H     H_    0.128440 0.425511 0.457917 0.140547
H3    H     H_    0.946951 0.039391 0.528808 0.125124
H4    H     H_    0.942738 0.004734 0.617729 0.170824
H5    H     H_    0.992988 0.912521 0.566645 0.154676
H6    H     H_    0.878421 0.813691 0.583698 0.193818
H7    H     H_    0.890653 0.835059 0.500233 0.128196
H8    H     H_    0.371601 0.926158 0.542161 0.140621
H9    H     H_    0.619982 0.959516 0.468162 0.136359
H10   H     H_    0.852847 0.461250 0.425456 0.134043
H11   H     H_    0.147327 0.447737 0.572965 0.134538
H12   H     H_    0.352774 0.948102 0.427102 0.134669
H13   H     H_    0.646289 0.956776 0.582603 0.136183
H14   H     H_    0.453550 0.365548 0.941782 0.179085
H15   H     H_    0.546324 0.365763 0.058323 0.179221
H16   H     H_    0.953562 0.865556 0.941781 0.179073
H17   H     H_    0.308274 0.578858 0.453483 0.121087
H18   H     H_    0.046333 0.865757 0.058323 0.179194
H19   H     H_    0.380166 0.170787 0.959578 0.114336
H20   H     H_    0.619800 0.171566 0.040424 0.114286
H21   H     H_    0.880167 0.670805 0.959578 0.114368
H22   H     H_    0.119801 0.671550 0.040424 0.114386
H23   H     H_    0.404322 0.133188 0.075199 0.112377
H24   H     H_    0.595668 0.134079 0.924773 0.112207
H25   H     H_    0.904321 0.633202 0.075198 0.112678
H26   H     H_    0.095667 0.634062 0.924772 0.112314
H27   H     H_    0.543418 0.007303 0.940227 0.134522
H28   H     H_    0.191771 0.078556 0.546616 0.121209
H29   H     H_    0.456621 0.006828 0.059634 0.134612
H30   H     H_    0.043410 0.507295 0.940228 0.134564
H31   H     H_    0.956615 0.506835 0.059634 0.134573
H32   H     H_    0.584295 0.026159 0.052410 0.149417
H33   H     H_    0.415736 0.025674 0.947475 0.149854
H34   H     H_    0.084289 0.526148 0.052410 0.149662
H35   H     H_    0.915730 0.525686 0.947474 0.149830
H36   H     H_    0.655464 0.455018 0.567852 0.119209
H37   H     H_    0.345390 0.450050 0.431603 0.116771
H38   H     H_    0.154651 0.949495 0.568382 0.116988
H39   H     H_    0.812255 0.084685 0.454631 0.111937
H40   H     H_    0.833314 0.946254 0.431234 0.133468
H41   H     H_    0.671998 0.545987 0.432016 0.131247
H42   H     H_    0.327042 0.544115 0.566958 0.130053
H43   H     H_    0.173221 0.043968 0.433122 0.130070
H44   H     H_    0.825248 0.047196 0.568718 0.133128
H45   H     H_    0.343759 0.073440 0.547146 0.104919
H46   H     H_    0.653352 0.103288 0.470433 0.088152
H47   H     H_    0.839921 0.585177 0.546499 0.101888
H48   H     H_    0.156231 0.572944 0.452898 0.104633
H49   H     H_    0.295160 0.070296 0.431250 0.105286
H50   H     H_    0.820120 0.265470 0.469145 0.134329
H51   H     H_    0.706096 0.076619 0.583197 0.103689
H52   H     H_    0.792965 0.580762 0.430659 0.103995
H53   H     H_    0.205040 0.570103 0.568763 0.105182
H54   H     H_    0.806835 0.254988 0.580796 0.124438
H55   H     H_    0.195640 0.249250 0.417544 0.122575
H56   H     H_    0.304253 0.749410 0.582418 0.122667
H57   H     H_    0.672463 0.780574 0.422736 0.136197
H58   H     H_    0.714744 0.266127 0.568068 0.108712
H59   H     H_    0.287579 0.262676 0.428448 0.106806
H60   H     H_    0.212322 0.762508 0.571464 0.106774
H61   H     H_    0.184530 0.255586 0.529654 0.133280
H62   H     H_    0.763250 0.777322 0.419486 0.117536
H63   H     H_    0.732456 0.213822 0.457108 0.114202
H64   H     H_    0.273803 0.208906 0.540157 0.113925
H65   H     H_    0.226164 0.708809 0.459761 0.114003
H66   H     H_    0.768278 0.720898 0.530941 0.108482
H67   H     H_    0.514801 0.542387 0.908909 0.154936
H68   H     H_    0.562930 0.539478 0.992481 0.148196
H69   H     H_    0.607078 0.545310 0.917212 0.160596
H70   H     H_    0.610855 0.339772 0.966731 0.146571
H71   H     H_    0.569638 0.345517 0.882568 0.174738
H72   H     H_    0.315442 0.755933 0.470337 0.133211
H73   H     H_    0.485029 0.542056 0.091352 0.155180
H74   H     H_    0.436891 0.539000 0.007777 0.148093
H75   H     H_    0.392749 0.544352 0.083060 0.160610
H76   H     H_    0.389030 0.338886 0.033385 0.146509
H77   H     H_    0.430268 0.344737 0.117549 0.174750
H78   H     H_    0.014820 0.042382 0.908909 0.155041
H79   H     H_    0.062950 0.039468 0.992483 0.148082
H80   H     H_    0.107101 0.045290 0.917215 0.160617
H81   H     H_    0.110866 0.839751 0.966729 0.146562
H82   H     H_    0.069646 0.845505 0.882567 0.174819
H83   H     H_    0.678590 0.763287 0.534058 0.134649
H84   H     H_    0.985037 0.042037 0.091402 0.155069
H85   H     H_    0.936951 0.039029 0.007801 0.148039
H86   H     H_    0.892759 0.044366 0.083052 0.160708
H87   H     H_    0.889039 0.838914 0.033370 0.146545
H88   H     H_    0.930265 0.844724 0.117542 0.175279
H89   H     H_    0.549956 0.536637 0.467719 0.122180
H90   H     H_    0.555865 0.501255 0.379248 0.172185
H91   H     H_    0.504387 0.409527 0.429609 0.154780
H92   H     H_    0.620792 0.310738 0.415267 0.192702
H93   H     H_    0.605658 0.332637 0.497941 0.128715
H94   H     H_    0.872898 0.440034 0.541253 0.141937
H95   H     H_    0.450644 0.539834 0.534577 0.122705
H96   H     H_    0.442700 0.503714 0.622628 0.172088
H97   H     H_    0.496401 0.413797 0.573687 0.154759
H98   H     H_    0.380468 0.311141 0.584762 0.194553
H99   H     H_    0.397555 0.334349 0.502797 0.129923
H100  H     H_    0.049508 0.039580 0.465099 0.122662
H101  H     H_    0.057816 0.003602 0.377099 0.172569
H102  H     H_    0.003679 0.913624 0.425685 0.156288
H103  H     H_    0.119504 0.810729 0.415256 0.194236
H104  H     H_    0.102130 0.834294 0.497067 0.129355
O1    O     O_R   0.783100 0.287550 0.345460 -0.535341
O2    O     O_R   0.454350 0.284910 0.836260 -0.535195
O3    O     O_R   0.045650 0.784910 0.163740 -0.534940
O4    O     O_R   0.954350 0.784910 0.836260 -0.535115
O5    O     O_R   0.677950 0.374280 0.185410 -0.498448
O6    O     O_R   0.322050 0.374280 0.814590 -0.499664
O7    O     O_R   0.177950 0.874280 0.185410 -0.499602
O8    O     O_R   0.822050 0.874280 0.814590 -0.499694
O9    O     O_3   0.664670 0.164660 0.254930 -0.269599
O10   O     O_3   0.335330 0.164660 0.745070 -0.256974
O11   O     O_3   0.164670 0.664660 0.254930 -0.257125
O12   O     O_R   0.216900 0.287550 0.654540 -0.531122
O13   O     O_3   0.835330 0.664660 0.745070 -0.257736
O14   O     O_R   0.760020 0.037400 0.337700 -0.516876
O15   O     O_R   0.239980 0.037400 0.662300 -0.520642
O16   O     O_R   0.260020 0.537400 0.337700 -0.520581
O17   O     O_R   0.739980 0.537400 0.662300 -0.520054
O18   O     O_R   0.666600 0.921990 0.332020 -0.523056
O19   O     O_R   0.333400 0.921990 0.667980 -0.525224
O20   O     O_R   0.166600 0.421990 0.332020 -0.525265
O21   O     O_R   0.833400 0.421990 0.667980 -0.525258
O22   O     O_R   0.557260 0.082670 0.312540 -0.505713
O23   O     O_R   0.283100 0.787550 0.345460 -0.531186
O24   O     O_R   0.442740 0.082670 0.687460 -0.495465
O25   O     O_R   0.057260 0.582670 0.312540 -0.495657
O26   O     O_R   0.942740 0.582670 0.687460 -0.495842
O27   O     O_R   0.548410 0.285740 0.316480 -0.525096
O28   O     O_R   0.451590 0.285740 0.683520 -0.526786
O29   O     O_R   0.048410 0.785740 0.316480 -0.526286
O30   O     O_R   0.951590 0.785740 0.683520 -0.525386
O31   O     O_R   0.680500 0.375040 0.327000 -0.509386
O32   O     O_R   0.319500 0.375040 0.673000 -0.509431
O33   O     O_R   0.180500 0.875040 0.327000 -0.509307
O34   O     O_R   0.716900 0.787550 0.654540 -0.533684
O35   O     O_R   0.819500 0.875040 0.673000 -0.509826
O36   O     O_R   0.780350 0.286720 0.192720 -0.509292
O37   O     O_R   0.219650 0.286720 0.807280 -0.509265
O38   O     O_R   0.280350 0.786720 0.192720 -0.509253
O39   O     O_R   0.719650 0.786720 0.807280 -0.509671
O40   O     O_R   0.757470 0.036630 0.196110 -0.494094
O41   O     O_R   0.242530 0.036630 0.803890 -0.498247
O42   O     O_R   0.257470 0.536630 0.196110 -0.498217
O43   O     O_R   0.742530 0.536630 0.803890 -0.498003
O44   O     O_R   0.663840 0.921160 0.179280 -0.510753
O45   O     O_R   0.554710 0.081900 0.170950 -0.504749
O46   O     O_R   0.336160 0.921160 0.820720 -0.513729
O47   O     O_R   0.163840 0.421160 0.179280 -0.513829
O48   O     O_R   0.836160 0.421160 0.820720 -0.513460
O49   O     O_R   0.445290 0.081900 0.829050 -0.505034
O50   O     O_R   0.054710 0.581900 0.170950 -0.505093
O51   O     O_R   0.945290 0.581900 0.829050 -0.504940
O52   O     O_R   0.545650 0.284910 0.163740 -0.534216

loop_
_geom_bond_atom_site_label_1
_geom_bond_atom_site_label_2
_ccdc_geom_bond_type
C50   H23   S    
Cr6   O11   S    
C21   C26   S    
C51   H30   S    
C111  H67   S    
C56   O26   A    
C70   C78   T    
C83   O35   A    
C28   C69   S    
Cr7   O13   S    
Cr11  O13   S    
C21   H62   S    
C30   C34   S    
C11   H97   S    
C5    H80   S    
Cr3   O7    S    
C69   C107  S    
Cr4   O30   S    
Cr8   O45   S    
Cr2   O6    S    
C49   H24   S    
C9    H91   S    
C52   H31   S    
C21   H57   S    
C15   H6    S    
C106  H1    S    
C93   O5    A    
C57   C89   S    
C68   C77   T    
C8    H92   S    
C50   C59   S    
C14   H100  S    
Cr9   O49   S    
Cr11  O21   S    
C19   H55   S    
C27   C79   S    
C52   C61   S    
C31   H10   S    
C53   C98   S    
Cr11  O51   S    
C12   H104  S    
C46   H21   S    
C6    H88   S    
C18   H58   S    
C50   H29   S    
C15   C16   S    
C29   C33   S    
C100  C104  T    
C3    H74   S    
C49   C57   S    
C85   O46   A    
C84   O40   A    
C2    C32   S    
C67   C72   S    
C102  H94   S    
C85   O41   A    
C30   C83   S    
C87   O48   A    
C58   H41   S    
C69   H42   S    
C79   O1    A    
Cr11  O26   S    
C8    H93   S    
C19   C37   S    
C87   O43   A    
Cr9   O46   S    
C48   C51   S    
C37   H61   S    
C92   O4    A    
C20   C24   S    
C51   H26   S    
C78   C96   S    
C52   H25   S    
C41   C112  S    
C48   H22   S    
C29   C38   S    
C70   C74   S    
C45   H20   S    
C3    H75   S    
C64   C73   T    
C54   C97   S    
Cr11  O48   S    
C24   C108  S    
C45   C49   S    
C89   O2    A    
C107  H17   S    
Cr3   O33   S    
C18   C35   S    
C3    C112  S    
C80   H43   S    
Cr3   O3    S    
Cr6   O23   S    
Cr8   O9    S    
C20   H60   S    
C93   O36   A    
C8    C58   S    
C37   H64   S    
C96   O39   A    
Cr1   O9    S    
C22   C47   S    
C10   C11   S    
C23   C107  S    
C111  H68   S    
C101  C103  S    
Cr6   O38   S    
Cr4   O4    S    
C44   H33   S    
C62   C71   T    
Cr8   O18   S    
C112  H77   S    
Cr10  O25   S    
Cr12  O27   S    
Cr10  O50   S    
C104  C105  S    
C7    H85   S    
Cr6   O16   S    
C31   H52   S    
C60   C92   S    
C14   H102  S    
Cr12  O52   S    
C99   C105  T    
C56   O30   A    
C41   H15   S    
C49   H27   S    
C42   H16   S    
Cr9   O19   S    
C36   O16   A    
C31   C102  S    
C107  H37   S    
C91   H44   S    
C4    H81   S    
C39   H83   S    
C24   C25   S    
Cr5   O12   S    
C14   H101  S    
C20   H56   S    
Cr3   O29   S    
C19   H59   S    
C5    H78   S    
C39   H66   S    
C108  H28   S    
C17   H46   S    
C8    C9    S    
C65   C84   S    
C40   C110  S    
C6    H87   S    
C27   C35   S    
C68   C73   S    
C22   C106  S    
C48   H34   S    
C77   C95   S    
C43   C61   S    
C65   C74   T    
C110  C111  S    
C13   C24   S    
C40   H14   S    
C58   C106  S    
Cr1   O36   S    
C55   C100  S    
C19   C23   S    
C88   O45   A    
C110  H70   S    
Cr9   O24   S    
C20   C38   S    
C82   O23   A    
C66   C71   S    
C21   C39   S    
C66   C75   T    
C28   C32   S    
C44   C57   S    
C4    C42   S    
C38   H65   S    
Cr7   O39   S    
Cr4   O8    S    
C82   O33   A    
C89   O49   A    
C96   O8    A    
C45   H32   S    
C56   C99   S    
C3    H73   S    
C4    H82   S    
C16   H5    S    
C88   O52   A    
C26   C109  S    
C86   O42   A    
C97   C103  T    
C84   O44   A    
C10   H99   S    
C95   O7    A    
Cr12  O5    S    
C2    H2    S    
C35   H63   S    
C40   C41   S    
C111  H69   S    
Cr5   O10   S    
C23   C36   S    
Cr10  O11   S    
C6    C43   S    
C27   C31   S    
C17   H9    S    
C1    C26   S    
C36   O20   A    
Cr12  O31   S    
C90   O3    A    
C17   C34   S    
C17   C26   S    
C42   C60   S    
C11   H95   S    
C64   C85   S    
C47   O17   A    
C7    H86   S    
C33   H49   S    
C61   C90   S    
C75   C93   S    
Cr10  O20   S    
C44   C50   S    
C102  H47   S    
C94   O37   A    
C80   C108  S    
Cr4   O13   S    
C59   C88   S    
C81   O32   A    
C40   C57   S    
C16   H4    S    
C46   C60   S    
C28   C81   S    
C18   C22   S    
C35   H50   S    
C54   O28   A    
C94   O6    A    
C12   C14   S    
C7    H84   S    
C95   O38   A    
C109  H40   S    
Cr8   O44   S    
Cr2   O2    S    
C32   H11   S    
Cr5   O41   S    
Cr1   O1    S    
C6    C7    S    
C51   C60   S    
C83   O34   A    
C76   C94   S    
C9    H90   S    
C98   C101  T    
Cr7   O43   S    
C62   C87   S    
C34   H51   S    
C34   H13   S    
C22   C102  S    
C81   O12   A    
Cr2   O10   S    
C90   O50   A    
C9    H89   S    
C30   C91   S    
C91   C109  S    
C92   O51   A    
Cr7   O17   S    
Cr1   O40   S    
C79   O31   A    
C29   C82   S    
C63   C86   S    
Cr4   O35   S    
Cr10  O47   S    
C86   O47   A    
C46   C52   S    
Cr3   O11   S    
Cr12  O9    S    
C33   H12   S    
C48   C61   S    
C29   C80   S    
C108  H38   S    
C28   C37   S    
C27   C58   S    
C44   H19   S    
C106  H36   S    
C46   H35   S    
C12   C80   S    
Cr2   O28   S    
C13   H45   S    
C12   H103  S    
Cr5   O15   S    
C13   H8    S    
C38   H72   S    
C30   C39   S    
C25   O15   A    
C53   O22   A    
C5    H79   S    
C32   H53   S    
C16   H3    S    
C47   O21   A    
C110  H71   S    
C109  H39   S    
C1    O14   A    
C10   H98   S    
C15   C91   S    
Cr7   O34   S    
C10   C69   S    
C55   O25   A    
C4    C5    S    
C15   H7    S    
C63   C72   T    
C18   H54   S    
C45   C59   S    
C13   C33   S    
C42   C43   S    
C41   C59   S    
C2    C23   S    
Cr1   O14   S    
C54   O24   A    
Cr8   O22   S    
C43   H18   S    
C67   C76   T    
C25   O19   A    
C53   O27   A    
C55   O29   A    
C1    O18   A    
Cr2   O32   S    
C11   H96   S    
C112  H76   S    
Cr5   O37   S    
Cr9   O10   S    
C2    H48   S    
Cr6   O42   S    
