data_mof_unit_9419.cif
_audit_creation_date              2013-03-05T16:35:50-0500
_audit_creation_method            fapswitch 2.2
_symmetry_space_group_name_H-M    P1
_symmetry_Int_Tables_number       1
_space_group_crystal_system       triclinic
_cell_length_a                    23.639393
_cell_length_b                    9.256956
_cell_length_c                    7.766841
_cell_angle_alpha                 90.000094
_cell_angle_beta                  89.999896
_cell_angle_gamma                 90.000119
_cell_volume                      1699.60865789

loop_
_atom_site_label
_atom_site_type_symbol
_atom_site_description
_atom_site_fract_x
_atom_site_fract_y
_atom_site_fract_z
_atom_type_partial_charge
O1    O     O_R   0.500000 0.288390 0.642760 -0.571511
O2    O     O_R   0.500000 0.711610 0.357240 -0.571511
O3    O     O_R   0.500000 0.711610 0.642760 -0.571510
O4    O     O_R   0.500000 0.288390 0.357240 -0.571511
C1    C     C_R   0.500000 0.219698 0.500000 0.845872
C2    C     C_R   0.500000 0.780302 0.500000 0.845873
O5    O     O_R   0.417880 0.500000 0.642820 -0.544825
O6    O     O_R   0.582120 0.500000 0.357180 -0.544826
O7    O     O_R   0.582120 0.500000 0.642820 -0.544827
O8    O     O_R   0.417880 0.500000 0.357180 -0.544826
C3    C     C_R   0.208426 0.499997 0.500000 0.054795
C4    C     C_R   0.791574 0.499996 0.500001 0.054793
C5    C     C_R   0.390575 0.500000 0.500000 0.915495
C6    C     C_R   0.609425 0.500000 0.500000 0.915497
Cu1   Cu    Cu3+1 0.500000 0.500000 0.669080 1.133040
Cu2   Cu    Cu3+1 0.500000 0.500000 0.330920 1.133040
C7    C     C_R   0.297664 0.571194 0.367362 0.279106
C8    C     C_R   0.702336 0.428802 0.367363 0.279104
C9    C     C_R   0.297663 0.428805 0.632639 0.279106
C10   C     C_R   0.702336 0.571195 0.632637 0.279106
C11   C     C_R   0.327867 0.500000 0.500000 -0.281430
C12   C     C_R   0.672133 0.499999 0.500000 -0.281429
C13   C     C_R   0.881213 0.628218 0.488442 0.662109
C14   C     C_R   0.118786 0.371775 0.488441 0.662111
C15   C     C_R   0.881213 0.371774 0.511560 0.662110
C16   C     C_R   0.118787 0.628219 0.511560 0.662110
N1    N     N_R   0.852559 0.499996 0.500001 -0.461263
N2    N     N_R   0.147441 0.499997 0.500000 -0.461263
C17   C     C_R   0.940466 0.369075 0.497503 -0.150906
C18   C     C_R   0.059534 0.630918 0.497503 -0.150906
C19   C     C_R   0.940466 0.630918 0.502501 -0.150905
C20   C     C_R   0.059534 0.369076 0.502499 -0.150905
C21   C     C_R   0.970176 0.499997 0.500002 -0.115091
C22   C     C_R   0.029824 0.499997 0.500001 -0.115092
C23   C     C_R   0.970819 0.239693 0.484055 0.406517
C24   C     C_R   0.029181 0.760300 0.484057 0.406512
C25   C     C_R   0.970819 0.760300 0.515946 0.406510
C26   C     C_R   0.029181 0.239694 0.515945 0.406517
C27   C     C_1   0.500000 0.065027 0.500000 -0.089323
C28   C     C_1   0.500000 0.934973 0.500000 -0.089323
C29   C     C_R   0.238290 0.567779 0.364987 0.181625
C30   C     C_R   0.761710 0.432214 0.364988 0.181627
C31   C     C_R   0.238290 0.432217 0.635013 0.181625
C32   C     C_R   0.761710 0.567779 0.635014 0.181627
N3    N     N_1   0.500000 0.500000 0.076820 0.008141
N4    N     N_1   0.500000 0.500000 0.923180 0.008141
O9    O     O_2   0.852541 0.752015 0.460007 -0.407385
O10   O     O_2   0.147459 0.247978 0.460005 -0.407387
O11   O     O_2   0.852541 0.247976 0.539994 -0.407385
O12   O     O_2   0.147460 0.752016 0.539995 -0.407387
Cl1   Cl    Cl    0.943123 0.105016 0.347837 -0.369615
Cl2   Cl    Cl    0.056878 0.894983 0.347853 -0.369614
Cl3   Cl    Cl    0.943121 0.894987 0.652145 -0.369611
Cl4   Cl    Cl    0.056877 0.105016 0.652159 -0.369618
I1    I     I_    0.193785 0.664010 0.153341 -0.012302
I2    I     I_    0.806214 0.335981 0.153341 -0.012299
I3    I     I_    0.193785 0.335984 0.846658 -0.012302
I4    I     I_    0.806215 0.664006 0.846663 -0.012306
Cl5   Cl    Cl    0.333360 0.671887 0.206519 -0.477926
Cl6   Cl    Cl    0.666640 0.328110 0.206521 -0.477931
Cl7   Cl    Cl    0.333360 0.328118 0.793485 -0.477929
Cl8   Cl    Cl    0.666640 0.671892 0.793476 -0.477928

loop_
_geom_bond_atom_site_label_1
_geom_bond_atom_site_label_2
_geom_bond_distance
_ccdc_geom_bond_type
Cu2   N3    1.973554 S    
O4    Cu2   1.969504 S    
C4    C30   1.411273 A    
O7    C6    1.283393 A    
C14   C20   1.405171 A    
C3    C31   1.411270 A    
O1    Cu1   1.969503 S    
C13   N1    1.369581 A    
C15   N1    1.369580 A    
O2    Cu2   1.969502 S    
C17   C23   1.400069 A    
C16   N2    1.369579 A    
C24   Cl2   1.761305 S    
C18   C24   1.400069 A    
O3    C2    1.278188 A    
C25   Cl3   1.761311 S    
C6    C12   1.482374 S    
C16   O12   1.349620 S    
O5    Cu1   1.951955 S    
C21   C22   1.410035 A    
O7    Cu1   1.951951 S    
C23   Cl1   1.761314 S    
C5    C11   1.482374 S    
C4    C32   1.411275 A    
O8    Cu2   1.951954 S    
N3    N4    1.193298 T    
C15   C17   1.405171 A    
O2    C2    1.278187 A    
C3    N2    1.441639 S    
C7    Cl5   1.772430 S    
O1    C1    1.278187 A    
C8    Cl6   1.772415 S    
C24   C25   1.401697 A    
C10   C32   1.404036 A    
C9    Cl7   1.772417 S    
C16   C18   1.405173 A    
C7    C29   1.404038 A    
C20   C26   1.400069 A    
C8    C30   1.404037 A    
C19   C25   1.400069 A    
C10   Cl8   1.772420 S    
C15   O11   1.349622 S    
C13   C19   1.405174 A    
C13   O9    1.349621 S    
C19   C21   1.400861 A    
C31   I3    2.145347 S    
C4    N1    1.441641 S    
Cu1   Cu2   2.626436 S    
C14   O10   1.349617 S    
C17   C21   1.400862 A    
O5    C5    1.283393 A    
C2    C28   1.431781 S    
O3    Cu1   1.969503 S    
O6    Cu2   1.951952 S    
C3    C29   1.411274 A    
C32   I4    2.145350 S    
C27   C28   1.203911 T    
C1    C27   1.431781 S    
C18   C22   1.400861 A    
C23   C26   1.401696 A    
C29   I1    2.145351 S    
O6    C6    1.283393 A    
C9    C31   1.404037 A    
Cu1   N4    1.973554 S    
C30   I2    2.145354 S    
C20   C22   1.400860 A    
C8    C12   1.416122 A    
C7    C11   1.416123 A    
C14   N2    1.369580 A    
C10   C12   1.416122 A    
O4    C1    1.278188 A    
C9    C11   1.416124 A    
O8    C5    1.283393 A    
C26   Cl4   1.761304 S    
