data_mof_unit_58181.cif
_audit_creation_date              2012-12-11T14:44:06-0500
_audit_creation_method            fapswitch 2.2
_symmetry_space_group_name_H-M    P1
_symmetry_Int_Tables_number       1
_space_group_crystal_system       triclinic
_cell_length_a                    18.85223
_cell_length_b                    10.938649
_cell_length_c                    18.777721
_cell_angle_alpha                 89.809166
_cell_angle_beta                  89.831835
_cell_angle_gamma                 90.060274
_cell_volume                      3872.26235538

loop_
_atom_site_label
_atom_site_type_symbol
_atom_type_description
_atom_site_fract_x
_atom_site_fract_y
_atom_site_fract_z
_atom_type_partial_charge
C1    C     C_R   0.731077 0.380863 0.147025 0.545161
C2    C     C_R   0.268967 0.380576 0.853057 0.545234
C3    C     C_R   0.231077 0.880863 0.147025 0.545161
C4    C     C_R   0.768967 0.880576 0.853057 0.545234
C5    C     C_R   0.511810 0.387747 0.926229 -0.060334
C6    C     C_R   0.488769 0.387836 0.072626 -0.061363
C7    C     C_R   0.011810 0.887747 0.926229 -0.060334
C8    C     C_R   0.988769 0.887835 0.072626 -0.061363
C9    C     C_R   0.006672 0.998031 0.962755 -0.065993
C10   C     C_R   0.993809 0.998074 0.035592 -0.066688
C11   C     C_R   0.506672 0.498031 0.962755 -0.065993
C12   C     C_R   0.493809 0.498074 0.035592 -0.066688
C13   C     C_R   0.677109 0.939895 0.027329 -0.161173
C14   C     C_R   0.323102 0.940693 0.972844 -0.161136
C15   C     C_R   0.177109 0.439895 0.027329 -0.161173
C16   C     C_R   0.823102 0.440693 0.972844 -0.161136
C17   C     C_R   0.685149 0.909002 0.955663 -0.146569
C18   C     C_R   0.315043 0.909895 0.044622 -0.146631
C19   C     C_R   0.185149 0.409002 0.955663 -0.146569
C20   C     C_R   0.815043 0.409896 0.044622 -0.146631
C21   C     C_R   0.747529 0.938910 0.919738 -0.024803
C22   C     C_R   0.252671 0.939725 0.080387 -0.024938
C23   C     C_R   0.247529 0.438910 0.919738 -0.024803
C24   C     C_R   0.752672 0.439725 0.080387 -0.024938
C25   C     C_R   0.796910 0.015702 0.952494 -0.048891
C26   C     C_R   0.203383 0.016493 0.047414 -0.048993
C27   C     C_R   0.296910 0.515702 0.952494 -0.048891
C28   C     C_R   0.703383 0.516493 0.047414 -0.048993
C29   C     C_R   0.789721 0.048748 0.022560 0.223638
C30   C     C_R   0.210463 0.049144 0.977184 0.223433
C31   C     C_R   0.289721 0.548748 0.022560 0.223638
C32   C     C_R   0.710463 0.549144 0.977184 0.223433
C33   C     C_R   0.731092 0.004326 0.062753 0.009268
C34   C     C_R   0.269093 0.004791 0.937166 0.009062
C35   C     C_R   0.231092 0.504326 0.062753 0.009268
C36   C     C_R   0.769093 0.504791 0.937166 0.009062
C37   C     C_R   0.519004 0.047486 0.471912 -0.033851
C38   C     C_R   0.526120 0.056100 0.545284 -0.029700
C39   C     C_R   0.019004 0.547486 0.471912 -0.033851
C40   C     C_R   0.026120 0.556100 0.545284 -0.029700
C41   C     C_R   0.505570 0.165210 0.578901 -0.002919
C42   C     C_R   0.513322 0.156584 0.430526 -0.007015
C43   C     C_R   0.005570 0.665210 0.578901 -0.002919
C44   C     C_R   0.013322 0.656584 0.430526 -0.007015
C45   C     C_R   0.530404 0.155239 0.147020 0.560312
C46   C     C_R   0.469662 0.155134 0.852901 0.557686
C47   C     C_R   0.030404 0.655239 0.147020 0.560312
C48   C     C_R   0.969662 0.655134 0.852901 0.557686
C49   C     C_R   0.497884 0.272096 0.538535 -0.157010
C50   C     C_R   0.504412 0.268456 0.464976 -0.167448
C51   C     C_R   0.997884 0.772096 0.538535 -0.157010
C52   C     C_R   0.004412 0.768456 0.464976 -0.167448
C53   C     C_R   0.826191 0.936606 0.455687 -0.053532
C54   C     C_R   0.173248 0.929548 0.545486 -0.053537
C55   C     C_R   0.326191 0.436606 0.455687 -0.053532
C56   C     C_R   0.673248 0.429548 0.545486 -0.053537
C57   C     C_R   0.832863 0.912084 0.527249 -0.145313
C58   C     C_R   0.165671 0.903709 0.474049 -0.136364
C59   C     C_R   0.332863 0.412084 0.527249 -0.145313
C60   C     C_R   0.665671 0.403709 0.474049 -0.136364
C61   C     C_R   0.780656 0.847514 0.563883 -0.044046
C62   C     C_R   0.219961 0.847345 0.436124 -0.044308
C63   C     C_R   0.280656 0.347514 0.563883 -0.044046
C64   C     C_R   0.719961 0.347345 0.436124 -0.044308
C65   C     C_R   0.723870 0.795965 0.526474 -0.067206
C66   C     C_R   0.280074 0.804507 0.471994 -0.070872
C67   C     C_R   0.223869 0.295965 0.526474 -0.067206
C68   C     C_R   0.780074 0.304507 0.471994 -0.070872
C69   C     C_R   0.715291 0.820126 0.453914 0.212896
C70   C     C_R   0.289035 0.828207 0.544361 0.215517
C71   C     C_R   0.215291 0.320126 0.453914 0.212896
C72   C     C_R   0.789035 0.328207 0.544361 0.215517
C73   C     C_R   0.763114 0.901431 0.419291 -0.008653
C74   C     C_R   0.238246 0.901509 0.580525 -0.009252
C75   C     C_R   0.263114 0.401431 0.419291 -0.008653
C76   C     C_R   0.738246 0.401509 0.580525 -0.009252
C77   C     C_R   0.727107 0.023142 0.140247 0.551174
C78   C     C_R   0.272984 0.023194 0.859604 0.550712
C79   C     C_R   0.227107 0.523142 0.140247 0.551174
C80   C     C_R   0.772984 0.523194 0.859604 0.550712
C81   C     C_R   0.710668 0.330597 0.359700 0.564994
C82   C     C_R   0.289506 0.330524 0.640389 0.568419
C83   C     C_R   0.210668 0.830597 0.359700 0.564994
C84   C     C_R   0.789506 0.830524 0.640389 0.568419
C85   C     C_R   0.533850 0.155400 0.355226 0.535753
C86   C     C_R   0.470804 0.157374 0.648264 0.539937
C87   C     C_R   0.033850 0.655400 0.355226 0.535753
C88   C     C_R   0.970804 0.657374 0.648264 0.539937
C89   C     C_R   0.743624 0.966179 0.352883 0.531413
C90   C     C_R   0.256642 0.966595 0.646950 0.534358
C91   C     C_R   0.243624 0.466179 0.352883 0.531413
C92   C     C_R   0.756642 0.466595 0.646950 0.534358
C93   C     C_R   0.499818 0.161914 0.925143 0.007438
C94   C     C_R   0.500460 0.162051 0.074651 0.006523
C95   C     C_R   0.999818 0.661914 0.925143 0.007438
C96   C     C_R   0.000460 0.662051 0.074651 0.006523
C97   C     C_R   0.502902 0.274708 0.962101 -0.038586
C98   C     C_R   0.497590 0.274773 0.037238 -0.039154
C99   C     C_R   0.002902 0.774708 0.962101 -0.038586
C100  C     C_R   0.997590 0.774773 0.037238 -0.039154
C101  C     C_R   0.495950 0.050760 0.037146 0.203524
C102  C     C_R   0.504206 0.050719 0.963056 0.203199
C103  C     C_R   0.995949 0.550760 0.037146 0.203524
C104  C     C_R   0.004206 0.550719 0.963056 0.203199
Cr1   Cr    Cr6+3 0.772000 0.169640 0.250110 1.046870
Cr2   Cr    Cr6+3 0.228000 0.169640 0.749890 1.056372
Cr3   Cr    Cr6+3 0.272000 0.669640 0.250110 1.046870
Cr4   Cr    Cr6+3 0.728000 0.669640 0.749890 1.056372
Cr5   Cr    Cr6+3 0.614960 0.323350 0.249260 1.022537
Cr6   Cr    Cr6+3 0.385040 0.323350 0.750740 1.019802
Cr7   Cr    Cr6+3 0.114960 0.823350 0.249260 1.022537
Cr8   Cr    Cr6+3 0.885040 0.823350 0.750740 1.019802
Cr9   Cr    Cr6+3 0.616670 0.010620 0.250840 1.068480
Cr10  Cr    Cr6+3 0.383330 0.010620 0.749160 1.072969
Cr11  Cr    Cr6+3 0.116670 0.510620 0.250840 1.068480
Cr12  Cr    Cr6+3 0.883330 0.510620 0.749160 1.072969
H1    H     H_    0.878423 0.948156 0.555192 0.161786
H2    H     H_    0.117754 0.932443 0.447053 0.163959
H3    H     H_    0.378423 0.448156 0.555192 0.161786
H4    H     H_    0.617754 0.432443 0.447053 0.163959
H5    H     H_    0.685894 0.737570 0.553473 0.185316
H6    H     H_    0.320638 0.753742 0.443857 0.181048
H7    H     H_    0.185894 0.237570 0.553473 0.185316
H8    H     H_    0.820638 0.253742 0.443857 0.181048
H9    H     H_    0.524704 0.392223 0.870156 0.148086
H10   H     H_    0.475906 0.392372 0.128683 0.148350
H11   H     H_    0.024704 0.892223 0.870156 0.148086
H12   H     H_    0.975906 0.892372 0.128683 0.148350
H13   H     H_    0.012157 0.083783 0.934319 0.155581
H14   H     H_    0.988268 0.083856 0.063633 0.155220
H15   H     H_    0.512157 0.583783 0.934319 0.155581
H16   H     H_    0.488268 0.583856 0.063633 0.155220
H17   H     H_    0.630244 0.909134 0.055566 0.179783
H18   H     H_    0.369915 0.909910 0.944713 0.180614
H19   H     H_    0.130244 0.409133 0.055566 0.179783
H20   H     H_    0.869915 0.409910 0.944713 0.180614
H21   H     H_    0.644533 0.858110 0.928922 0.164739
H22   H     H_    0.355541 0.858882 0.071573 0.164770
H23   H     H_    0.144533 0.358110 0.928922 0.164739
H24   H     H_    0.855541 0.358882 0.071573 0.164770
H25   H     H_    0.844376 0.046326 0.924974 0.170050
H26   H     H_    0.155937 0.047008 0.074831 0.169979
H27   H     H_    0.344376 0.546326 0.924974 0.170050
H28   H     H_    0.655937 0.547008 0.074831 0.169979
H29   H     H_    0.484631 0.357503 0.563745 0.155095
H30   H     H_    0.501444 0.352512 0.434853 0.154110
H31   H     H_    0.984631 0.857503 0.563745 0.155095
H32   H     H_    0.001444 0.852512 0.434853 0.154110
O1    O     O_R   0.787540 0.042690 0.170470 -0.493430
O2    O     O_R   0.212460 0.042690 0.829530 -0.493764
O3    O     O_R   0.287540 0.542690 0.170470 -0.493430
O4    O     O_R   0.712460 0.542690 0.829530 -0.493764
O5    O     O_R   0.556540 0.252920 0.323970 -0.517337
O6    O     O_R   0.443460 0.252920 0.676030 -0.521419
O7    O     O_R   0.056540 0.752920 0.323970 -0.517337
O8    O     O_R   0.943460 0.752920 0.676030 -0.521419
O9    O     O_R   0.545870 0.051100 0.330840 -0.499186
O10   O     O_R   0.454130 0.051100 0.669160 -0.485474
O11   O     O_R   0.045870 0.551100 0.330840 -0.499186
O12   O     O_R   0.954130 0.551100 0.669160 -0.485474
O13   O     O_R   0.681340 0.959300 0.325510 -0.486490
O14   O     O_R   0.318660 0.959300 0.674490 -0.480951
O15   O     O_R   0.181340 0.459300 0.325510 -0.486490
O16   O     O_R   0.818660 0.459300 0.674490 -0.480951
O17   O     O_3   0.667880 0.167870 0.250070 -0.304118
O18   O     O_3   0.332120 0.167870 0.749930 -0.305517
O19   O     O_3   0.167880 0.667870 0.250070 -0.304118
O20   O     O_3   0.832120 0.667870 0.749930 -0.305517
O21   O     O_R   0.765660 0.292160 0.175050 -0.527631
O22   O     O_R   0.234340 0.292160 0.824950 -0.527128
O23   O     O_R   0.265660 0.792160 0.175050 -0.527631
O24   O     O_R   0.734340 0.792160 0.824950 -0.527128
O25   O     O_R   0.670190 0.408980 0.168550 -0.519160
O26   O     O_R   0.329810 0.408980 0.831450 -0.519574
O27   O     O_R   0.170190 0.908980 0.168550 -0.519160
O28   O     O_R   0.829810 0.908980 0.831450 -0.519574
O29   O     O_R   0.556580 0.251450 0.175160 -0.527073
O30   O     O_R   0.443420 0.251450 0.824840 -0.529138
O31   O     O_R   0.056580 0.751450 0.175160 -0.527073
O32   O     O_R   0.943420 0.751450 0.824840 -0.529138
O33   O     O_R   0.545920 0.049510 0.170320 -0.442442
O34   O     O_R   0.454080 0.049510 0.829680 -0.443636
O35   O     O_R   0.045920 0.549510 0.170320 -0.442442
O36   O     O_R   0.954080 0.549510 0.829680 -0.443636
O37   O     O_R   0.681390 0.957840 0.176710 -0.498190
O38   O     O_R   0.318610 0.957840 0.823290 -0.499089
O39   O     O_R   0.181390 0.457840 0.176710 -0.498190
O40   O     O_R   0.818610 0.457840 0.823290 -0.499089
O41   O     O_R   0.787500 0.044280 0.330990 -0.511492
O42   O     O_R   0.212500 0.044280 0.669010 -0.511594
O43   O     O_R   0.287500 0.544280 0.330990 -0.511492
O44   O     O_R   0.712500 0.544280 0.669010 -0.511594
O45   O     O_R   0.765610 0.293630 0.323860 -0.490903
O46   O     O_R   0.234390 0.293630 0.676140 -0.479028
O47   O     O_R   0.265610 0.793630 0.323860 -0.490903
O48   O     O_R   0.734390 0.793630 0.676140 -0.479029
O49   O     O_R   0.670140 0.410570 0.329080 -0.496225
O50   O     O_R   0.329860 0.410570 0.670920 -0.503268
O51   O     O_R   0.170140 0.910570 0.329080 -0.496225
O52   O     O_R   0.829860 0.910570 0.670920 -0.503268
O53   O     O_3   0.485399 0.943088 0.074838 -0.696711
H33   H     H_    0.466894 0.878559 0.043353 0.317383
O54   O     O_3   0.514518 0.943049 0.925764 -0.696215
H34   H     H_    0.533287 0.878719 0.957433 0.317154
O55   O     O_3   0.985399 0.443088 0.074838 -0.696711
H35   H     H_    0.966894 0.378559 0.043353 0.317383
O56   O     O_3   0.014518 0.443049 0.925764 -0.696215
H36   H     H_    0.033287 0.378719 0.957433 0.317154
C105  C     C_1   0.884451 0.003821 0.423594 0.227063
N1    N     N_1   0.930946 0.057879 0.398182 -0.257972
C106  C     C_1   0.114098 0.991722 0.578883 0.234897
N2    N     N_1   0.067011 0.042136 0.605401 -0.259699
C107  C     C_1   0.384451 0.503821 0.423594 0.227063
N3    N     N_1   0.430945 0.557879 0.398182 -0.257972
C108  C     C_1   0.614098 0.491722 0.578883 0.234897
N4    N     N_1   0.567011 0.542136 0.605401 -0.259699
O57   O     O_3   0.659958 0.763442 0.419423 -0.665886
H37   H     H_    0.673232 0.753657 0.368700 0.344330
O58   O     O_3   0.348574 0.781266 0.576824 -0.665936
H38   H     H_    0.335894 0.761088 0.626725 0.342863
O59   O     O_3   0.159958 0.263441 0.419423 -0.665886
H39   H     H_    0.173232 0.253657 0.368700 0.344330
O60   O     O_3   0.848574 0.281266 0.576824 -0.665936
H40   H     H_    0.835894 0.261088 0.626725 0.342863
O61   O     O_3   0.843895 0.117938 0.049953 -0.727879
H41   H     H_    0.823034 0.173538 0.084945 0.350562
O62   O     O_3   0.156009 0.117399 0.949472 -0.728207
H42   H     H_    0.176599 0.173256 0.914234 0.351229
O63   O     O_3   0.343895 0.617938 0.049953 -0.727879
H43   H     H_    0.323034 0.673538 0.084945 0.350562
O64   O     O_3   0.656009 0.617399 0.949472 -0.728207
H44   H     H_    0.676599 0.673256 0.914234 0.351229
C109  C     C_1   0.512915 0.925622 0.441682 0.295745
N5    N     N_1   0.507392 0.828585 0.417931 -0.187601
C110  C     C_1   0.551007 0.950960 0.585809 0.258488
N6    N     N_1   0.570728 0.867368 0.618063 -0.239238
C111  C     C_1   0.012915 0.425622 0.441682 0.295744
N7    N     N_1   0.007392 0.328585 0.417931 -0.187601
C112  C     C_1   0.051007 0.450960 0.585809 0.258488
N8    N     N_1   0.070728 0.367368 0.618063 -0.239238

loop_
_geom_bond_atom_site_label_1
_geom_bond_atom_site_label_2
_ccdc_geom_bond_type
C58   C62   A    
C71   C75   A    
O54   H34   S    
C38   C110  S    
C101  C102  A    
Cr2   O2    S    
C48   C95   S    
C55   C59   A    
Cr6   O50   S    
C77   O37   A    
O53   H33   S    
C14   C18   A    
Cr5   O49   S    
C112  N8    T    
C48   O32   A    
C72   C76   A    
C43   C51   A    
C68   H8    S    
C5    H9    S    
Cr3   O47   S    
C97   C98   A    
C45   O33   A    
Cr2   O46   S    
Cr3   O23   S    
O55   H35   S    
C84   O52   A    
C15   C19   A    
C41   C86   S    
Cr12  O40   S    
C1    O25   A    
O63   H43   S    
C57   C61   A    
C79   O39   A    
C90   O14   A    
C69   O57   S    
C43   C88   S    
Cr2   O18   S    
C79   O3    A    
O61   H41   S    
Cr12  O12   S    
C40   C112  S    
C81   O49   A    
Cr5   O25   S    
Cr10  O14   S    
C15   H19   S    
Cr6   O30   S    
C95   C99   A    
Cr8   O20   S    
C29   C33   A    
C58   H2    S    
C80   O4    A    
C104  O56   S    
C41   C49   A    
C37   C42   A    
C18   H22   S    
C46   O30   A    
C29   O61   S    
Cr10  O10   S    
C56   C108  S    
C47   O31   A    
Cr7   O51   S    
C54   C74   A    
C11   H15   S    
C8    H12   S    
C40   C43   A    
Cr9   O33   S    
O60   H40   S    
C94   C101  A    
Cr1   O17   S    
C70   C74   A    
C27   H27   S    
C110  N6    T    
C66   H6    S    
C69   C73   A    
C28   H28   S    
C23   C27   A    
Cr4   O48   S    
C44   C87   S    
Cr5   O5    S    
C109  N5    T    
C89   O13   A    
C59   H3    S    
C75   C91   S    
Cr8   O32   S    
C55   C75   A    
C44   C52   A    
Cr4   O20   S    
C32   O64   S    
C52   H32   S    
Cr4   O4    S    
C111  N7    T    
Cr7   O31   S    
Cr2   O22   S    
C91   O15   A    
C85   O9    A    
C81   O45   A    
C45   C94   S    
C9    C10   A    
C15   C35   A    
Cr10  O18   S    
C63   C67   A    
Cr6   O26   S    
C25   C29   A    
Cr3   O19   S    
C74   C90   S    
C62   C66   A    
C63   C82   S    
C27   C31   A    
O56   H36   S    
C6    C98   A    
C103  O55   S    
C28   C32   A    
C31   O63   S    
C6    H10   S    
C38   C41   A    
C47   O35   A    
C36   C80   S    
C47   C96   S    
C77   O1    A    
O58   H38   S    
C48   O36   A    
C83   O47   A    
C30   C34   A    
C19   C23   A    
C14   H18   S    
C65   C69   A    
O57   H37   S    
Cr10  O34   S    
C72   O60   S    
C91   O43   A    
C17   C21   A    
C56   C60   A    
Cr11  O11   S    
C68   C72   A    
C62   C83   S    
C7    C99   A    
Cr1   O45   S    
C102  O54   S    
C10   H14   S    
C106  N2    T    
C13   C33   A    
C37   C38   A    
Cr6   O6    S    
Cr1   O41   S    
O59   H39   S    
Cr11  O39   S    
C93   C97   A    
O62   H42   S    
O64   H44   S    
C51   H31   S    
C16   C20   A    
Cr9   O37   S    
C2    C23   S    
C54   C58   A    
C105  N1    T    
C80   O40   A    
C49   H29   S    
C42   C85   S    
C85   O5    A    
C37   C109  S    
C86   O10   A    
Cr5   O17   S    
C42   C50   A    
C78   O38   A    
C3    O27   A    
C54   C106  S    
Cr8   O28   S    
C76   C92   S    
C26   C30   A    
C65   H5    S    
C56   C76   A    
C3    O23   A    
C5    C11   A    
C22   C26   A    
Cr1   O21   S    
Cr7   O27   S    
C9    H13   S    
C35   C79   S    
Cr7   O19   S    
C4    O24   A    
Cr2   O42   S    
C83   O51   A    
C88   O8    A    
C64   C68   A    
C20   H24   S    
C39   C111  S    
C95   C104  A    
C78   O2    A    
C57   H1    S    
C90   O42   A    
C7    C9    A    
C21   C25   A    
C53   C57   A    
C12   H16   S    
Cr11  O19   S    
C18   C22   A    
C13   H17   S    
C30   O62   S    
Cr12  O16   S    
C8    C10   A    
C25   H25   S    
C24   C28   A    
Cr9   O17   S    
C5    C97   A    
C61   C84   S    
C67   H7    S    
C93   C102  A    
C14   C34   A    
Cr11  O35   S    
C11   C12   A    
C32   C36   A    
C82   O50   A    
C39   C44   A    
C87   O7    A    
C45   O29   A    
C73   C89   S    
Cr8   O52   S    
Cr1   O1    S    
C50   H30   S    
Cr12  O36   S    
C59   C63   A    
C70   O58   S    
Cr10  O38   S    
C99   C100  A    
C13   C17   A    
C60   C64   A    
C7    H11   S    
C46   O34   A    
Cr4   O24   S    
C92   O16   A    
C86   O6    A    
Cr3   O3    S    
C51   C52   A    
C2    O22   A    
Cr8   O8    S    
C101  O53   S    
C89   O41   A    
C16   C36   A    
C6    C12   A    
C4    C21   S    
Cr6   O18   S    
C33   C77   S    
C8    C100  A    
C66   C70   A    
C46   C93   S    
C84   O48   A    
C107  N3    T    
C53   C73   A    
C96   C100  A    
C31   C35   A    
C1    O21   A    
C87   O11   A    
C55   C107  S    
C60   H4    S    
C67   C71   A    
C88   O12   A    
C108  N4    T    
Cr11  O15   S    
C64   C81   S    
C82   O46   A    
C71   O59   S    
C2    O26   A    
Cr9   O13   S    
C39   C40   A    
C61   C65   A    
C1    C24   S    
C53   C105  S    
C49   C50   A    
C4    O28   A    
C96   C103  A    
Cr3   O43   S    
C103  C104  A    
Cr5   O29   S    
C94   C98   A    
Cr12  O20   S    
C3    C22   S    
C17   H21   S    
Cr9   O9    S    
C26   H26   S    
Cr7   O7    S    
C20   C24   A    
C19   H23   S    
C34   C78   S    
C92   O44   A    
Cr4   O44   S    
C16   H20   S    
