data_mof_unit_56686.cif
_audit_creation_date              2012-12-10T20:44:01-0500
_audit_creation_method            fapswitch 2.2
_symmetry_space_group_name_H-M    P1
_symmetry_Int_Tables_number       1
_space_group_crystal_system       triclinic
_cell_length_a                    17.474601
_cell_length_b                    10.687022
_cell_length_c                    9.95011
_cell_angle_alpha                 89.503586
_cell_angle_beta                  90.974518
_cell_angle_gamma                 91.244963
_cell_volume                      1857.42612471

loop_
_atom_site_label
_atom_site_type_symbol
_atom_type_description
_atom_site_fract_x
_atom_site_fract_y
_atom_site_fract_z
_atom_type_partial_charge
C1    C     C_R   0.502944 0.260165 0.500569 0.914256
C2    C     C_R   0.885533 0.461882 0.514028 -0.030983
C3    C     C_1   0.966286 0.454925 0.519764 0.012833
C4    C     C_1   0.034215 0.455567 0.521770 -0.003956
C5    C     C_R   0.150198 0.580983 0.546689 0.063721
C6    C     C_R   0.229946 0.594379 0.537224 0.035145
C7    C     C_R   0.272196 0.490947 0.500004 -0.135895
C8    C     C_R   0.237178 0.374538 0.476617 -0.256474
C9    C     C_R   0.158533 0.359219 0.486070 0.452783
C10   C     C_R   0.115078 0.463847 0.520373 -0.018357
C11   C     C_R   0.521060 0.062819 0.622707 0.026824
C12   C     C_R   0.354187 0.499354 0.499372 0.950617
C13   C     C_R   0.516622 0.129046 0.501501 -0.064417
C14   C     C_R   0.528410 0.066672 0.380113 -0.222257
C15   C     C_R   0.528484 0.937162 0.379362 -0.195315
C16   C     C_R   0.516906 0.871380 0.500058 -0.078686
C17   C     C_R   0.521028 0.934567 0.621802 -0.029702
C18   C     C_3   0.471361 0.921874 0.743245 -0.145919
C19   C     C_3   0.472069 0.064790 0.745312 0.496158
C20   C     C_R   0.433503 0.481264 0.068210 0.002792
C21   C     C_R   0.561677 0.543810 0.073582 0.473154
C22   C     C_R   0.562979 0.539136 0.931238 0.055528
C23   C     C_R   0.503123 0.739778 0.499651 0.888942
C24   C     C_R   0.433364 0.484458 0.926731 0.065678
C25   C     C_3   0.374614 0.382277 0.913374 -0.075967
C26   C     C_3   0.375146 0.374511 0.067962 0.137039
C27   C     C_R   0.645963 0.498924 0.501133 0.953773
C28   C     C_R   0.838957 0.370504 0.578072 0.397981
C29   C     C_R   0.759687 0.384016 0.573142 0.009204
C30   C     C_R   0.728013 0.486743 0.504795 -0.126125
C31   C     C_R   0.774245 0.576880 0.440618 0.007345
C32   C     C_R   0.853871 0.564370 0.445387 0.064990
H1    H     H_    0.531726 0.889588 0.283982 0.172847
H2    H     H_    0.414028 0.878487 0.720844 0.174083
H3    H     H_    0.396427 0.299526 0.862561 0.206965
H4    H     H_    0.271451 0.294543 0.452744 0.173828
H5    H     H_    0.531807 0.116479 0.285076 0.172491
N1    N     N_R   0.499490 0.499140 0.142800 -0.180696
N2    N     N_R   0.499490 0.499180 0.857150 -0.168473
O1    O     O_R   0.500010 0.316790 0.614690 -0.599389
O2    O     O_R   0.500000 0.316760 0.385350 -0.651454
O3    O     O_R   0.389120 0.500020 0.614710 -0.570376
O4    O     O_R   0.389110 0.499990 0.385370 -0.635231
O5    O     O_R   0.500000 0.683240 0.614650 -0.631929
O6    O     O_R   0.499990 0.683210 0.385310 -0.641775
O7    O     O_R   0.610890 0.500010 0.614630 -0.650378
O8    O     O_R   0.610880 0.499980 0.385290 -0.582531
Zn1   Zn    Zn3+2 0.500010 0.500020 0.653130 0.940352
Zn2   Zn    Zn3+2 0.499990 0.499980 0.346870 0.943704
O9    O     O_3   0.867729 0.267693 0.646159 -0.775159
H6    H     H_    0.924079 0.266211 0.639626 0.337472
N3    N     N_3   0.509969 0.865146 0.860113 -0.449561
H7    H     H_    0.569342 0.866369 0.847867 0.195513
H8    H     H_    0.492277 0.771327 0.865890 0.209969
O10   O     O_3   0.399581 0.114247 0.718797 -0.779370
H9    H     H_    0.367177 0.088807 0.795752 0.337050
N4    N     N_3   0.511007 0.121879 0.862469 -0.456587
H10   H     H_    0.567285 0.090816 0.870253 0.166457
H11   H     H_    0.516009 0.218220 0.845769 0.194358
O11   O     O_3   0.622850 0.599744 0.139130 -0.743350
H12   H     H_    0.601279 0.650338 0.211494 0.362160
N5    N     N_3   0.630798 0.585383 0.868369 -0.403731
H13   H     H_    0.616275 0.649290 0.792733 0.216695
H14   H     H_    0.660907 0.509730 0.832380 0.221442
N6    N     N_3   0.303474 0.426451 0.850673 -0.404079
H15   H     H_    0.259930 0.360393 0.869797 0.215852
H16   H     H_    0.287677 0.511999 0.891059 0.192965
N7    N     N_3   0.301301 0.405324 0.126865 -0.429395
H17   H     H_    0.300131 0.374896 0.226533 0.210558
H18   H     H_    0.294843 0.502407 0.128647 0.184735
N8    N     N_3   0.710494 0.291922 0.635434 -0.448692
H19   H     H_    0.720612 0.204951 0.592607 0.215818
H20   H     H_    0.724924 0.286900 0.737719 0.219563
N9    N     N_3   0.404213 0.254203 0.116913 -0.437493
H21   H     H_    0.461757 0.246148 0.091681 0.182995
H22   H     H_    0.401738 0.250996 0.221524 0.218678
N10   N     N_3   0.739785 0.682184 0.374779 -0.449490
H23   H     H_    0.760005 0.764158 0.421024 0.177969
H24   H     H_    0.756147 0.684138 0.274254 0.228917
N11   N     N_3   0.903370 0.655465 0.381991 -0.434257
H25   H     H_    0.894115 0.743066 0.423895 0.192415
H26   H     H_    0.889622 0.659292 0.279433 0.192576
N12   N     N_3   0.104225 0.685151 0.582010 -0.435925
H27   H     H_    0.112500 0.756689 0.511127 0.197904
H28   H     H_    0.122332 0.717694 0.676303 0.187396
N13   N     N_3   0.268660 0.711441 0.564913 -0.464537
H29   H     H_    0.257401 0.736991 0.663658 0.186557
H30   H     H_    0.247179 0.779739 0.499559 0.194266
O12   O     O_3   0.127371 0.241528 0.460786 -0.758088
H31   H     H_    0.071704 0.240298 0.477102 0.332687

loop_
_geom_bond_atom_site_label_1
_geom_bond_atom_site_label_2
_ccdc_geom_bond_type
C8    C9    A    
O10   H9    S    
C23   O6    A    
C18   N3    S    
C7    C8    A    
O8    Zn2   S    
N1    Zn2   S    
N10   H23   S    
C19   N4    S    
C11   C19   S    
N5    H13   S    
N9    H22   S    
C28   C29   A    
C12   O4    A    
C30   C31   A    
C5    N12   S    
N13   H30   S    
N4    H11   S    
C32   N11   S    
C19   O10   S    
C15   C16   A    
C24   N2    A    
C2    C32   A    
C18   C19   S    
C8    H4    S    
C12   O3    A    
C1    O1    A    
N7    H17   S    
C28   O9    S    
C21   N1    A    
N12   H27   S    
C16   C17   A    
N6    H16   S    
N5    H14   S    
C31   N10   S    
C9    C10   A    
C13   C14   A    
C27   C30   S    
O2    Zn2   S    
N3    H8    S    
O9    H6    S    
N10   H24   S    
C7    C12   S    
O7    Zn1   S    
N9    H21   S    
C20   C24   A    
C25   N6    S    
C24   C25   S    
C21   O11   S    
N11   H26   S    
C9    O12   S    
N8    H20   S    
N13   H29   S    
O4    Zn2   S    
C25   C26   S    
C23   O5    A    
O11   H12   S    
C29   C30   A    
C22   N5    S    
C20   N1    A    
C31   C32   A    
O6    Zn2   S    
C17   C18   S    
O3    Zn1   S    
C18   H2    S    
C25   H3    S    
C27   O7    A    
C1    O2    A    
N12   H28   S    
C16   C23   S    
C1    C13   S    
C4    C10   S    
C3    C4    T    
N3    H7    S    
C27   O8    A    
O1    Zn1   S    
C11   C17   A    
N11   H25   S    
C6    C7    A    
C6    N13   S    
C26   N7    S    
C2    C3    S    
N8    H19   S    
C14   H5    S    
C11   C13   A    
N4    H10   S    
C5    C6    A    
C20   C26   S    
C22   N2    A    
C26   N9    S    
C5    C10   A    
N7    H18   S    
N6    H15   S    
C14   C15   A    
C2    C28   A    
O12   H31   S    
C21   C22   A    
C15   H1    S    
O5    Zn1   S    
N2    Zn1   S    
C29   N8    S    
