data_mof_unit_33893.cif
_audit_creation_date              2012-12-10T16:51:18-0500
_audit_creation_method            fapswitch 2.2
_symmetry_space_group_name_H-M    P1
_symmetry_Int_Tables_number       1
_space_group_crystal_system       triclinic
_cell_length_a                    27.752203
_cell_length_b                    8.677635
_cell_length_c                    7.439226
_cell_angle_alpha                 102.562891
_cell_angle_beta                  94.452671
_cell_angle_gamma                 92.188996
_cell_volume                      1740.5740781

loop_
_atom_site_label
_atom_site_type_symbol
_atom_type_description
_atom_site_fract_x
_atom_site_fract_y
_atom_site_fract_z
_atom_type_partial_charge
C1    C     C_R   0.498461 0.199842 0.453580 0.875968
C2    C     C_R   0.501357 0.800149 0.546443 0.871648
C3    C     C_R   0.102184 0.503488 0.489197 -0.129664
C4    C     C_R   0.899146 0.489860 0.518654 -0.129940
C5    C     C_R   0.124176 0.377139 0.378264 -0.187218
C6    C     C_R   0.877159 0.616198 0.629490 -0.203510
C7    C     C_R   0.094776 0.259841 0.252132 0.371825
C8    C     C_R   0.906550 0.733608 0.755542 0.378371
C9    C     C_R   0.131244 0.633847 0.592829 -0.057036
C10   C     C_R   0.870075 0.359730 0.414663 -0.043348
C11   C     C_R   0.354950 0.500800 0.505426 -0.187481
C12   C     C_R   0.645710 0.496231 0.495186 -0.207510
C13   C     C_R   0.971709 0.360330 0.407362 0.000178
C14   C     C_R   0.029621 0.633037 0.600489 0.000104
C15   C     C_R   0.979179 0.622046 0.622085 -0.136681
C16   C     C_R   0.022154 0.371296 0.385804 -0.136757
C17   C     C_R   0.950142 0.491839 0.513941 -0.064778
C18   C     C_R   0.051191 0.501486 0.493980 -0.065866
C19   C     C_R   0.942351 0.218189 0.339716 0.513336
C20   C     C_R   0.058960 0.775264 0.667918 0.513223
C21   C     C_R   0.891847 0.224397 0.328726 -0.307445
C22   C     C_R   0.109468 0.769168 0.678702 -0.303676
C23   C     C_R   0.407643 0.499904 0.502074 0.846863
C24   C     C_R   0.592591 0.499630 0.497855 0.846570
C25   C     C_R   0.044179 0.265951 0.245229 0.428283
C26   C     C_R   0.957146 0.727467 0.762562 0.428054
C27   C     C_2   0.497669 0.032205 0.427162 -0.372940
C28   C     C_2   0.501887 0.967770 0.572900 -0.370797
C29   C     C_R   0.175207 0.378255 0.388760 0.617056
C30   C     C_R   0.826138 0.615385 0.618595 0.672927
C31   C     C_R   0.181720 0.630675 0.596874 0.601394
C32   C     C_R   0.819591 0.363014 0.410311 0.561345
C33   C     C_R   0.277922 0.575493 0.379963 0.547967
C34   C     C_R   0.723687 0.473210 0.659531 0.545182
C35   C     C_R   0.328413 0.575195 0.383563 -0.368845
C36   C     C_R   0.673415 0.478024 0.655079 -0.382965
C37   C     C_R   0.330673 0.425326 0.625072 0.464268
C38   C     C_R   0.669388 0.512842 0.338249 0.470370
C39   C     C_R   0.280264 0.427872 0.622904 -0.308438
C40   C     C_R   0.719909 0.507220 0.343468 -0.279311
C41   C     C_R   0.254082 0.503202 0.501934 0.205592
C42   C     C_R   0.747032 0.490804 0.504071 0.183390
Cu1   Cu    Cu3+1 0.505380 0.517380 0.684380 0.972218
Cu2   Cu    Cu3+1 0.494620 0.482620 0.315620 0.980655
N1    N     N_R   0.202469 0.502634 0.498941 -0.440786
N2    N     N_R   0.798773 0.490757 0.508905 -0.441068
N3    N     N_2   0.486510 0.456430 0.038510 -0.205032
N4    N     N_2   0.513490 0.543570 0.961490 -0.208480
O1    O     O_R   0.503500 0.286120 0.619780 -0.583357
O2    O     O_R   0.496500 0.713880 0.380220 -0.590139
O3    O     O_R   0.494410 0.256780 0.308360 -0.588309
O4    O     O_R   0.505590 0.743220 0.691640 -0.593284
O5    O     O_R   0.434810 0.514700 0.655690 -0.550449
O6    O     O_R   0.565190 0.485300 0.344310 -0.538794
O7    O     O_R   0.425720 0.485350 0.344280 -0.581155
O8    O     O_R   0.574280 0.514650 0.655720 -0.590626
O9    O     O_2   0.197680 0.257070 0.290030 -0.503746
O10   O     O_2   0.803779 0.737924 0.715239 -0.488816
O11   O     O_2   0.791439 0.238697 0.310499 -0.568071
O12   O     O_2   0.209939 0.754945 0.696397 -0.544284
O13   O     O_3   0.356077 0.353778 0.748723 -0.576719
C43   C     C_3   0.358264 0.192020 0.666159 -0.276170
H1    H     H_    0.377146 0.174997 0.537081 0.144188
H2    H     H_    0.321488 0.131479 0.637527 0.190047
H3    H     H_    0.379428 0.134960 0.763827 0.184197
O14   O     O_3   0.643159 0.526542 0.177128 -0.562783
C44   C     C_3   0.649094 0.683742 0.156450 -0.298444
H4    H     H_    0.687024 0.713404 0.132024 0.191085
H5    H     H_    0.637660 0.769188 0.278143 0.149365
H6    H     H_    0.625700 0.696615 0.033379 0.185634
H7    H     H_    0.462616 0.377036 0.948342 0.245129
H8    H     H_    0.537198 0.623384 0.051830 0.232309
H9    H     H_    0.261379 0.370471 0.714642 0.167981
H10   H     H_    0.738240 0.517155 0.222841 0.205170
O15   O     O_3   0.115180 0.154568 0.115363 -0.526164
C45   C     C_3   0.115556 0.006052 0.162972 -0.149372
H11   H     H_    0.078632 0.948638 0.140276 0.183855
H12   H     H_    0.131077 0.014568 0.307768 0.138264
H13   H     H_    0.138918 0.929284 0.072060 0.190553
O16   O     O_3   0.886124 0.838933 0.892221 -0.517255
C46   C     C_3   0.885823 0.987517 0.844733 -0.172650
H14   H     H_    0.870444 0.979125 0.699794 0.127825
H15   H     H_    0.922745 0.044954 0.868004 0.190612
H16   H     H_    0.862364 0.064207 0.935280 0.181045
H17   H     H_    0.656184 0.466114 0.777412 0.226634
H18   H     H_    0.346990 0.635582 0.293582 0.190819
O17   O     O_3   0.750463 0.460723 0.819766 -0.568970
C47   C     C_3   0.750629 0.299818 0.827045 -0.286184
H19   H     H_    0.765693 0.227646 0.703528 0.175122
H20   H     H_    0.713708 0.252219 0.841954 0.177861
H21   H     H_    0.774291 0.288950 0.950308 0.219020
O18   O     O_3   0.251591 0.655868 0.267892 -0.567202
C48   C     C_3   0.251626 0.573885 0.082266 -0.265019
H22   H     H_    0.240078 0.446543 0.063162 0.179736
H23   H     H_    0.287737 0.586757 0.030457 0.183267
H24   H     H_    0.225175 0.626277 0.996827 0.215252
H25   H     H_    0.869687 0.119166 0.262392 0.206390
H26   H     H_    0.131628 0.874453 0.744833 0.206346
O19   O     O_3   0.963241 0.073253 0.293921 -0.521059
C49   C     C_3   0.944381 0.966627 0.393689 -0.276684
H27   H     H_    0.909386 0.908663 0.324728 0.189856
H28   H     H_    0.940644 0.024686 0.540282 0.124110
H29   H     H_    0.969737 0.871878 0.396659 0.186816
O20   O     O_3   0.038038 0.920157 0.713688 -0.521511
C50   C     C_3   0.056930 0.026964 0.614210 -0.276023
H30   H     H_    0.060788 0.969029 0.467674 0.124669
H31   H     H_    0.091867 0.085098 0.683564 0.188168
H32   H     H_    0.031535 0.121576 0.611038 0.186215
O21   O     O_3   0.017409 0.179863 0.088293 -0.467568
C51   C     C_3   0.004744 0.283768 0.972643 -0.225642
H33   H     H_    0.037497 0.341502 0.932351 0.142723
H34   H     H_    0.980222 0.373391 0.038200 0.113924
H35   H     H_    0.984573 0.215662 0.844271 0.173287
O22   O     O_3   0.983905 0.813640 0.919477 -0.467821
C52   C     C_3   0.996590 0.709809 0.035196 -0.224611
H36   H     H_    0.021129 0.620219 0.969697 0.112874
H37   H     H_    0.963847 0.652041 0.075508 0.144355
H38   H     H_    0.016749 0.777993 0.163550 0.173658
H39   H     H_    0.493701 0.961410 0.286365 0.181079
H40   H     H_    0.505823 0.038565 0.713700 0.182227

loop_
_geom_bond_atom_site_label_1
_geom_bond_atom_site_label_2
_ccdc_geom_bond_type
O17   C47   S    
C48   H22   S    
C22   H26   S    
C8    C26   A    
C14   C18   A    
C34   C42   A    
C45   H13   S    
Cu1   Cu2   S    
C46   H14   S    
C39   C41   A    
C50   H31   S    
C6    C8    A    
C19   C21   A    
C45   H12   S    
C35   H18   S    
C9    C22   A    
C24   O6    A    
C52   H36   S    
C3    C18   A    
C42   N2    S    
C11   C37   A    
C51   H33   S    
C49   H27   S    
C43   H2    S    
C2    O2    A    
Cu1   O5    S    
C38   O14   S    
C52   H37   S    
C12   C36   A    
Cu1   N4    S    
Cu2   N3    S    
C25   O21   S    
C40   C42   A    
O14   C44   S    
C48   H23   S    
N4    H8    S    
O20   C50   S    
C46   H15   S    
C23   O5    A    
C5    C29   A    
C10   C21   A    
C50   H32   S    
C13   C19   A    
C44   H4    S    
N3    N4    D    
C14   C20   A    
C45   H11   S    
C4    C6    A    
C28   H40   S    
C33   O18   S    
C5    C7    A    
C19   O19   S    
Cu1   O1    S    
C15   C26   A    
C7    O15   S    
C49   H29   S    
C29   N1    A    
C44   H5    S    
C31   O12   S    
O15   C45   S    
C26   O22   S    
C43   H1    S    
C3    C9    A    
Cu2   O6    S    
C21   H25   S    
O19   C49   S    
C47   H21   S    
C52   H38   S    
C49   H28   S    
C23   O7    A    
C1    O3    A    
C51   H35   S    
N3    H7    S    
C2    O4    A    
C4    C17   A    
Cu2   O3    S    
C6    C30   A    
C29   O9    S    
C48   H24   S    
C4    C10   A    
C46   H16   S    
C1    C27   S    
Cu2   O2    S    
C16   C25   A    
C15   C17   A    
C47   H20   S    
C43   H3    S    
C32   N2    A    
C30   N2    A    
C20   C22   A    
O16   C46   S    
C3    C5    A    
C37   O13   S    
O22   C52   S    
C20   O20   S    
C27   H39   S    
C36   H17   S    
C24   O8    A    
C50   H30   S    
C12   C24   S    
C7    C25   A    
C13   C17   A    
C44   H6    S    
C33   C41   A    
C11   C35   A    
C37   C39   A    
O21   C51   S    
C38   C40   A    
Cu2   O7    S    
C30   O10   S    
C11   C23   S    
O18   C48   S    
C33   C35   A    
C40   H10   S    
C34   C36   A    
C34   O17   S    
C39   H9    S    
C12   C38   A    
O13   C43   S    
Cu1   O4    S    
C51   H34   S    
C9    C31   A    
C10   C32   A    
Cu1   O8    S    
C47   H19   S    
C16   C18   A    
C31   N1    A    
C13   C16   A    
C27   C28   D    
C8    O16   S    
C41   N1    S    
C14   C15   A    
C2    C28   S    
C32   O11   S    
C1    O1    A    
