data_mof_unit_7250.cif
_audit_creation_date              2013-03-05T16:23:15-0500
_audit_creation_method            fapswitch 2.2
_symmetry_space_group_name_H-M    P1
_symmetry_Int_Tables_number       1
_space_group_crystal_system       triclinic
_cell_length_a                    27.616934
_cell_length_b                    10.474342
_cell_length_c                    9.763291
_cell_angle_alpha                 89.318086
_cell_angle_beta                  89.633724
_cell_angle_gamma                 90.130343
_cell_volume                      2823.95395951

loop_
_atom_site_label
_atom_site_type_symbol
_atom_site_description
_atom_site_fract_x
_atom_site_fract_y
_atom_site_fract_z
_atom_type_partial_charge
O1    O     O_R   0.500000 0.313960 0.616610 -0.623301
O2    O     O_R   0.500000 0.686040 0.383390 -0.629826
O3    O     O_R   0.500020 0.313950 0.383350 -0.625331
O4    O     O_R   0.499980 0.686050 0.616650 -0.622226
C1    C     C_R   0.500360 0.257566 0.500798 0.857083
C2    C     C_R   0.499743 0.742477 0.499194 0.860491
O5    O     O_R   0.428750 0.500030 0.616610 -0.572422
O6    O     O_R   0.571250 0.499970 0.383390 -0.609257
O7    O     O_R   0.428770 0.500020 0.383360 -0.641681
O8    O     O_R   0.571230 0.499980 0.616640 -0.601984
C3    C     C_R   0.405996 0.503444 0.500159 0.889527
C4    C     C_R   0.593898 0.500257 0.499781 0.895035
Zn1   Zn    Zn3+2 0.499990 0.500010 0.655740 0.962494
Zn2   Zn    Zn3+2 0.500010 0.499990 0.344260 0.937235
C5    C     C_R   0.173932 0.385123 0.533575 0.502951
C6    C     C_R   0.824140 0.638507 0.528251 0.485498
O9    O     O_2   0.196161 0.272900 0.509396 -0.570470
O10   O     O_2   0.801454 0.745440 0.484799 -0.574580
N1    N     N_R   0.200081 0.496160 0.532182 -0.345941
N2    N     N_R   0.798493 0.527778 0.547369 -0.340299
C7    C     C_R   0.178768 0.611415 0.557529 0.489814
C8    C     C_R   0.819941 0.419486 0.597559 0.491945
C9    C     C_R   0.274144 0.554628 0.400421 0.138003
C10   C     C_R   0.727494 0.449658 0.417226 0.133269
C11   C     C_R   0.325159 0.572293 0.402660 0.018321
C12   C     C_R   0.676294 0.433496 0.413226 0.004881
C13   C     C_R   0.328912 0.428980 0.603481 0.039742
C14   C     C_R   0.668122 0.592832 0.594975 0.042268
C15   C     C_R   0.278856 0.429588 0.611671 -0.198287
C16   C     C_R   0.717951 0.597492 0.607109 -0.186984
C17   C     C_R   0.251432 0.491487 0.512332 0.240249
C18   C     C_R   0.747551 0.526533 0.521283 0.248165
C19   C     C_R   0.100929 0.506189 0.576013 -0.055257
C20   C     C_R   0.897600 0.526339 0.588556 -0.052431
C21   C     C_R   0.124062 0.387698 0.559445 -0.020213
C22   C     C_R   0.874071 0.640541 0.551437 -0.018058
C23   C     C_R   0.096931 0.275035 0.566701 -0.142363
C24   C     C_R   0.900979 0.752753 0.534107 -0.143394
C25   C     C_R   0.128600 0.619170 0.574921 -0.020000
C26   C     C_R   0.870155 0.414980 0.613259 -0.021298
C27   C     C_R   0.352760 0.502591 0.501436 -0.109660
C28   C     C_R   0.646856 0.508599 0.501206 -0.100806
H1    H     H_    0.260909 0.379676 0.695671 0.156651
H2    H     H_    0.734021 0.657123 0.684681 0.160605
H3    H     H_    0.113931 0.182737 0.554196 0.186116
H4    H     H_    0.883645 0.841868 0.505884 0.188174
C29   C     C_R   0.972075 0.403937 0.618643 0.044999
C30   C     C_R   0.026752 0.632401 0.591412 0.045638
C31   C     C_R   0.975705 0.637236 0.582085 0.045649
C32   C     C_R   0.022889 0.397135 0.602153 0.046166
C33   C     C_R   0.948605 0.522782 0.597914 0.070239
C34   C     C_R   0.050059 0.511883 0.591122 0.070987
C35   C     C_R   0.943628 0.295400 0.651300 -0.221959
C36   C     C_R   0.055525 0.743870 0.597017 -0.221605
C37   C     C_R   0.893414 0.301428 0.650091 -0.145800
C38   C     C_R   0.105681 0.737012 0.590260 -0.140306
O11   O     O_2   0.792725 0.315922 0.629395 -0.576295
O12   O     O_2   0.206104 0.718182 0.564112 -0.578720
C39   C     C_R   0.047289 0.279337 0.589583 -0.219436
C40   C     C_R   0.950875 0.751728 0.550916 -0.220565
H5    H     H_    0.872962 0.215378 0.673296 0.189163
H6    H     H_    0.126332 0.825001 0.593246 0.189768
H7    H     H_    0.959336 0.204772 0.679800 0.141553
H8    H     H_    0.040188 0.837754 0.608762 0.138521
H9    H     H_    0.028550 0.188882 0.589873 0.137697
H10   H     H_    0.969352 0.840964 0.531393 0.140136
C41   C     C_3   0.502552 0.038125 0.630913 -0.146802
C42   C     C_3   0.497669 0.962037 0.369059 -0.148618
C43   C     C_3   0.540939 0.956127 0.557776 -0.167151
C44   C     C_3   0.459316 0.044086 0.442258 -0.171696
H11   H     H_    0.574113 0.915432 0.604565 0.136887
H12   H     H_    0.426363 0.086487 0.396118 0.138843
H13   H     H_    0.504760 0.072867 0.737650 0.129837
H14   H     H_    0.495397 0.927276 0.262337 0.126848
C45   C     C_3   0.499737 0.877630 0.497702 0.036549
C46   C     C_3   0.500505 0.122478 0.502290 0.032556
C47   C     C_3   0.461334 0.956953 0.570672 -0.178498
C48   C     C_3   0.538893 0.043215 0.429274 -0.184927
H15   H     H_    0.429746 0.916902 0.627629 0.129122
H16   H     H_    0.570450 0.083015 0.372017 0.129477
C49   C     C_3   0.513320 0.389419 0.050225 -0.155831
C50   C     C_3   0.486719 0.610709 0.949796 -0.145179
C51   C     C_3   0.542954 0.474944 0.950438 -0.121310
C52   C     C_3   0.457048 0.525102 0.049491 -0.117553
H17   H     H_    0.579023 0.457399 0.903714 0.136654
H18   H     H_    0.420924 0.543605 0.095499 0.122147
H19   H     H_    0.523058 0.296063 0.097138 0.134553
H20   H     H_    0.476380 0.703762 0.902998 0.128368
N3    N     N_3   0.499960 0.500030 0.863290 -0.077701
N4    N     N_3   0.500040 0.499970 0.136710 -0.079374
C53   C     C_3   0.471096 0.416607 0.954954 0.217855
C54   C     C_3   0.528966 0.583413 0.045168 0.199697
N5    N     N_3   0.355486 0.353596 0.700547 -0.415486
H21   H     H_    0.346011 0.383617 0.798912 0.196265
H22   H     H_    0.344626 0.258409 0.691204 0.186003
N6    N     N_3   0.638928 0.673419 0.679800 -0.442267
H23   H     H_    0.646442 0.651569 0.782276 0.182139
H24   H     H_    0.649220 0.768197 0.661108 0.181108
N7    N     N_3   0.438277 0.321777 0.899721 -0.429393
H25   H     H_    0.419735 0.280014 0.982494 0.150437
H26   H     H_    0.459450 0.249958 0.856757 0.186067
N8    N     N_3   0.562264 0.676937 0.101005 -0.441462
H27   H     H_    0.581136 0.718070 0.018466 0.154791
H28   H     H_    0.541402 0.749501 0.143749 0.187114
C55   C     C_3   0.653885 0.326700 0.329535 -0.395594
C56   C     C_3   0.646928 0.364769 0.178439 -0.314378
C57   C     C_3   0.635232 0.248034 0.092479 -0.910863
H29   H     H_    0.666035 0.180035 0.094428 0.268880
H30   H     H_    0.602298 0.199083 0.132694 0.254677
H31   H     H_    0.628872 0.277777 0.984638 0.250538
H32   H     H_    0.616929 0.434449 0.169313 0.255572
H33   H     H_    0.679874 0.411197 0.135534 0.223150
H34   H     H_    0.676445 0.239446 0.339243 0.200586
H35   H     H_    0.618475 0.295818 0.373041 0.186542
C58   C     C_3   0.347801 0.676783 0.311914 -0.452451
C59   C     C_3   0.336976 0.809476 0.369754 -0.315957
C60   C     C_3   0.352398 0.914704 0.269120 -0.902664
H36   H     H_    0.391699 0.907334 0.245692 0.257151
H37   H     H_    0.331625 0.907109 0.172493 0.265387
H38   H     H_    0.345065 0.009426 0.314580 0.256580
H39   H     H_    0.297758 0.820426 0.392429 0.255375
H40   H     H_    0.356996 0.821436 0.467252 0.216076
H41   H     H_    0.387431 0.670553 0.302254 0.226123
H42   H     H_    0.334555 0.669486 0.205348 0.207340
C61   C     C_3   0.761113 0.389576 0.311078 -0.421675
C62   C     C_3   0.781092 0.491119 0.210839 -0.365135
C63   C     C_3   0.810913 0.430648 0.096611 -0.845308
H43   H     H_    0.841915 0.376885 0.140398 0.264885
H44   H     H_    0.788048 0.364876 0.036140 0.271418
H45   H     H_    0.825227 0.506503 0.026880 0.255882
H46   H     H_    0.750721 0.545490 0.164290 0.226152
H47   H     H_    0.804484 0.559537 0.265726 0.248820
H48   H     H_    0.791523 0.339250 0.361350 0.226522
H49   H     H_    0.743043 0.315064 0.250646 0.215588
C64   C     C_3   0.244331 0.595587 0.276497 -0.392048
C65   C     C_3   0.252010 0.502493 0.157945 -0.382016
C66   C     C_3   0.225642 0.547131 0.029107 -0.843179
H50   H     H_    0.186188 0.555784 0.049779 0.266833
H51   H     H_    0.240098 0.641019 0.993680 0.267059
H52   H     H_    0.231169 0.476734 0.946291 0.246740
H53   H     H_    0.291146 0.492675 0.133400 0.218930
H54   H     H_    0.238031 0.406656 0.188779 0.244884
H55   H     H_    0.205029 0.596654 0.299906 0.209633
H56   H     H_    0.253339 0.694586 0.243822 0.215596

loop_
_geom_bond_atom_site_label_1
_geom_bond_atom_site_label_2
_geom_bond_distance
_ccdc_geom_bond_type
C61   H49   1.104184 S    
O5    Zn1   2.006573 S    
C62   C63   1.526642 S    
C13   C15   1.384227 A    
C55   C56   1.536907 S    
C41   C47   1.542932 S    
N1    C17   1.431156 S    
C8    O11   1.350386 S    
C63   H44   1.111014 S    
C2    C45   1.415542 S    
C56   H33   1.108195 S    
C42   C45   1.528766 S    
O5    C3    1.302721 A    
C51   C54   1.522462 S    
C66   H51   1.111069 S    
C20   C33   1.412697 A    
C19   C25   1.407137 A    
C50   N3    1.487373 S    
C59   H40   1.112090 S    
O1    C1    1.281908 A    
C32   C39   1.413453 A    
C46   C48   1.526384 S    
C55   H34   1.110732 S    
C6    N2    1.367879 A    
N1    C7    1.368775 A    
C52   H18   1.109883 S    
C11   C58   1.529885 S    
C48   H16   1.110128 S    
C56   C57   1.526370 S    
C42   H14   1.109931 S    
C58   C59   1.535713 S    
C50   C54   1.522857 S    
C59   C60   1.525882 S    
C14   C28   1.408972 A    
O4    Zn1   1.981206 S    
C43   H11   1.110055 S    
Zn2   N4    2.026368 S    
C65   H54   1.112157 S    
C5    N1    1.367490 A    
C25   C38   1.397621 A    
C21   C23   1.397248 A    
C14   C16   1.382761 A    
C31   C33   1.418195 A    
N6    H24   1.045637 S    
C32   C34   1.418098 A    
C57   H29   1.110827 S    
C43   C45   1.526599 S    
C41   H13   1.109896 S    
C52   C53   1.521921 S    
N3    C53   1.472751 S    
C54   N8    1.455149 S    
C29   C35   1.412580 A    
C64   H55   1.107884 S    
C40   H10   1.078284 S    
N5    H22   1.045689 S    
C15   H1    1.083966 S    
C44   C47   1.543308 S    
C57   H30   1.110339 S    
C16   H2    1.083967 S    
C43   C48   1.543763 S    
O2    C2    1.282051 A    
C52   N4    1.487663 S    
C12   C55   1.525456 S    
C5    C21   1.399024 A    
C49   C51   1.545039 S    
C29   C32   1.413563 A    
C56   H32   1.108666 S    
C35   C37   1.388451 A    
C42   C48   1.542993 S    
C51   N3    1.487233 S    
C66   H52   1.110807 S    
C36   C38   1.388356 A    
C58   H41   1.100067 S    
C59   H39   1.110566 S    
C4    C28   1.465118 S    
C55   H35   1.109653 S    
C64   C65   1.536275 S    
O4    C2    1.283900 A    
C60   H38   1.110235 S    
C11   C27   1.428023 A    
C29   C33   1.417755 A    
C19   C34   1.413111 A    
C9    C17   1.413072 A    
C30   C36   1.412618 A    
O7    Zn2   2.001725 S    
C10   C18   1.418441 A    
C65   H53   1.110837 S    
C45   C47   1.526813 S    
C13   C27   1.411341 A    
N4    C54   1.473079 S    
N7    H25   1.044964 S    
C7    C25   1.397436 A    
C62   H47   1.108829 S    
O6    C4    1.300651 A    
C26   C37   1.397427 A    
C8    C26   1.397006 A    
N6    H23   1.045883 S    
C47   H15   1.110312 S    
C31   C40   1.413761 A    
N5    H21   1.045945 S    
C23   C39   1.388560 A    
N8    H28   1.044153 S    
O7    C3    1.299676 A    
C49   H19   1.109234 S    
O3    Zn2   1.981208 S    
O8    C4    1.297854 A    
C24   C40   1.388805 A    
C49   N4    1.486459 S    
C6    O10   1.349914 S    
C64   H56   1.108545 S    
C51   H17   1.109558 S    
N2    C8    1.367881 A    
C50   C52   1.545514 S    
C44   C46   1.525569 S    
C61   C62   1.535940 S    
C57   H31   1.109627 S    
C38   H6    1.083501 S    
C13   N5    1.433149 S    
O1    Zn1   1.990304 S    
C23   H3    1.083561 S    
C63   H43   1.110899 S    
C12   C28   1.423959 A    
N2    C18   1.431399 S    
C61   H48   1.106911 S    
C5    O9    1.349944 S    
C30   C31   1.414247 A    
O6    Zn2   2.006578 S    
C58   H42   1.108516 S    
Zn1   N3    2.026367 S    
C10   C12   1.424541 A    
C65   C66   1.526567 S    
O3    C1    1.283662 A    
O8    Zn1   2.001728 S    
C66   H50   1.110981 S    
C9    C64   1.525708 S    
C14   N6    1.435133 S    
C1    C46   1.414880 S    
C60   H37   1.110827 S    
C63   H45   1.110540 S    
C7    O12   1.350266 S    
C15   C17   1.389697 A    
C60   H36   1.110841 S    
C6    C22   1.398998 A    
C16   C18   1.389837 A    
C35   H7    1.078828 S    
C10   C61   1.529044 S    
C36   H8    1.078676 S    
C62   H46   1.111432 S    
C50   H20   1.110231 S    
C37   H5    1.083481 S    
C22   C24   1.397132 A    
C19   C21   1.407739 A    
C3    C27   1.470175 S    
C20   C22   1.407352 A    
C9    C11   1.420918 A    
N8    H27   1.044994 S    
O2    Zn2   1.990302 S    
C24   H4    1.083498 S    
C41   C43   1.542896 S    
C49   C53   1.521563 S    
C30   C34   1.418312 A    
C42   C44   1.542815 S    
C20   C26   1.407169 A    
C44   H12   1.109376 S    
C41   C46   1.528251 S    
C53   N7    1.453883 S    
N7    H26   1.044099 S    
C39   H9    1.078506 S    
