data_mof_unit_39581.cif
_audit_creation_date              2012-12-10T17:03:57-0500
_audit_creation_method            fapswitch 2.2
_symmetry_space_group_name_H-M    P1
_symmetry_Int_Tables_number       1
_space_group_crystal_system       triclinic
_cell_length_a                    9.886426
_cell_length_b                    11.042106
_cell_length_c                    15.796708
_cell_angle_alpha                 95.824149
_cell_angle_beta                  78.629807
_cell_angle_gamma                 111.50618
_cell_volume                      1572.1222738

loop_
_atom_site_label
_atom_site_type_symbol
_atom_type_description
_atom_site_fract_x
_atom_site_fract_y
_atom_site_fract_z
_atom_type_partial_charge
C1    C     C_R   0.556204 0.745371 0.506399 0.857808
C2    C     C_R   0.443629 0.254603 0.493851 0.842324
C3    C     C_R   0.326699 0.467694 0.079941 -0.321447
C4    C     C_R   0.672865 0.530928 0.919987 -0.322934
C5    C     C_R   0.218581 0.434023 0.027490 0.479127
C6    C     C_R   0.781015 0.564563 0.972404 0.479181
C7    C     C_2   0.587462 0.885011 0.510196 -0.336220
C8    C     C_2   0.411889 0.114896 0.490693 -0.330582
C9    C     C_2   0.484137 0.930290 0.499430 -0.127865
C10   C     C_2   0.514239 0.069432 0.502904 -0.130400
C11   C     C_2   0.916197 0.476038 0.502401 0.526950
C12   C     C_2   0.069769 0.496368 0.516322 0.632504
C13   C     C_R   0.409779 0.482246 0.662742 0.826239
C14   C     C_R   0.590185 0.517627 0.337248 0.812106
C15   C     C_R   0.352581 0.462935 0.756302 -0.184709
C16   C     C_R   0.647268 0.536574 0.243652 -0.184090
C17   C     C_R   0.154413 0.398069 0.881211 0.471577
C18   C     C_R   0.845328 0.600824 0.118646 0.473899
C19   C     C_R   0.201035 0.403783 0.790641 0.261167
C20   C     C_R   0.798806 0.595412 0.209228 0.253700
C21   C     C_R   0.455201 0.502756 0.812040 -0.266914
C22   C     C_R   0.544559 0.496613 0.187964 -0.261182
C23   C     C_R   0.413971 0.480205 0.900879 -0.036275
C24   C     C_R   0.585702 0.518775 0.099073 -0.036208
C25   C     C_R   0.261100 0.436520 0.936801 -0.006859
C26   C     C_R   0.738567 0.562303 0.063101 -0.007583
C27   C     C_R   0.522020 0.503520 0.954667 0.070152
C28   C     C_R   0.477598 0.495294 0.045287 0.067672
Cu1   Cu    Cu3+1 0.362980 0.479380 0.485080 1.021455
Cu2   Cu    Cu3+1 0.637020 0.520620 0.514920 0.982654
H1    H     H_    0.431394 0.444802 0.215572 0.183083
H2    H     H_    0.568378 0.554779 0.784534 0.187269
H3    H     H_    0.621654 0.135103 0.515489 0.219568
H4    H     H_    0.376164 0.864468 0.487734 0.205165
H5    H     H_    0.304531 0.048855 0.478282 0.166670
H6    H     H_    0.695276 0.951145 0.521817 0.165230
N1    N     N_2   0.842890 0.551600 0.537350 -0.094310
N2    N     N_2   0.157110 0.448400 0.462650 -0.048660
O1    O     O_R   0.426810 0.668300 0.492040 -0.543762
O2    O     O_R   0.573190 0.331700 0.507960 -0.568193
O3    O     O_R   0.658240 0.703130 0.517240 -0.592929
O4    O     O_R   0.341760 0.296870 0.482760 -0.587566
O5    O     O_R   0.319390 0.472820 0.610170 -0.520688
O6    O     O_R   0.680610 0.527180 0.389830 -0.586326
O7    O     O_R   0.550820 0.507640 0.635370 -0.590894
O8    O     O_R   0.449180 0.492360 0.364630 -0.594096
O9    O     O_3   0.071293 0.401982 0.064461 -0.632600
H7    H     H_    0.060317 0.404253 0.128303 0.327578
O10   O     O_3   0.928263 0.596385 0.935396 -0.632879
H8    H     H_    0.939179 0.593923 0.871550 0.321633
O11   O     O_3   0.903359 0.649757 0.261837 -0.726835
H9    H     H_    0.863317 0.700166 0.308932 0.345845
O12   O     O_3   0.096574 0.349351 0.737979 -0.734899
H10   H     H_    0.136941 0.299406 0.690701 0.340463
O13   O     O_3   0.005820 0.348248 0.916450 -0.631413
H11   H     H_    0.944614 0.336121 0.871487 0.364579
O14   O     O_3   0.993909 0.650394 0.083341 -0.630425
H12   H     H_    0.055155 0.662629 0.128297 0.367408
H13   H     H_    0.288960 0.473737 0.148435 0.151759
H14   H     H_    0.710490 0.524701 0.851488 0.143437
O15   O     O_3   0.119437 0.561807 0.589690 -0.690372
H15   H     H_    0.032795 0.549547 0.636353 0.332831
O16   O     O_3   0.850099 0.366665 0.454392 -0.716022
H16   H     H_    0.808159 0.394326 0.411429 0.368536
O17   O     O_3   0.113491 0.390085 0.388832 -0.634106
H17   H     H_    0.191604 0.356698 0.359842 0.362510
O18   O     O_3   0.919495 0.665704 0.572986 -0.676643
H18   H     H_    0.846317 0.707195 0.596894 0.374810

loop_
_geom_bond_atom_site_label_1
_geom_bond_atom_site_label_2
_ccdc_geom_bond_type
Cu1   N2    S    
C15   C19   A    
C11   C12   S    
Cu2   O3    S    
Cu1   Cu2   S    
C14   C16   S    
C23   C27   A    
Cu1   O4    S    
C20   O11   S    
C24   C28   A    
C7    H6    S    
C17   O13   S    
C18   O14   S    
C11   O16   S    
O9    H7    S    
C18   C26   A    
N2    O17   S    
C15   C21   A    
Cu1   O8    S    
C16   C20   A    
C17   C25   A    
C7    C9    D    
C4    H14   S    
O13   H11   S    
C23   C25   A    
Cu2   O2    S    
C14   O8    A    
O12   H10   S    
Cu1   O5    S    
C13   O7    A    
C12   O15   S    
C5    O9    S    
Cu2   O6    S    
C19   O12   S    
O14   H12   S    
C6    C26   A    
C2    O4    A    
C5    C25   A    
N1    O18   S    
C9    C10   S    
C14   O6    A    
C3    C28   A    
C17   C19   A    
C24   C26   A    
O17   H17   S    
C10   H3    S    
C18   C20   A    
C13   C15   S    
C21   C23   A    
C12   N2    D    
C9    H4    S    
C21   H2    S    
C22   C24   A    
C4    C6    A    
O15   H15   S    
C1    O1    A    
O11   H9    S    
C2    O2    A    
C13   O5    A    
C4    C27   A    
C8    C10   D    
O10   H8    S    
C22   H1    S    
C1    O3    A    
Cu1   O1    S    
C11   N1    D    
C16   C22   A    
Cu2   O7    S    
C3    C5    A    
C1    C7    S    
C2    C8    S    
C6    O10   S    
O18   H18   S    
Cu2   N1    S    
O16   H16   S    
C27   C28   A    
C8    H5    S    
C3    H13   S    
