data_mof_unit_46905.cif
_audit_creation_date              2012-12-11T15:55:42-0500
_audit_creation_method            fapswitch 2.2
_symmetry_space_group_name_H-M    P1
_symmetry_Int_Tables_number       1
_space_group_crystal_system       triclinic
_cell_length_a                    11.212647
_cell_length_b                    11.08832
_cell_length_c                    18.560416
_cell_angle_alpha                 90.827742
_cell_angle_beta                  89.587501
_cell_angle_gamma                 58.573834
_cell_volume                      1968.61044996

loop_
_atom_site_label
_atom_site_type_symbol
_atom_type_description
_atom_site_fract_x
_atom_site_fract_y
_atom_site_fract_z
_atom_type_partial_charge
C1    C     C_R   0.382183 0.720210 0.388375 0.556129
C2    C     C_R   0.592155 0.130658 0.191565 0.051031
C3    C     C_R   0.325797 0.308935 0.176291 -0.003190
C4    C     C_R   0.420346 0.199909 0.289069 -0.176355
C5    C     C_R   0.440807 0.205235 0.215809 -0.049652
C6    C     C_R   0.095669 0.651169 0.362363 -0.046375
C7    C     C_R   0.045388 0.698406 0.433768 -0.019660
C8    C     C_R   0.655851 0.022546 0.137605 -0.063006
C9    C     C_R   0.798376 0.954934 0.122078 -0.118188
C10   C     C_R   0.200905 0.413067 0.214439 -0.145631
C11   C     C_R   0.194726 0.424613 0.290602 -0.014818
C12   C     C_R   0.375866 0.348277 0.393289 0.541539
C13   C     C_R   0.947845 0.670793 0.461604 -0.095677
C14   C     C_R   0.861459 0.671729 0.409094 0.265716
C15   C     C_R   0.934267 0.583861 0.346121 -0.086695
C16   C     C_R   0.071252 0.554156 0.329898 -0.030318
C17   C     C_R   0.320329 0.320685 0.326663 -0.004557
C18   C     C_R   0.929089 0.313573 0.191478 0.021731
C19   C     C_R   0.025768 0.261628 0.246924 -0.017897
C20   C     C_R   0.981627 0.275943 0.318194 -0.009001
C21   C     C_R   0.741879 0.402530 0.278990 -0.168833
C22   C     C_R   0.786159 0.391760 0.208024 -0.140837
C23   C     C_R   0.784044 0.373360 0.405674 0.531643
C24   C     C_3   0.145508 0.115584 0.256945 -0.279781
C25   C     C_3   0.098877 0.130987 0.335260 -0.267501
C26   C     C_R   0.839323 0.338874 0.333823 0.015455
C27   C     C_R   0.369930 0.782453 0.158501 0.021206
C28   C     C_R   0.490079 0.747030 0.195600 -0.011303
C29   C     C_R   0.496252 0.723781 0.270119 -0.025496
C30   C     C_R   0.264892 0.770467 0.268612 -0.182331
C31   C     C_R   0.275988 0.754882 0.194165 -0.150537
C32   C     C_3   0.561934 0.825090 0.199813 -0.279553
C33   C     C_3   0.568165 0.801502 0.278823 -0.179364
C34   C     C_R   0.372908 0.702433 0.609919 0.567744
C35   C     C_R   0.378962 0.747612 0.309676 0.002806
C36   C     C_R   0.278043 0.279891 0.804127 0.025352
C37   C     C_R   0.342575 0.166552 0.754856 0.006583
C38   C     C_R   0.361296 0.188283 0.683608 0.030627
C39   C     C_R   0.233049 0.440034 0.706732 -0.175355
C40   C     C_R   0.219840 0.417805 0.779052 -0.156873
C41   C     C_3   0.484223 0.035598 0.757402 -0.278327
C42   C     C_3   0.503960 0.057964 0.679101 -0.270100
C43   C     C_R   0.313091 0.324847 0.659515 0.023188
C44   C     C_R   0.849699 0.320263 0.828915 0.017075
C45   C     C_R   0.368165 0.349529 0.594604 0.548022
C46   C     C_R   0.899404 0.387908 0.785755 0.037341
C47   C     C_R   0.893420 0.387707 0.712428 0.017658
C48   C     C_R   0.791292 0.242489 0.719806 -0.163406
C49   C     C_R   0.803203 0.239114 0.795013 -0.179986
C50   C     C_3   0.873502 0.534312 0.790245 -0.260164
C51   C     C_3   0.876442 0.531246 0.708718 -0.276284
C52   C     C_R   0.826354 0.326966 0.678734 0.017469
C53   C     C_R   0.319537 0.799647 0.834435 0.022447
C54   C     C_R   0.216298 0.793312 0.795609 0.026762
C55   C     C_R   0.236175 0.755010 0.723772 0.008471
C56   C     C_R   0.764673 0.374999 0.609199 0.534863
C57   C     C_R   0.475420 0.691120 0.731150 -0.167398
C58   C     C_R   0.454535 0.732989 0.804358 -0.168646
C59   C     C_3   0.067049 0.905328 0.784817 -0.263250
C60   C     C_3   0.088671 0.862880 0.705847 -0.267405
C61   C     C_R   0.361319 0.717636 0.688444 0.010446
C62   C     C_R   0.974062 0.289492 0.117543 0.555971
C63   C     C_R   0.320306 0.287584 0.097940 0.557943
C64   C     C_R   0.312668 0.885259 0.099502 0.531277
C65   C     C_R   0.884884 0.309278 0.904363 0.548841
C66   C     C_R   0.271448 0.253816 0.879728 0.566684
C67   C     C_R   0.881882 0.986332 0.163013 -0.078407
C68   C     C_R   0.278536 0.888431 0.899578 0.533312
C69   C     C_R   0.824763 0.082385 0.220202 -0.062612
C70   C     C_R   0.681131 0.157138 0.233008 -0.045525
Cr1   Cr    Cr6+3 0.601740 0.606840 0.505840 1.045484
Cr2   Cr    Cr6+3 0.291500 0.601560 0.495070 0.959138
Cr3   Cr    Cr6+3 0.606780 0.291630 0.499130 1.060018
Cr4   Cr    Cr6+3 0.062440 0.063060 0.008240 0.995802
Cr5   Cr    Cr6+3 0.062950 0.375000 0.998920 0.998320
Cr6   Cr    Cr6+3 0.374550 0.061770 0.992470 0.985449
H1    H     H_    0.505449 0.116820 0.318413 0.222391
H2    H     H_    0.907684 0.708978 0.515808 0.090315
H3    H     H_    0.885148 0.547234 0.309961 0.115080
H4    H     H_    0.631187 0.455346 0.291216 0.117350
H5    H     H_    0.709441 0.436551 0.165870 0.148491
H6    H     H_    0.248010 0.106359 0.249367 0.147321
H7    H     H_    0.131817 0.038442 0.225404 0.150284
H8    H     H_    0.062462 0.058663 0.350468 0.153995
H9    H     H_    0.173870 0.133617 0.373147 0.161227
H10   H     H_    0.161755 0.815897 0.291980 0.126795
H11   H     H_    0.844757 0.875010 0.079541 0.094511
H12   H     H_    0.191141 0.757356 0.166135 0.132736
H13   H     H_    0.489759 0.937908 0.188042 0.150540
H14   H     H_    0.665801 0.768249 0.172045 0.147663
H15   H     H_    0.674482 0.727201 0.296489 0.198468
H16   H     H_    0.501542 0.902552 0.308878 0.205774
H17   H     H_    0.192394 0.546998 0.689561 0.135155
H18   H     H_    0.172200 0.508157 0.815834 0.133339
H19   H     H_    0.478628 0.940492 0.765390 0.147046
H20   H     H_    0.556837 0.046300 0.793685 0.152214
H21   H     H_    0.589606 0.079192 0.671094 0.147037
H22   H     H_    0.075743 0.756811 0.467744 0.183136
H23   H     H_    0.507982 0.975900 0.642252 0.157499
H24   H     H_    0.743538 0.189237 0.695013 0.138242
H25   H     H_    0.773443 0.176841 0.826237 0.129014
H26   H     H_    0.959022 0.540230 0.815262 0.151541
H27   H     H_    0.769279 0.611271 0.813646 0.126384
H28   H     H_    0.778618 0.616791 0.685793 0.149306
H29   H     H_    0.970249 0.525255 0.685045 0.141207
H30   H     H_    0.576630 0.649362 0.706729 0.135821
H31   H     H_    0.538769 0.727396 0.834918 0.116335
H32   H     H_    0.050034 0.011989 0.794989 0.161229
H33   H     H_    0.990787 0.935292 0.151028 0.136285
H34   H     H_    0.993346 0.882543 0.813004 0.135664
H35   H     H_    0.028386 0.814074 0.688275 0.125251
H36   H     H_    0.080084 0.947190 0.670534 0.166361
H37   H     H_    0.891960 0.098703 0.254694 0.123676
H38   H     H_    0.639437 0.231882 0.277838 0.134320
H39   H     H_    0.184602 0.647147 0.341781 0.162156
H40   H     H_    0.601633 0.982367 0.108086 0.150554
H41   H     H_    0.110130 0.489028 0.184918 0.139968
O1    O     O_R   0.748670 0.497520 0.427970 -0.524304
O2    O     O_R   0.300170 0.471020 0.567120 -0.532012
O3    O     O_R   0.491630 0.259030 0.574940 -0.520482
O4    O     O_R   0.718640 0.304340 0.577850 -0.510044
O5    O     O_3   0.500010 0.500010 0.500020 -0.298030
O6    O     O_R   0.186620 0.923750 0.087000 -0.551130
O7    O     O_R   0.957350 0.194160 0.084660 -0.489959
O8    O     O_R   0.935120 0.407280 0.085350 -0.523688
O9    O     O_R   0.203800 0.365060 0.067090 -0.513478
O10   O     O_R   0.417470 0.174910 0.067830 -0.526678
O11   O     O_R   0.375160 0.946380 0.070880 -0.517632
O12   O     O_R   0.476470 0.723930 0.429450 -0.425650
O13   O     O_R   0.160500 0.919670 0.926690 -0.515475
O14   O     O_R   0.933140 0.190380 0.936050 -0.497814
O15   O     O_R   0.909010 0.403210 0.925030 -0.525880
O16   O     O_R   0.179590 0.361290 0.918480 -0.508112
O17   O     O_R   0.391360 0.170840 0.907510 -0.510814
O18   O     O_R   0.350950 0.942600 0.922260 -0.519852
O19   O     O_3   0.166650 0.166610 0.999880 -0.286424
O20   O     O_R   0.264730 0.744140 0.416740 -0.570133
O21   O     O_R   0.309440 0.472410 0.418220 -0.540517
O22   O     O_R   0.501630 0.260530 0.414310 -0.463129
O23   O     O_R   0.727920 0.305730 0.428950 -0.478009
O24   O     O_R   0.738670 0.496020 0.588600 -0.540896
O25   O     O_R   0.467190 0.722540 0.578350 -0.489914
O26   O     O_R   0.254720 0.742640 0.577370 -0.530281
S1    S     S_3+6 0.730634 0.854818 0.402329 -0.053636
O27   O     O_2   0.732546 0.902000 0.327153 -0.331381
O28   O     O_2   0.589772 0.880461 0.423294 -0.324767
O29   O     O_3   0.761642 0.957228 0.457788 -0.518090
H42   H     H_    0.712319 0.964881 0.503715 0.337280

loop_
_geom_bond_atom_site_label_1
_geom_bond_atom_site_label_2
_ccdc_geom_bond_type
C44   C49   A    
Cr2   O26   S    
Cr4   O7    S    
C21   C26   A    
C7    H22   S    
C41   C42   S    
C54   C55   A    
Cr1   O5    S    
C19   C20   A    
C23   O1    A    
C62   O7    A    
Cr6   O19   S    
C53   C54   A    
C70   H38   S    
C69   H37   S    
C30   C35   A    
C21   C22   A    
C36   C37   A    
C24   H7    S    
C38   C42   S    
C1    O12   A    
C33   H15   S    
C49   H25   S    
C30   C31   A    
C36   C66   S    
C41   H20   S    
C20   C25   S    
C15   C16   A    
C29   C33   S    
C59   H34   S    
C21   H4    S    
C18   C19   A    
C23   C26   S    
C4    H1    S    
C53   C68   S    
C24   H6    S    
C39   H17   S    
C7    C13   A    
C66   O17   A    
C67   H33   S    
C15   H3    S    
O29   H42   S    
C8    C9    A    
C64   O11   A    
Cr4   O19   S    
C12   C17   S    
C25   H8    S    
C50   H27   S    
C30   H10   S    
Cr1   O24   S    
C45   O2    A    
Cr2   O21   S    
C57   H30   S    
C59   C60   S    
Cr3   O3    S    
C55   C60   S    
C44   C65   S    
S1    O29   S    
C32   H14   S    
C65   O14   A    
Cr6   O18   S    
C44   C46   A    
C54   C59   S    
C48   H24   S    
C14   S1    S    
C34   O26   A    
C27   C31   A    
C22   H5    S    
C23   O23   A    
C36   C40   A    
C24   C25   S    
S1    O28   D    
C10   C11   A    
C42   H21   S    
C39   C40   A    
Cr6   O17   S    
Cr5   O19   S    
S1    O27   D    
C39   C43   A    
Cr3   O22   S    
C51   H28   S    
C34   C61   S    
Cr5   O8    S    
C9    C67   A    
C37   C38   A    
C60   H36   S    
Cr1   O12   S    
C66   O16   A    
C34   O25   A    
C11   C16   S    
C32   H13   S    
C28   C32   S    
C51   H29   S    
C25   H9    S    
C50   C51   S    
C12   O22   A    
C68   O13   A    
C43   C45   S    
C47   C52   A    
Cr1   O25   S    
C4    C17   A    
C45   O3    A    
Cr2   O20   S    
C50   H26   S    
Cr3   O4    S    
Cr4   O13   S    
Cr6   O11   S    
C12   O21   A    
C33   H16   S    
C2    C5    S    
C56   O24   A    
C58   H31   S    
C65   O15   A    
C1    O20   A    
Cr5   O15   S    
C1    C35   S    
Cr4   O14   S    
C46   C50   S    
C46   C47   A    
C28   C29   A    
C31   H12   S    
Cr1   O1    S    
Cr2   O5    S    
C18   C22   A    
C68   O18   A    
C2    C8    A    
C40   H18   S    
C4    C5    A    
C3    C5    A    
C11   C17   A    
C62   O8    A    
C47   C51   S    
C53   C58   A    
Cr5   O16   S    
C57   C61   A    
C6    C7    A    
Cr3   O23   S    
C3    C63   S    
C64   O6    A    
C29   C35   A    
C8    H40   S    
C59   H32   S    
C10   H41   S    
Cr5   O9    S    
C32   C33   S    
C19   C24   S    
C38   C43   A    
C60   H35   S    
C2    C70   A    
C42   H23   S    
C56   O4    A    
C57   C58   A    
C41   H19   S    
C20   C26   A    
C48   C49   A    
C55   C61   A    
Cr2   O2    S    
Cr4   O6    S    
C37   C41   S    
C69   C70   A    
C63   O10   A    
C6    H39   S    
C63   O9    A    
C27   C64   S    
C13   H2    S    
C6    C16   A    
C48   C52   A    
Cr3   O5    S    
C27   C28   A    
C3    C10   A    
Cr6   O10   S    
C14   C15   A    
C18   C62   S    
C67   C69   A    
C13   C14   A    
C9    H11   S    
C52   C56   S    
