data_mof_unit_62086.cif
_audit_creation_date              2012-12-10T21:34:07-0500
_audit_creation_method            fapswitch 2.2
_symmetry_space_group_name_H-M    P1
_symmetry_Int_Tables_number       1
_space_group_crystal_system       triclinic
_cell_length_a                    13.625377
_cell_length_b                    16.105134
_cell_length_c                    16.907399
_cell_angle_alpha                 87.903551
_cell_angle_beta                  90.426648
_cell_angle_gamma                 94.735544
_cell_volume                      3694.95825669

loop_
_atom_site_label
_atom_site_type_symbol
_atom_type_description
_atom_site_fract_x
_atom_site_fract_y
_atom_site_fract_z
_atom_type_partial_charge
C1    C     C_R   0.497717 0.510733 0.347175 0.900886
C2    C     C_R   0.498338 0.488829 0.652778 0.902495
C3    C     C_R   0.467729 0.596531 0.140118 0.392293
C4    C     C_R   0.476301 0.397037 0.859360 0.392163
C5    C     C_R   0.483105 0.593120 0.221521 -0.257669
C6    C     C_R   0.492345 0.404128 0.778213 -0.260765
C7    C     C_R   0.456944 0.232201 0.541644 -0.002641
C8    C     C_R   0.543091 0.767822 0.458402 -0.001635
C9    C     C_R   0.459317 0.145312 0.539181 -0.253044
C10   C     C_R   0.540677 0.854705 0.460874 -0.253234
C11   C     C_R   0.518935 0.110861 0.482955 0.327875
C12   C     C_R   0.480980 0.889129 0.517062 0.328303
C13   C     C_R   0.574355 0.165924 0.431083 -0.285153
C14   C     C_R   0.425519 0.834040 0.568888 -0.284481
C15   C     C_R   0.569794 0.252338 0.435612 0.008768
C16   C     C_R   0.430119 0.747630 0.564348 0.012202
C17   C     C_R   0.685159 0.515024 0.500646 0.906098
C18   C     C_R   0.314840 0.484976 0.499357 0.901061
C19   C     C_1   0.211559 0.473290 0.498879 -0.169912
C20   C     C_1   0.788446 0.526708 0.501134 -0.171296
C21   C     C_2   0.020306 0.464068 0.498512 -0.151976
C22   C     C_2   0.979702 0.535928 0.501521 -0.151648
C23   C     C_1   0.875929 0.533927 0.501436 0.021756
C24   C     C_1   0.124078 0.466069 0.498588 0.021034
C25   C     C_R   0.485435 0.515749 0.261884 -0.102713
C26   C     C_R   0.484787 0.480869 0.737793 -0.101647
C27   C     C_R   0.470411 0.441857 0.220882 -0.221386
C28   C     C_R   0.458113 0.549750 0.778296 -0.220651
C29   C     C_R   0.454537 0.444940 0.140287 -0.200217
C30   C     C_R   0.441538 0.542838 0.858685 -0.199684
C31   C     C_R   0.454592 0.522503 0.098862 0.248907
C32   C     C_R   0.452878 0.466803 0.900304 0.249185
H1    H     H_    0.023611 0.595312 0.504007 0.164416
H2    H     H_    0.976398 0.404683 0.496024 0.164462
H3    H     H_    0.449560 0.609164 0.747961 0.178608
H4    H     H_    0.470337 0.381298 0.250985 0.184337
H5    H     H_    0.421729 0.597555 0.888254 0.199467
H6    H     H_    0.443878 0.386424 0.110574 0.201579
H7    H     H_    0.493605 0.650678 0.252881 0.194744
H8    H     H_    0.511393 0.350077 0.747143 0.196262
H9    H     H_    0.588991 0.741591 0.415426 0.138162
H10   H     H_    0.411105 0.258456 0.584649 0.139822
H11   H     H_    0.585092 0.894040 0.419330 0.164213
H12   H     H_    0.414939 0.105994 0.580764 0.164747
H13   H     H_    0.620952 0.141925 0.387156 0.157764
H14   H     H_    0.378860 0.858015 0.612784 0.157062
H15   H     H_    0.612715 0.294277 0.395279 0.139126
H16   H     H_    0.387161 0.705669 0.604641 0.133101
N1    N     N_2   0.448873 0.528386 0.015612 -0.140078
N2    N     N_2   0.448638 0.460040 0.983520 -0.142093
N3    N     N_R   0.511670 0.283920 0.490320 -0.092194
N4    N     N_R   0.488330 0.716080 0.509680 -0.091171
N5    N     N_2   0.525705 0.022888 0.476140 -0.176929
N6    N     N_2   0.474191 0.977099 0.523886 -0.176786
O1    O     O_R   0.495820 0.577170 0.387320 -0.623362
O2    O     O_R   0.504180 0.422830 0.612680 -0.623767
O3    O     O_R   0.503320 0.438390 0.381110 -0.627213
O4    O     O_R   0.496680 0.561610 0.618890 -0.625194
O5    O     O_R   0.636060 0.579370 0.503570 -0.609068
O6    O     O_R   0.363940 0.420630 0.496430 -0.611323
O7    O     O_R   0.643560 0.440600 0.497360 -0.609409
O8    O     O_R   0.356440 0.559400 0.502640 -0.611143
Zn1   Zn    Zn3+2 0.495000 0.592660 0.504150 0.959535
Zn2   Zn    Zn3+2 0.505000 0.407340 0.495850 0.957877
Cl1   Cl    Cl    0.467950 0.694403 0.090301 -0.578637
Cl2   Cl    Cl    0.489824 0.300909 0.909427 -0.580191

loop_
_geom_bond_atom_site_label_1
_geom_bond_atom_site_label_2
_ccdc_geom_bond_type
C29   H6    S    
O7    Zn2   S    
C13   H13   S    
O2    Zn2   S    
O8    Zn1   S    
C14   C16   A    
C15   N3    A    
C27   H4    S    
C25   C27   A    
C9    C11   A    
C8    N4    A    
O5    Zn1   S    
C11   N5    S    
C20   C23   T    
C15   H15   S    
C3    C31   A    
C16   H16   S    
C28   C30   A    
C19   C24   T    
C1    O1    A    
C7    N3    A    
C29   C31   A    
C6    C26   A    
C21   C22   D    
C1    C25   S    
C11   C13   A    
C32   N2    S    
C3    Cl1   S    
O1    Zn1   S    
C10   C12   A    
C31   N1    S    
C5    C25   A    
C18   O6    A    
C17   O5    A    
O6    Zn2   S    
C18   C19   S    
C1    O3    A    
C13   C15   A    
C2    O4    A    
C6    H8    S    
C21   C24   S    
C4    C6    A    
C27   C29   A    
C4    C32   A    
C30   C32   A    
C3    C5    A    
C17   C20   S    
C8    H9    S    
C4    Cl2   S    
O3    Zn2   S    
C2    C26   S    
N1    N2    D    
C7    H10   S    
O4    Zn1   S    
C7    C9    A    
C5    H7    S    
C22   C23   S    
C18   O8    A    
C9    H12   S    
C2    O2    A    
C21   H2    S    
C17   O7    A    
C10   H11   S    
N5    N6    D    
C28   H3    S    
C26   C28   A    
C8    C10   A    
C12   N6    S    
N3    Zn2   S    
C16   N4    A    
C30   H5    S    
C12   C14   A    
C14   H14   S    
N4    Zn1   S    
C22   H1    S    
