data_mof_unit_25596.cif
_audit_creation_date              2013-03-05T16:36:12-0500
_audit_creation_method            fapswitch 2.2
_symmetry_space_group_name_H-M    P1
_symmetry_Int_Tables_number       1
_space_group_crystal_system       triclinic
_cell_length_a                    27.845148
_cell_length_b                    9.086878
_cell_length_c                    7.782329
_cell_angle_alpha                 89.924411
_cell_angle_beta                  90.000271
_cell_angle_gamma                 89.996525
_cell_volume                      1969.12567937

loop_
_atom_site_label
_atom_site_type_symbol
_atom_site_description
_atom_site_fract_x
_atom_site_fract_y
_atom_site_fract_z
_atom_type_partial_charge
O1    O     O_R   0.500000 0.288390 0.642760 -0.567848
O2    O     O_R   0.500000 0.711610 0.357240 -0.567860
O3    O     O_R   0.500000 0.711610 0.642760 -0.582213
O4    O     O_R   0.500000 0.288390 0.357240 -0.582223
C1    C     C_R   0.500003 0.220022 0.500042 0.930584
C2    C     C_R   0.500006 0.779978 0.499957 0.930480
O5    O     O_R   0.430260 0.500000 0.642770 -0.568205
O6    O     O_R   0.569740 0.500000 0.357230 -0.568195
O7    O     O_R   0.569740 0.500000 0.642770 -0.568208
O8    O     O_R   0.430260 0.500000 0.357230 -0.568222
C3    C     C_R   0.407425 0.500005 0.500000 0.933440
C4    C     C_R   0.592574 0.499989 0.500001 0.933261
Cu1   Cu    Cu3+1 0.500000 0.500000 0.669080 1.116161
Cu2   Cu    Cu3+1 0.500000 0.500000 0.330920 1.116152
C5    C     C_R   0.177976 0.458223 0.354939 0.563012
C6    C     C_R   0.822025 0.542473 0.644972 0.563139
C7    C     C_R   0.177980 0.541485 0.645252 0.563080
C8    C     C_R   0.822028 0.457281 0.355280 0.563072
O9    O     O_2   0.202616 0.420587 0.212197 -0.491788
O10   O     O_2   0.797383 0.581241 0.787323 -0.492416
O11   O     O_2   0.202624 0.579160 0.787945 -0.491790
O12   O     O_2   0.797388 0.418541 0.212890 -0.492413
N1    N     N_R   0.202184 0.499880 0.500070 -0.451450
N2    N     N_R   0.797819 0.499905 0.500104 -0.451383
C9    C     C_R   0.279027 0.630732 0.528357 -0.120624
C10   C     C_R   0.720957 0.369014 0.472516 -0.120565
C11   C     C_R   0.279050 0.369140 0.471680 -0.120564
C12   C     C_R   0.720959 0.630870 0.527618 -0.120548
C13   C     C_R   0.329294 0.632828 0.527535 0.252994
C14   C     C_R   0.670691 0.366979 0.473241 0.252810
C15   C     C_R   0.329317 0.367110 0.472476 0.253011
C16   C     C_R   0.670693 0.632925 0.526819 0.252836
C17   C     C_R   0.253838 0.499919 0.500030 0.213010
C18   C     C_R   0.746162 0.499934 0.500075 0.212849
C19   C     C_R   0.101905 0.499788 0.500168 -0.039388
C20   C     C_R   0.898100 0.499804 0.500187 -0.039865
C21   C     C_R   0.127550 0.455743 0.353109 -0.032639
C22   C     C_R   0.872452 0.544698 0.646964 -0.032612
C23   C     C_R   0.127553 0.543868 0.647183 -0.032604
C24   C     C_R   0.872454 0.454957 0.353374 -0.032648
C25   C     C_R   0.102498 0.410425 0.207375 -0.149234
C26   C     C_R   0.897504 0.590721 0.792556 -0.148446
C27   C     C_R   0.102504 0.589117 0.792976 -0.149188
C28   C     C_R   0.897505 0.408906 0.207830 -0.148500
C29   C     C_R   0.354765 0.499983 0.500001 -0.257365
C30   C     C_R   0.645233 0.499962 0.500007 -0.257340
C31   C     C_R   0.974448 0.453146 0.350944 0.039969
C32   C     C_R   0.025556 0.546055 0.649577 0.040119
C33   C     C_R   0.974448 0.546372 0.649501 0.039981
C34   C     C_R   0.025555 0.453441 0.350859 0.040112
C35   C     C_R   0.949231 0.499768 0.500214 0.075505
C36   C     C_R   0.050772 0.499759 0.500204 0.075872
C37   C     C_R   0.947341 0.407504 0.206381 -0.219510
C38   C     C_R   0.052667 0.590646 0.794427 -0.220057
C39   C     C_R   0.947341 0.592062 0.794060 -0.219501
C40   C     C_R   0.052661 0.408827 0.206001 -0.220035
C41   C     C_1   0.500006 0.065369 0.500061 -0.023741
C42   C     C_1   0.500007 0.934630 0.499938 -0.023802
N3    N     N_1   0.500000 0.500000 0.076820 -0.026518
N4    N     N_1   0.500000 0.500000 0.923180 -0.026516
N5    N     N_R   0.353732 0.229237 0.448103 0.145736
O13   O     O_R   0.335192 0.129076 0.348800 -0.270905
O14   O     O_R   0.390366 0.194695 0.543591 -0.347625
N6    N     N_R   0.646287 0.770887 0.550589 0.145685
O15   O     O_R   0.664799 0.871257 0.649635 -0.270524
O16   O     O_R   0.609668 0.805192 0.454904 -0.347501
N7    N     N_R   0.353686 0.770733 0.551916 0.145784
O17   O     O_R   0.390344 0.805275 0.456538 -0.347589
O18   O     O_R   0.335105 0.870915 0.651087 -0.270966
N8    N     N_R   0.646288 0.229013 0.449473 0.145751
O19   O     O_R   0.609613 0.194823 0.544920 -0.347687
O20   O     O_R   0.664875 0.128483 0.350835 -0.270512
H1    H     H_    0.259251 0.267850 0.452622 0.195012
H2    H     H_    0.740764 0.732237 0.546103 0.195127
H3    H     H_    0.259209 0.731993 0.547432 0.195005
H4    H     H_    0.740763 0.267638 0.454079 0.195162
H5    H     H_    0.121373 0.375296 0.092828 0.196290
H6    H     H_    0.878630 0.626664 0.906871 0.196218
H7    H     H_    0.121382 0.624252 0.907503 0.196301
H8    H     H_    0.878630 0.373007 0.093502 0.196234
H9    H     H_    0.963259 0.369572 0.088573 0.147398
H10   H     H_    0.036750 0.627453 0.912589 0.147404
H11   H     H_    0.963257 0.630019 0.911895 0.147379
H12   H     H_    0.036742 0.371947 0.087884 0.147399

loop_
_geom_bond_atom_site_label_1
_geom_bond_atom_site_label_2
_geom_bond_distance
_ccdc_geom_bond_type
C15   N5    1.438153 S    
C19   C23   1.407395 A    
O3    C2    1.272478 A    
C12   H2    1.083364 S    
Cu1   N4    1.977489 S    
C11   C17   1.397982 A    
C32   C38   1.416344 A    
Cu2   N3    1.977489 S    
C7    N1    1.369242 A    
C8    N2    1.369611 A    
C19   C21   1.407510 A    
C22   C26   1.395186 A    
C32   C36   1.422173 A    
C25   H5    1.083303 S    
C27   H7    1.083244 S    
C37   H9    1.075468 S    
C7    C23   1.404380 A    
N5    O14   1.300258 A    
C8    C24   1.404358 A    
C5    C21   1.404380 A    
C20   C24   1.408083 A    
O7    Cu1   1.952683 S    
C13   N7    1.438173 S    
C28   C37   1.387814 A    
C10   C18   1.398075 A    
N1    C17   1.438327 S    
C34   C36   1.422088 A    
N8    O19   1.300225 A    
O5    C3    1.280153 A    
O3    Cu1   1.933484 S    
C6    O10   1.350265 S    
C31   C37   1.417286 A    
C5    N1    1.369117 A    
C12   C18   1.398072 A    
N3    N4    1.195678 T    
C6    N2    1.369736 A    
Cu1   Cu2   2.631673 S    
C21   C25   1.394190 A    
O2    C2    1.273332 A    
C12   C16   1.399810 A    
C14   N8    1.438183 S    
C40   H12   1.074527 S    
C31   C34   1.423074 A    
C9    C13   1.399837 A    
C11   C15   1.399807 A    
N7    O17   1.300328 A    
C28   H8    1.083989 S    
C16   N6    1.438116 S    
C4    C30   1.466298 S    
O8    Cu2   1.952686 S    
C31   C35   1.422410 A    
C33   C35   1.422496 A    
C33   C39   1.417379 A    
C34   C40   1.416374 A    
C13   C29   1.416582 A    
C9    H3    1.083306 S    
N6    O16   1.300280 A    
C5    O9    1.350073 S    
C25   C40   1.387814 A    
C26   C39   1.387825 A    
C27   C38   1.387831 A    
C10   H4    1.083336 S    
O5    Cu1   1.952684 S    
O6    C4    1.280153 A    
C20   C35   1.423773 A    
C32   C33   1.423102 A    
C26   H6    1.084012 S    
O1    C1    1.273334 A    
C3    C29   1.466334 S    
O1    Cu1   1.934023 S    
C39   H11   1.075722 S    
C38   H10   1.074571 S    
O6    Cu2   1.952681 S    
C8    O12   1.350428 S    
C16   C30   1.416574 A    
C14   C30   1.416572 A    
O4    C1    1.272478 A    
C23   C27   1.394315 A    
C10   C14   1.399802 A    
C1    C41   1.405305 S    
N6    O15   1.301380 A    
C20   C22   1.407984 A    
C41   C42   1.188011 T    
C2    C42   1.405304 S    
O4    Cu2   1.933485 S    
N5    O13   1.301540 A    
O2    Cu2   1.934022 S    
O7    C4    1.280144 A    
N2    C18   1.438405 S    
O8    C3    1.280157 A    
C24   C28   1.394930 A    
C15   C29   1.416554 A    
C9    C17   1.397967 A    
C19   C36   1.423800 A    
N8    O20   1.301308 A    
N7    O18   1.301479 A    
C11   H1    1.083285 S    
C6    C22   1.404388 A    
C7    O11   1.349921 S    
