data_mof_unit_31352.cif
_audit_creation_date              2012-12-11T15:37:07-0500
_audit_creation_method            fapswitch 2.2
_symmetry_space_group_name_H-M    P1
_symmetry_Int_Tables_number       1
_space_group_crystal_system       triclinic
_cell_length_a                    16.653695
_cell_length_b                    7.072779
_cell_length_c                    15.158595
_cell_angle_alpha                 89.972641
_cell_angle_beta                  94.960147
_cell_angle_gamma                 89.975463
_cell_volume                      1778.81218435

loop_
_atom_site_label
_atom_site_type_symbol
_atom_type_description
_atom_site_fract_x
_atom_site_fract_y
_atom_site_fract_z
_atom_type_partial_charge
O1    O     O_R   0.578230 0.505720 0.424270 -0.529950
O2    O     O_R   0.421770 0.005720 0.575730 -0.532984
O3    O     O_R   0.412470 0.173950 0.404530 -0.556126
O4    O     O_R   0.587530 0.673950 0.595470 -0.544774
C1    C     C_R   0.383758 0.344720 0.382708 0.639919
C2    C     C_R   0.615934 0.844788 0.617634 0.644416
O5    O     O_R   0.577030 0.175880 0.413670 -0.543679
O6    O     O_R   0.422970 0.675880 0.586330 -0.542329
O7    O     O_R   0.587510 0.007580 0.584940 -0.536980
O8    O     O_R   0.412490 0.507580 0.415060 -0.536401
C3    C     C_R   0.603562 0.344726 0.393325 0.742674
C4    C     C_R   0.396417 0.844721 0.606652 0.722135
O9    O     O_3   0.503240 0.339850 0.556180 -0.367392
O10   O     O_3   0.496760 0.839850 0.443820 -0.372755
V1    V     V_3+5 0.499400 0.064230 0.489580 1.399692
V2    V     V_3+5 0.500600 0.564230 0.510420 1.413990
C5    C     C_1   0.333767 0.854979 0.668630 -0.184142
C6    C     C_1   0.666211 0.355000 0.331345 -0.179552
C7    C     C_1   0.281113 0.865762 0.719910 0.014685
C8    C     C_1   0.718866 0.365804 0.280065 0.016540
C9    C     C_1   0.219007 0.879299 0.780157 0.012200
C10   C     C_1   0.780974 0.379351 0.219820 0.013884
C11   C     C_1   0.166385 0.890027 0.831487 -0.176715
C12   C     C_1   0.833602 0.390060 0.168495 -0.173677
C13   C     C_3   0.740171 0.802485 0.851276 0.145938
C14   C     C_3   0.261841 0.318206 0.147022 0.150170
H1    H     H_    0.758746 0.656858 0.872255 0.164561
H2    H     H_    0.245277 0.177666 0.117861 0.170689
C15   C     C_3   0.665326 0.794129 0.780798 -0.225309
C16   C     C_3   0.335203 0.298766 0.219166 -0.207860
H3    H     H_    0.621068 0.901253 0.800174 0.118047
H4    H     H_    0.381686 0.403229 0.202748 0.112447
H5    H     H_    0.847456 0.609926 0.764066 0.094653
H6    H     H_    0.164415 0.098259 0.228899 0.189216
C17   C     C_3   0.835062 0.752314 0.734828 -0.412964
C18   C     C_3   0.168088 0.239123 0.261459 -0.422859
C19   C     C_3   0.791195 0.086518 0.767558 -0.137237
C20   C     C_3   0.204053 0.583144 0.237284 -0.138464
C21   C     C_3   0.814539 0.889590 0.809910 -0.052192
C22   C     C_3   0.185503 0.389186 0.190067 -0.098644
H7    H     H_    0.773528 0.182312 0.820676 0.104393
H8    H     H_    0.216586 0.690970 0.186800 0.165864
C23   C     C_3   0.689470 0.855999 0.686126 -0.092921
C24   C     C_3   0.310199 0.355461 0.314123 -0.074821
C25   C     C_3   0.765980 0.742621 0.656697 0.286803
C26   C     C_3   0.234451 0.237541 0.342302 0.280588
C27   C     C_3   0.717015 0.066514 0.698556 -0.300196
C28   C     C_3   0.280629 0.565412 0.303194 -0.365082
H9    H     H_    0.666637 0.152333 0.721190 0.152489
H10   H     H_    0.329352 0.653206 0.278384 0.167488
H11   H     H_    0.729702 0.128049 0.634066 0.224793
H12   H     H_    0.269588 0.625939 0.368450 0.200899
H13   H     H_    0.893565 0.794939 0.710691 0.180599
H14   H     H_    0.106856 0.262900 0.283334 0.146960
O11   O     O_R   0.087480 0.241090 0.084980 -0.542603
O12   O     O_R   0.912520 0.741090 0.915020 -0.548196
O13   O     O_R   0.922960 0.569060 0.086330 -0.529427
O14   O     O_R   0.077040 0.069060 0.913670 -0.538300
C29   C     C_R   0.896202 0.400244 0.106426 0.712246
C30   C     C_R   0.103793 0.900236 0.893564 0.711906
O15   O     O_R   0.087520 0.570920 0.095480 -0.520344
O16   O     O_R   0.912480 0.070920 0.904520 -0.554409
O17   O     O_R   0.078240 0.739160 0.924260 -0.531717
O18   O     O_R   0.921760 0.239160 0.075740 -0.528255
C31   C     C_R   0.114762 0.401771 0.119054 0.733371
C32   C     C_R   0.885264 0.901950 0.880929 0.703168
O19   O     O_3   0.996740 0.404980 0.943840 -0.385616
O20   O     O_3   0.003260 0.904980 0.056160 -0.347461
V3    V     V_3+5 0.000600 0.680640 0.010420 1.496618
V4    V     V_3+5 0.999400 0.180640 0.989580 1.450759
N1    N     N_2   0.798507 0.825160 0.577652 -0.456325
H15   H     H_    0.854179 0.771465 0.565494 0.288227
C33   C     C_3   0.747975 0.854540 0.495675 -0.401442
H16   H     H_    0.786427 0.870267 0.439755 0.179930
H17   H     H_    0.713325 0.987428 0.498633 0.190110
H18   H     H_    0.706650 0.734072 0.480398 0.203947
N2    N     N_2   0.199267 0.323788 0.418858 -0.524916
H19   H     H_    0.141988 0.275953 0.427982 0.284545
C34   C     C_3   0.247247 0.344021 0.503144 -0.456926
H20   H     H_    0.206927 0.368127 0.556753 0.188204
H21   H     H_    0.286914 0.469225 0.502364 0.191989
H22   H     H_    0.283499 0.215458 0.520046 0.208267
N3    N     N_2   0.721553 0.907227 0.929966 -0.536501
H23   H     H_    0.698670 0.041304 0.918507 0.272200
C35   C     C_3   0.680403 0.802755 0.994680 -0.501477
H24   H     H_    0.675592 0.891939 0.054255 0.192387
H25   H     H_    0.714790 0.673165 0.015382 0.202588
H26   H     H_    0.618766 0.763664 0.966868 0.206710
N4    N     N_2   0.281267 0.442781 0.075040 -0.537257
H27   H     H_    0.303256 0.574041 0.094259 0.280427
C36   C     C_3   0.324991 0.356994 0.006943 -0.518278
H28   H     H_    0.331873 0.461315 0.953351 0.198100
H29   H     H_    0.291370 0.233267 0.977621 0.203730
H30   H     H_    0.385806 0.311674 0.034940 0.202725
C37   C     C_2   0.618094 0.610496 0.783503 0.276539
H31   H     H_    0.558230 0.602193 0.749407 0.085738
O21   O     O_2   0.643611 0.473699 0.826457 -0.564753
C38   C     C_2   0.379203 0.111227 0.214983 0.264447
H32   H     H_    0.439703 0.098009 0.247135 0.083166
O22   O     O_2   0.349659 0.975305 0.174492 -0.565047
C39   C     C_2   0.746636 0.535520 0.639319 0.346869
H33   H     H_    0.723495 0.451653 0.690614 0.053700
O23   O     O_2   0.759334 0.458764 0.569688 -0.529062
C40   C     C_2   0.254521 0.032571 0.364867 0.375313
H34   H     H_    0.299942 0.957920 0.332427 0.060936
O24   O     O_2   0.217790 0.946562 0.418586 -0.539370
C41   C     C_2   0.861283 0.184607 0.728779 0.410869
H35   H     H_    0.894385 0.293511 0.766814 0.039684
O25   O     O_2   0.882878 0.141077 0.656599 -0.500632
C42   C     C_2   0.132684 0.654835 0.283432 0.416596
H36   H     H_    0.114293 0.585050 0.341934 0.102448
O26   O     O_2   0.094458 0.792381 0.255069 -0.530869

loop_
_geom_bond_atom_site_label_1
_geom_bond_atom_site_label_2
_ccdc_geom_bond_type
C20   C22   S    
C3    C6    S    
C39   H33   S    
C17   H13   S    
C41   O25   D    
C33   H16   S    
C37   H31   S    
O1    C3    A    
O2    C4    A    
C2    O7    A    
C40   O24   D    
C27   H9    S    
N2    H19   S    
C14   N4    S    
O5    C3    A    
O12   V3    S    
C29   O18   A    
C30   O17   A    
C7    C9    S    
C20   H8    S    
H5    C17   S    
O13   C29   A    
C25   N1    S    
O14   C30   A    
O16   V4    S    
C6    C8    T    
O6    V2    S    
C42   H36   S    
C5    C7    T    
O17   V3    S    
O20   V3    S    
C4    C5    S    
C41   H35   S    
C18   C26   S    
O18   V4    S    
C19   C27   S    
C20   C28   S    
O5    V1    S    
C39   O23   D    
C15   C23   S    
C15   H3    S    
C33   H17   S    
C16   C24   S    
C40   H34   S    
O11   C31   A    
C24   C26   S    
N2    C34   S    
C13   C15   S    
C11   C30   S    
O16   C32   A    
C35   H25   S    
C18   C22   S    
O4    C2    A    
C36   H28   S    
C15   C37   S    
O14   V4    S    
C27   H11   S    
C20   C42   S    
C35   H24   S    
C26   C40   S    
O19   V3    S    
O4    V2    S    
C17   C21   S    
C36   H29   S    
N3    H23   S    
O6    C4    A    
O1    V2    S    
O2    V1    S    
C23   C25   S    
C25   C39   S    
N3    C35   S    
C1    C24   S    
C8    C10   S    
C14   C16   S    
C38   O22   D    
C22   C31   S    
C9    C11   T    
C33   H18   S    
C10   C12   T    
N4    C36   S    
C17   C25   S    
O3    V1    S    
C34   H21   S    
C35   H26   S    
O15   V3    S    
O3    C1    A    
C34   H22   S    
C37   O21   D    
C19   C41   S    
C13   H1    S    
C26   N2    S    
C16   C38   S    
C14   H2    S    
C2    C23   S    
O19   V4    S    
O7    V1    S    
C1    O8    A    
C19   C21   S    
O8    V2    S    
C13   C21   S    
C36   H30   S    
C16   H4    S    
C14   C22   S    
C12   C29   S    
O12   C32   A    
C28   H10   S    
C21   C32   S    
H6    C18   S    
C19   H7    S    
C42   O26   D    
O11   V4    S    
C18   H14   S    
C34   H20   S    
O15   C31   A    
C28   H12   S    
N1    H15   S    
O20   V4    S    
C38   H32   S    
O9    V2    S    
N1    C33   S    
C13   N3    S    
O10   V1    S    
O13   V3    S    
N4    H27   S    
C23   C27   S    
C24   C28   S    
