data_mof_unit_66326.cif
_audit_creation_date              2012-10-26T17:39:13-0400
_audit_creation_method            fapswitch 2.2
_symmetry_space_group_name_H-M    P1
_symmetry_Int_Tables_number       1
_space_group_crystal_system       monoclinic
_cell_length_a                    30.391461
_cell_length_b                    30.391461
_cell_length_c                    23.672938
_cell_angle_alpha                 90.0
_cell_angle_beta                  90.000018
_cell_angle_gamma                 90.0
_cell_volume                      21865.2938006

loop_
_atom_site_label
_atom_site_type_symbol
_atom_type_description
_atom_site_fract_x
_atom_site_fract_y
_atom_site_fract_z
_atom_type_partial_charge
C1    C     C_R   0.585132 0.000000 0.500000 0.546266
C2    C     C_R   0.002224 0.843095 0.551052 -0.106630
C3    C     C_R   0.539886 0.843139 0.997471 -0.100576
C4    C     C_R   0.843139 0.460114 0.997470 -0.100574
C5    C     C_R   0.539886 0.156861 0.002531 -0.100570
C6    C     C_R   0.156861 0.539886 0.997470 -0.100574
C7    C     C_R   0.460114 0.843139 0.002529 -0.100576
C8    C     C_R   0.633527 0.000000 0.500000 0.006973
C9    C     C_R   1.000000 0.633527 0.500000 0.006973
C10   C     C_R   0.366473 0.000000 0.500000 0.006973
C11   C     C_R   0.000000 0.366473 0.500000 0.006973
C12   C     C_R   0.133527 0.500000 1.000000 0.006973
C13   C     C_R   0.156905 0.002225 0.551052 -0.106630
C14   C     C_R   0.500000 0.133527 1.000000 0.006976
C15   C     C_R   0.866473 0.500000 0.000000 0.006973
C16   C     C_R   0.500000 0.866473 1.000000 0.006972
C17   C     C_R   0.725647 0.000000 0.500000 0.113510
C18   C     C_R   0.000000 0.725647 0.500000 0.113510
C19   C     C_R   0.274353 0.000000 0.500000 0.113510
C20   C     C_R   0.000000 0.274353 0.500000 0.113510
C21   C     C_R   0.225647 0.500000 1.000000 0.113510
C22   C     C_R   0.500000 0.225647 1.000000 0.113515
C23   C     C_R   0.774353 0.500000 0.000000 0.113510
C24   C     C_R   0.997775 0.156905 0.551052 -0.106630
C25   C     C_R   0.500000 0.774353 1.000000 0.113508
C26   C     C_R   0.797125 0.997857 0.551671 0.226468
C27   C     C_R   0.002143 0.797125 0.551671 0.226467
C28   C     C_R   0.202875 0.002143 0.551671 0.226467
C29   C     C_R   0.997857 0.202875 0.551671 0.226467
C30   C     C_R   0.202875 0.997857 0.448329 0.226467
C31   C     C_R   0.997857 0.797125 0.448329 0.226467
C32   C     C_R   0.797125 0.002143 0.448329 0.226467
C33   C     C_R   0.002143 0.202875 0.448329 0.226467
C34   C     C_R   0.297125 0.497857 0.051671 0.226467
C35   C     C_R   0.156905 0.997775 0.448948 -0.106630
C36   C     C_R   0.502142 0.297125 0.051671 0.226467
C37   C     C_R   0.702875 0.502143 0.051671 0.226467
C38   C     C_R   0.497856 0.702874 0.051671 0.226467
C39   C     C_R   0.702874 0.497857 0.948329 0.226467
C40   C     C_R   0.497858 0.297125 0.948329 0.226468
C41   C     C_R   0.297125 0.502143 0.948329 0.226467
C42   C     C_R   0.502144 0.702874 0.948329 0.226468
C43   C     C_R   0.997776 0.843095 0.448948 -0.106630
C44   C     C_R   0.843095 0.002225 0.448948 -0.106630
C45   C     C_R   0.002225 0.156905 0.448948 -0.106630
C46   C     C_R   0.343095 0.497775 0.051051 -0.106630
C47   C     C_R   0.502223 0.343095 0.051052 -0.106630
C48   C     C_R   0.656905 0.502225 0.051052 -0.106630
C49   C     C_R   1.000000 0.585132 0.500000 0.546266
C50   C     C_R   0.497775 0.656905 0.051051 -0.106629
C51   C     C_R   0.656905 0.497775 0.948948 -0.106630
C52   C     C_R   0.497777 0.343095 0.948948 -0.106630
C53   C     C_R   0.343095 0.502225 0.948948 -0.106630
C54   C     C_R   0.502225 0.656905 0.948948 -0.106630
C55   C     C_R   0.866291 0.000000 0.500000 -0.079634
C56   C     C_R   1.000000 0.866291 0.500000 -0.079634
C57   C     C_R   0.133709 0.000000 0.500000 -0.079634
C58   C     C_R   0.000000 0.133709 0.500000 -0.079634
C59   C     C_R   0.366291 0.500000 1.000000 -0.079634
C60   C     C_R   0.414868 0.000000 0.500000 0.546266
C61   C     C_R   0.500000 0.366291 1.000000 -0.079634
C62   C     C_R   0.633709 0.500000 0.000000 -0.079634
C63   C     C_R   0.500000 0.633709 1.000000 -0.079633
C64   C     C_R   0.773903 0.000000 0.500000 -0.014088
C65   C     C_R   1.000000 0.773903 0.500000 -0.014088
C66   C     C_R   0.226097 0.000000 0.500000 -0.014088
C67   C     C_R   0.000000 0.226097 0.500000 -0.014088
C68   C     C_R   0.273903 0.500000 1.000000 -0.014088
C69   C     C_R   0.500000 0.273903 1.000000 -0.014089
C70   C     C_R   0.726097 0.500000 0.000000 -0.014088
C71   C     C_R   0.000000 0.414868 0.500000 0.546266
C72   C     C_R   0.500000 0.726097 1.000000 -0.014087
C73   C     C_R   1.000000 0.914714 0.500000 0.558208
C74   C     C_R   0.085286 0.000000 0.500000 0.558207
C75   C     C_R   0.000000 0.085286 0.500000 0.558207
C76   C     C_R   0.914714 0.000000 0.500000 0.558208
C77   C     C_R   0.500000 0.414714 0.000000 0.558208
C78   C     C_R   0.585286 0.500000 0.000000 0.558207
C79   C     C_R   0.500000 0.585286 1.000000 0.558207
C80   C     C_R   0.414714 0.500000 1.000000 0.558208
C81   C     C_R   0.500000 0.000000 0.608143 0.552186
C82   C     C_R   0.085132 0.500000 1.000000 0.546266
C83   C     C_R   1.000000 0.500000 0.608143 0.552185
C84   C     C_R   0.500000 0.000000 0.391856 0.552186
C85   C     C_R   0.000000 0.500000 0.391856 0.552186
C86   C     C_R   0.000000 0.500000 0.108143 0.552185
C87   C     C_R   0.500000 0.000000 0.108143 0.552186
C88   C     C_R   1.000000 0.500000 0.891856 0.552186
C89   C     C_R   0.500000 0.000000 0.891856 0.552186
C90   C     C_1   0.500000 0.000000 0.668998 0.010065
C91   C     C_1   1.000000 0.500000 0.668998 0.010065
C92   C     C_1   0.500000 0.000000 0.331002 0.010065
C93   C     C_R   0.500000 0.085132 0.000000 0.546266
C94   C     C_1   1.000000 0.500000 0.331002 0.010065
C95   C     C_1   0.000000 0.500000 0.168998 0.010065
C96   C     C_1   0.500000 0.000000 0.168998 0.010065
C97   C     C_1   1.000000 0.500000 0.831002 0.010065
C98   C     C_1   0.500000 0.000000 0.831002 0.010066
C99   C     C_1   0.500000 0.000000 0.720065 -0.006315
C100  C     C_1   1.000000 0.500000 0.720065 -0.006315
C101  C     C_1   0.500000 0.000000 0.279935 -0.006315
C102  C     C_1   1.000000 0.500000 0.279935 -0.006315
C103  C     C_1   1.000000 0.500000 0.220065 -0.006315
C104  C     C_R   0.914868 0.500000 0.000000 0.546266
C105  C     C_1   0.500000 0.000000 0.220065 -0.006315
C106  C     C_1   1.000000 0.500000 0.779935 -0.006315
C107  C     C_1   0.500000 0.000000 0.779935 -0.006315
C108  C     C_R   0.702690 0.960161 0.502581 -0.016343
C109  C     C_R   0.960161 0.702690 0.497418 -0.016343
C110  C     C_R   0.297310 0.039839 0.502582 -0.016343
C111  C     C_R   0.039839 0.297310 0.497418 -0.016343
C112  C     C_R   0.297310 0.960161 0.497418 -0.016343
C113  C     C_R   0.039839 0.702690 0.502582 -0.016343
C114  C     C_R   0.702690 0.039839 0.497418 -0.016343
C115  C     C_R   0.500000 0.914868 1.000000 0.546266
C116  C     C_R   0.960161 0.297310 0.502582 -0.016343
C117  C     C_R   0.202690 0.460161 0.002581 -0.016343
C118  C     C_R   0.460161 0.202690 0.997418 -0.016338
C119  C     C_R   0.797310 0.539839 0.002581 -0.016343
C120  C     C_R   0.539839 0.797310 0.997419 -0.016345
C121  C     C_R   0.797310 0.460161 0.997419 -0.016343
C122  C     C_R   0.539839 0.202690 0.002582 -0.016337
C123  C     C_R   0.202690 0.539839 0.997418 -0.016343
C124  C     C_R   0.460161 0.797310 0.002581 -0.016345
C125  C     C_R   0.656861 0.960114 0.502530 -0.100574
C126  C     C_R   0.843095 0.997775 0.551052 -0.106630
C127  C     C_R   0.960114 0.656861 0.497469 -0.100574
C128  C     C_R   0.343139 0.039886 0.502530 -0.100574
C129  C     C_R   0.039886 0.343139 0.497470 -0.100574
C130  C     C_R   0.343139 0.960114 0.497470 -0.100574
C131  C     C_R   0.039886 0.656861 0.502530 -0.100574
C132  C     C_R   0.656861 0.039886 0.497470 -0.100575
C133  C     C_R   0.960114 0.343139 0.502530 -0.100574
C134  C     C_R   0.156861 0.460114 0.002530 -0.100574
C135  C     C_R   0.460114 0.156861 0.997469 -0.100570
C136  C     C_R   0.843139 0.539886 0.002530 -0.100574
Cu1   Cu    Cu3+1 0.500000 0.044070 0.500000 1.018632
Cu2   Cu    Cu3+1 1.000000 0.000000 0.444200 1.048840
Cu3   Cu    Cu3+1 0.500000 0.500000 0.055800 1.048839
Cu4   Cu    Cu3+1 0.500000 0.500000 0.944200 1.048840
Cu5   Cu    Cu3+1 0.955930 0.500000 0.500000 1.018633
Cu6   Cu    Cu3+1 0.500000 0.955930 0.500000 1.018634
Cu7   Cu    Cu3+1 0.044070 0.500000 0.500000 1.018633
Cu8   Cu    Cu3+1 1.000000 0.544070 0.000000 1.018633
Cu9   Cu    Cu3+1 0.455930 0.000000 0.000000 1.018634
Cu10  Cu    Cu3+1 0.000000 0.455930 0.000000 1.018633
Cu11  Cu    Cu3+1 0.544070 0.000000 0.000000 1.018633
Cu12  Cu    Cu3+1 1.000000 0.000000 0.555800 1.048840
H1    H     H_    0.720331 0.929224 0.504479 0.157408
H2    H     H_    0.429224 0.220331 0.995519 0.157406
H3    H     H_    0.779669 0.570776 0.004479 0.157408
H4    H     H_    0.570776 0.779669 0.995522 0.157409
H5    H     H_    0.779669 0.429224 0.995521 0.157408
H6    H     H_    0.570776 0.220331 0.004481 0.157406
H7    H     H_    0.220331 0.570776 0.995520 0.157408
H8    H     H_    0.429223 0.779669 0.004478 0.157409
H9    H     H_    0.860913 0.995909 0.590564 0.193743
H10   H     H_    0.004091 0.860913 0.590564 0.193743
H11   H     H_    0.139087 0.004091 0.590564 0.193743
H12   H     H_    0.929224 0.720331 0.495519 0.157408
H13   H     H_    0.995909 0.139087 0.590564 0.193743
H14   H     H_    0.139087 0.995909 0.409436 0.193743
H15   H     H_    0.995909 0.860913 0.409436 0.193743
H16   H     H_    0.860913 0.004091 0.409436 0.193743
H17   H     H_    0.004091 0.139087 0.409436 0.193743
H18   H     H_    0.360913 0.495909 0.090564 0.193743
H19   H     H_    0.504089 0.360913 0.090564 0.193744
H20   H     H_    0.639087 0.504092 0.090564 0.193743
H21   H     H_    0.495907 0.639087 0.090564 0.193743
H22   H     H_    0.639087 0.495908 0.909436 0.193743
H23   H     H_    0.279669 0.070776 0.504479 0.157408
H24   H     H_    0.495911 0.360913 0.909436 0.193744
H25   H     H_    0.360913 0.504091 0.909436 0.193743
H26   H     H_    0.504093 0.639087 0.909436 0.193743
H27   H     H_    0.639771 0.928893 0.504536 0.149188
H28   H     H_    0.928893 0.639771 0.495463 0.149187
H29   H     H_    0.360229 0.071107 0.504536 0.149187
H30   H     H_    0.071107 0.360229 0.495463 0.149187
H31   H     H_    0.360229 0.928893 0.495464 0.149188
H32   H     H_    0.071107 0.639771 0.504537 0.149187
H33   H     H_    0.639771 0.071107 0.495464 0.149187
H34   H     H_    0.070776 0.279669 0.495520 0.157408
H35   H     H_    0.928893 0.360229 0.504537 0.149187
H36   H     H_    0.139771 0.428893 0.004536 0.149187
H37   H     H_    0.428893 0.139770 0.995463 0.149186
H38   H     H_    0.860229 0.571107 0.004536 0.149188
H39   H     H_    0.571107 0.860229 0.995465 0.149188
H40   H     H_    0.860229 0.428893 0.995464 0.149188
H41   H     H_    0.571107 0.139770 0.004537 0.149186
H42   H     H_    0.139771 0.571107 0.995464 0.149187
H43   H     H_    0.428893 0.860229 0.004535 0.149188
H44   H     H_    0.714791 0.029426 0.655815 0.380072
H45   H     H_    0.279669 0.929224 0.495521 0.157408
H46   H     H_    0.970573 0.714791 0.655814 0.380072
H47   H     H_    0.285209 0.970573 0.655815 0.380072
H48   H     H_    0.029427 0.285209 0.655815 0.380072
H49   H     H_    0.285209 0.029427 0.344185 0.380072
H50   H     H_    0.029428 0.714791 0.344185 0.380072
H51   H     H_    0.714791 0.970574 0.344185 0.380072
H52   H     H_    0.970573 0.285209 0.344185 0.380072
H53   H     H_    0.214791 0.529426 0.155815 0.380072
H54   H     H_    0.470565 0.214796 0.155819 0.380075
H55   H     H_    0.785209 0.470574 0.155815 0.380072
H56   H     H_    0.070776 0.720331 0.504480 0.157408
H57   H     H_    0.529422 0.785212 0.155812 0.380071
H58   H     H_    0.785209 0.529425 0.844185 0.380072
H59   H     H_    0.529436 0.214798 0.844178 0.380075
H60   H     H_    0.214791 0.470574 0.844185 0.380072
H61   H     H_    0.470577 0.785211 0.844187 0.380071
H62   H     H_    0.720331 0.070776 0.495521 0.157408
H63   H     H_    0.929224 0.279669 0.504480 0.157408
H64   H     H_    0.220331 0.429224 0.004479 0.157408
O1    O     O_R   0.564260 0.037220 0.500020 -0.508660
O2    O     O_R   0.462780 0.064260 0.000020 -0.508659
O3    O     O_R   0.935740 0.462780 0.000020 -0.508659
O4    O     O_R   0.537220 0.935740 0.000020 -0.508659
O5    O     O_R   0.935740 0.537220 0.999980 -0.508659
O6    O     O_R   0.537220 0.064260 0.999980 -0.508659
O7    O     O_R   0.064260 0.462780 0.999980 -0.508659
O8    O     O_R   0.462780 0.935740 0.999980 -0.508659
O9    O     O_R   0.499990 0.037220 0.581420 -0.495669
O10   O     O_R   0.962780 0.499990 0.581420 -0.495668
O11   O     O_R   0.500010 0.962780 0.581420 -0.495668
O12   O     O_R   0.962780 0.564260 0.500020 -0.508659
O13   O     O_R   0.037220 0.500010 0.581420 -0.495669
O14   O     O_R   0.500010 0.037220 0.418580 -0.495668
O15   O     O_R   0.037220 0.499990 0.418580 -0.495668
O16   O     O_R   0.499990 0.962780 0.418580 -0.495668
O17   O     O_R   0.962780 0.500010 0.418580 -0.495668
O18   O     O_R   0.999990 0.537220 0.081420 -0.495668
O19   O     O_R   0.462780 0.999990 0.081420 -0.495668
O20   O     O_R   0.000010 0.462780 0.081420 -0.495668
O21   O     O_R   0.537220 0.000010 0.081420 -0.495669
O22   O     O_R   0.000010 0.537220 0.918580 -0.495668
O23   O     O_R   0.435740 0.962780 0.500020 -0.508659
O24   O     O_R   0.537220 0.999990 0.918580 -0.495668
O25   O     O_R   0.999990 0.462780 0.918580 -0.495668
O26   O     O_R   0.462780 0.000010 0.918580 -0.495668
O27   O     O_R   0.999990 0.935770 0.547120 -0.502786
O28   O     O_R   0.064230 0.999990 0.547120 -0.502786
O29   O     O_R   0.000010 0.064230 0.547120 -0.502786
O30   O     O_R   0.935770 0.000010 0.547120 -0.502786
O31   O     O_R   0.000010 0.935770 0.452880 -0.502786
O32   O     O_R   0.935770 0.999990 0.452880 -0.502786
O33   O     O_R   0.999990 0.064230 0.452880 -0.502786
O34   O     O_R   0.037220 0.435740 0.500020 -0.508659
O35   O     O_R   0.064230 0.000010 0.452880 -0.502786
O36   O     O_R   0.499990 0.435770 0.047120 -0.502786
O37   O     O_R   0.564230 0.499990 0.047120 -0.502786
O38   O     O_R   0.500010 0.564230 0.047120 -0.502786
O39   O     O_R   0.435770 0.500010 0.047120 -0.502786
O40   O     O_R   0.500010 0.435770 0.952880 -0.502786
O41   O     O_R   0.435770 0.499990 0.952880 -0.502786
O42   O     O_R   0.499990 0.564230 0.952880 -0.502786
O43   O     O_R   0.564230 0.500010 0.952880 -0.502786
O44   O     O_2   0.745895 0.951852 0.621882 -0.269808
O45   O     O_R   0.435740 0.037220 0.499980 -0.508659
O46   O     O_2   0.801700 0.999021 0.665608 -0.234378
O47   O     O_3   0.732742 0.036320 0.622035 -0.517310
O48   O     O_2   0.048147 0.745895 0.621883 -0.269808
O49   O     O_2   0.000978 0.801700 0.665608 -0.234377
O50   O     O_3   0.963679 0.732742 0.622034 -0.517309
O51   O     O_2   0.254105 0.048147 0.621882 -0.269807
O52   O     O_2   0.198300 0.000979 0.665608 -0.234378
O53   O     O_3   0.267257 0.963679 0.622035 -0.517309
O54   O     O_2   0.951852 0.254105 0.621883 -0.269808
O55   O     O_2   0.999022 0.198300 0.665608 -0.234378
O56   O     O_R   0.037220 0.564260 0.499980 -0.508659
O57   O     O_3   0.036320 0.267258 0.622034 -0.517310
O58   O     O_2   0.254105 0.951853 0.378117 -0.269808
O59   O     O_2   0.198300 0.999021 0.334392 -0.234378
O60   O     O_3   0.267257 0.036321 0.377965 -0.517309
O61   O     O_2   0.951853 0.745895 0.378117 -0.269807
O62   O     O_2   0.999022 0.801700 0.334392 -0.234378
O63   O     O_3   0.036321 0.732742 0.377966 -0.517309
O64   O     O_2   0.745895 0.048148 0.378118 -0.269808
O65   O     O_2   0.801700 0.000979 0.334392 -0.234378
O66   O     O_3   0.732742 0.963680 0.377965 -0.517309
O67   O     O_R   0.564260 0.962780 0.499980 -0.508659
O68   O     O_2   0.048147 0.254105 0.378117 -0.269808
O69   O     O_2   0.000978 0.198300 0.334392 -0.234378
O70   O     O_3   0.963680 0.267258 0.377965 -0.517309
O71   O     O_2   0.245895 0.451852 0.121882 -0.269808
O72   O     O_2   0.301700 0.499021 0.165607 -0.234378
O73   O     O_3   0.232742 0.536320 0.122034 -0.517309
O74   O     O_2   0.548144 0.245894 0.121884 -0.269800
O75   O     O_2   0.500976 0.301700 0.165607 -0.234386
O76   O     O_3   0.463676 0.232743 0.122033 -0.517314
O77   O     O_2   0.754105 0.548148 0.121882 -0.269807
O78   O     O_R   0.962780 0.435740 0.499980 -0.508659
O79   O     O_2   0.698300 0.500980 0.165607 -0.234378
O80   O     O_3   0.767258 0.463681 0.122035 -0.517309
O81   O     O_2   0.451850 0.754105 0.121881 -0.269812
O82   O     O_2   0.499019 0.698300 0.165607 -0.234373
O83   O     O_3   0.536318 0.767258 0.122035 -0.517308
O84   O     O_2   0.754105 0.451852 0.878118 -0.269808
O85   O     O_2   0.698300 0.499020 0.834392 -0.234377
O86   O     O_3   0.767258 0.536319 0.877965 -0.517309
O87   O     O_2   0.451856 0.245894 0.878116 -0.269798
O88   O     O_2   0.499024 0.301700 0.834392 -0.234390
O89   O     O_R   0.064260 0.537220 0.000020 -0.508659
O90   O     O_3   0.536324 0.232743 0.877966 -0.517312
O91   O     O_2   0.245895 0.548148 0.878117 -0.269808
O92   O     O_2   0.301700 0.500979 0.834392 -0.234378
O93   O     O_3   0.232742 0.463680 0.877965 -0.517310
O94   O     O_2   0.548150 0.754105 0.878119 -0.269810
O95   O     O_2   0.500981 0.698300 0.834392 -0.234374
O96   O     O_3   0.463682 0.767258 0.877965 -0.517308
S1    S     S_3+6 0.769548 0.995154 0.617601 0.030165
S2    S     S_3+6 0.504843 0.269548 0.117601 0.030162
S3    S     S_3+6 0.730452 0.504847 0.117601 0.030165
S4    S     S_3+6 0.495152 0.730452 0.117601 0.030166
S5    S     S_3+6 0.730452 0.495153 0.882399 0.030165
S6    S     S_3+6 0.495157 0.269548 0.882398 0.030162
S7    S     S_3+6 0.269548 0.504846 0.882398 0.030165
S8    S     S_3+6 0.504848 0.730452 0.882399 0.030166
S9    S     S_3+6 0.004845 0.769548 0.617602 0.030165
S10   S     S_3+6 0.230452 0.004846 0.617602 0.030165
S11   S     S_3+6 0.995154 0.230452 0.617601 0.030165
S12   S     S_3+6 0.230452 0.995154 0.382398 0.030165
S13   S     S_3+6 0.995155 0.769548 0.382398 0.030165
S14   S     S_3+6 0.769548 0.004846 0.382398 0.030165
S15   S     S_3+6 0.004846 0.230452 0.382398 0.030165
S16   S     S_3+6 0.269548 0.495154 0.117601 0.030165

loop_
_geom_bond_atom_site_label_1
_geom_bond_atom_site_label_2
_ccdc_geom_bond_type
C33   C45   A    
H44   O47   S    
C18   C65   S    
C51   C62   A    
C89   O24   A    
C73   O27   A    
C52   C61   A    
C54   C63   A    
C36   C47   A    
C22   C118  A    
C26   C126  A    
O66   S14   S    
C21   C117  A    
C109  C127  A    
C24   H13   S    
O88   S6    D    
C80   O39   A    
Cu4   O40   S    
C58   C75   S    
C91   C100  T    
H57   O83   S    
C22   C69   S    
C88   C97   S    
C82   O89   A    
C110  H23   S    
H46   O50   S    
C101  C105  S    
Cu3   O37   S    
C11   C129  A    
O86   S5    S    
C22   C122  A    
C9    C131  A    
H52   O70   S    
C37   S3    S    
C38   S4    S    
C134  H36   S    
C116  C133  A    
C111  H34   S    
H55   O80   S    
C21   C123  A    
C10   C60   S    
C29   S11   S    
C75   O29   A    
C30   S12   S    
C132  H33   S    
C20   C111  A    
C55   C126  A    
C42   C72   A    
H48   O57   S    
C81   C90   S    
C49   O12   A    
O71   S16   D    
C16   C115  S    
H53   O73   S    
C99   C107  S    
C127  H28   S    
C31   C65   A    
C56   C73   S    
C27   S9    S    
C136  H38   S    
C93   O2    A    
Cu12  O28   S    
C89   O26   A    
C117  H64   S    
H61   O96   S    
Cu7   O15   S    
C3    H39   S    
C59   C80   S    
Cu3   Cu4   S    
H50   O63   S    
Cu1   O45   S    
C83   C91   S    
C129  H30   S    
C100  C106  S    
C119  C136  A    
C87   O21   A    
H60   O93   S    
C4    H40   S    
C5    H41   S    
C44   C55   A    
C54   H26   S    
C81   O9    A    
O48   S9    D    
O63   S13   S    
C50   H21   S    
C74   O28   A    
C104  O5    A    
C86   C95   S    
Cu9   O2    S    
C94   C102  T    
C42   S8    S    
O80   S3    S    
Cu4   O41   S    
Cu2   O31   S    
C110  C128  A    
Cu8   O89   S    
C39   C51   A    
Cu1   Cu6   S    
C1    C8    S    
C18   C109  A    
C52   H24   S    
C53   H25   S    
C31   C43   A    
C78   O43   A    
O64   S14   D    
C1    O67   A    
C116  H63   S    
C23   C119  A    
H51   O66   S    
C13   C57   A    
C14   C135  A    
C26   S1    S    
C33   S15   S    
C19   C66   S    
C32   S14   S    
O81   S4    D    
C82   O7    A    
Cu2   Cu12  S    
C48   H20   S    
C4    C121  A    
C34   C46   A    
C14   C93   S    
H54   O76   S    
Cu11  O24   S    
C12   C134  A    
Cu12  O30   S    
C50   C63   A    
C23   C70   S    
C60   O23   A    
C6    C123  A    
Cu7   O13   S    
C10   C128  A    
C18   C113  A    
C95   C103  T    
C38   C72   A    
O79   S3    D    
O53   S10   S    
C9    C49   S    
C32   C64   A    
Cu4   O43   S    
C15   C136  A    
C5    C122  A    
H49   O60   S    
O51   S10   D    
O73   S16   S    
C48   C62   A    
O83   S4    S    
O57   S11   S    
O58   S12   D    
Cu9   O26   S    
C77   O40   A    
C41   C53   A    
Cu6   O23   S    
C21   C68   S    
C79   O38   A    
C115  O8    A    
C39   S5    S    
Cu6   O11   S    
C126  H9    S    
C62   C78   S    
C131  H32   S    
Cu6   O16   S    
O61   S13   D    
Cu7   O34   S    
Cu8   O22   S    
C89   C98   S    
C86   O20   A    
C2    C56   A    
Cu9   O8    S    
C102  C103  S    
O91   S7    D    
C41   S7    S    
C34   S16   S    
C128  H29   S    
O60   S12   S    
C112  C130  A    
C135  H37   S    
C3    C16   A    
C84   O16   A    
O77   S3    D    
C96   C105  T    
O65   S14   D    
C90   C99   T    
O54   S11   D    
O69   S15   D    
Cu5   O78   S    
C23   C121  A    
C123  H7    S    
O62   S13   D    
O74   S2    D    
C9    C127  A    
C121  H5    S    
O50   S9    S    
Cu8   O18   S    
Cu5   Cu7   S    
C6    C12   A    
C11   C71   S    
C49   O56   A    
C117  C134  A    
Cu5   O17   S    
Cu1   O9    S    
Cu7   O56   S    
C118  H2    S    
C24   C29   A    
Cu2   O35   S    
O87   S6    D    
C29   C67   A    
C133  H35   S    
C13   C28   A    
C2    C27   A    
C85   O15   A    
C71   O78   A    
Cu10  O3    S    
Cu9   O19   S    
C37   C70   A    
O90   S6    S    
H59   O90   S    
C7    H43   S    
Cu3   O36   S    
Cu9   Cu11  S    
C41   C68   A    
C45   C58   A    
C80   O41   A    
C86   O18   A    
Cu8   Cu10  S    
C17   C108  A    
C63   C79   S    
C98   C107  T    
C60   O45   A    
C76   O30   A    
C10   C130  A    
C27   C65   A    
C2    H10   S    
C85   O17   A    
C5    C14   A    
C92   C101  T    
Cu10  O7    S    
C7    C16   A    
C1    O1    A    
Cu3   O38   S    
Cu4   O42   S    
O70   S15   S    
C34   C68   A    
C25   C120  A    
Cu2   O32   S    
O92   S7    D    
C111  C129  A    
C46   H18   S    
C76   O32   A    
C51   H22   S    
C104  O3    A    
O46   S1    D    
C47   C61   A    
C88   O22   A    
O93   S7    S    
C35   C57   A    
C77   O36   A    
Cu8   O5    S    
Cu2   O33   S    
C42   C54   A    
C79   O42   A    
C115  O4    A    
O75   S2    D    
H47   O53   S    
C40   S6    S    
C8    C125  A    
O82   S4    D    
C24   C58   A    
C78   O37   A    
C44   H16   S    
C71   O34   A    
C45   H17   S    
C118  C135  A    
O52   S10   D    
C43   H15   S    
C46   C59   A    
Cu12  O27   S    
C20   C67   S    
C28   C66   A    
C7    C124  A    
C84   O14   A    
C53   C59   A    
Cu10  O20   S    
C19   C112  A    
C30   C35   A    
O72   S16   D    
O55   S11   D    
C11   C133  A    
C17   C64   S    
C113  H56   S    
C31   S13   S    
C26   C64   A    
O96   S8    S    
O68   S15   D    
C83   O10   A    
O44   S1    D    
C8    C132  A    
O59   S12   D    
C15   C104  S    
C75   O33   A    
Cu5   O10   S    
C122  H6    S    
O76   S2    S    
C17   C114  A    
C119  H3    S    
C81   O11   A    
C120  H4    S    
C35   H14   S    
C36   S2    S    
C40   C69   A    
O49   S9    D    
Cu11  O4    S    
C130  H31   S    
C61   C77   S    
C20   C116  A    
C40   C52   A    
C93   O6    A    
C28   S10   S    
C57   C74   S    
Cu1   O14   S    
C47   H19   S    
C85   C94   S    
C73   O31   A    
Cu10  O25   S    
C87   C96   S    
C6    H42   S    
C32   C44   A    
C12   C82   S    
C25   C72   S    
C37   C48   A    
C30   C66   A    
C55   C76   S    
Cu11  O21   S    
C124  H8    S    
Cu12  O29   S    
C108  C125  A    
C97   C106  T    
C125  H27   S    
H58   O86   S    
C36   C69   A    
C33   C67   A    
C83   O13   A    
C19   C110  A    
O84   S5    D    
C113  C131  A    
Cu1   O1    S    
C114  C132  A    
Cu3   O39   S    
Cu6   O67   S    
C38   C50   A    
C84   C92   S    
O94   S8    D    
C114  H62   S    
C4    C15   A    
O85   S5    D    
C74   O35   A    
O47   S1    S    
C87   O19   A    
C88   O25   A    
C39   C70   A    
C13   H11   S    
C25   C124  A    
C112  H45   S    
C3    C120  A    
Cu5   O12   S    
C108  H1    S    
C43   C56   A    
Cu11  O6    S    
O95   S8    D    
C109  H12   S    
