data_mof_unit_58240.cif
_audit_creation_date              2012-10-26T20:25:36-0400
_audit_creation_method            fapswitch 2.2
_symmetry_space_group_name_H-M    P1
_symmetry_Int_Tables_number       1
_space_group_crystal_system       triclinic
_cell_length_a                    23.48113
_cell_length_b                    10.613709
_cell_length_c                    9.414769
_cell_angle_alpha                 89.861402
_cell_angle_beta                  90.246575
_cell_angle_gamma                 90.019858
_cell_volume                      2346.33771224

loop_
_atom_site_label
_atom_site_type_symbol
_atom_type_description
_atom_site_fract_x
_atom_site_fract_y
_atom_site_fract_z
_atom_type_partial_charge
C1    C     C_R   0.499856 0.259398 0.500266 0.552253
C2    C     C_R   0.700349 0.615345 0.510188 0.237915
C3    C     C_R   0.237425 0.435240 0.398162 -0.050772
C4    C     C_R   0.760059 0.613695 0.513774 -0.041372
C5    C     C_R   0.208726 0.496886 0.507859 0.197520
C6    C     C_R   0.789669 0.499501 0.502813 0.197721
C7    C     C_3   0.497931 0.040252 0.635183 -0.118416
C8    C     C_3   0.501863 0.959812 0.364961 -0.120028
C9    C     C_3   0.545748 0.958038 0.571734 -0.125820
C10   C     C_3   0.454025 0.042020 0.428438 -0.119356
C11   C     C_3   0.500043 0.877579 0.499073 0.047199
C12   C     C_R   0.500089 0.740613 0.499753 0.561238
C13   C     C_3   0.499747 0.122449 0.501066 0.048407
C14   C     C_3   0.452217 0.957502 0.562416 -0.126934
C15   C     C_3   0.547554 0.042552 0.437785 -0.136283
C16   C     C_R   0.390996 0.498867 0.499829 0.572552
C17   C     C_R   0.608621 0.499890 0.500217 0.584535
C18   C     C_3   0.547484 0.543829 0.050998 -0.002746
C19   C     C_3   0.452583 0.456151 0.948898 -0.012797
C20   C     C_3   0.506633 0.612872 0.949347 -0.008106
C21   C     C_3   0.493408 0.387123 0.050599 -0.005191
C22   C     C_3   0.540916 0.430943 0.950086 -0.003520
C23   C     C_R   0.239864 0.557695 0.614602 -0.089852
C24   C     C_3   0.459122 0.569086 0.049833 -0.013594
C25   C     C_R   0.879505 0.554893 0.394122 0.400226
C26   C     C_R   0.118863 0.442080 0.618321 0.404675
C27   C     C_R   0.879203 0.443276 0.614948 0.404894
C28   C     C_R   0.119013 0.556794 0.399540 0.400279
C29   C     C_R   0.938962 0.442070 0.618308 0.027997
C30   C     C_R   0.059293 0.557589 0.396078 0.030223
C31   C     C_R   0.969086 0.499573 0.506503 -0.029362
C32   C     C_R   0.029206 0.499798 0.507702 -0.029346
C33   C     C_R   0.939237 0.556742 0.393396 0.030051
C34   C     C_R   0.759476 0.386135 0.490152 -0.073361
C35   C     C_R   0.059091 0.442031 0.620350 0.031006
C36   C     C_R   0.969184 0.385262 0.730552 -0.124919
C37   C     C_R   0.029093 0.614567 0.283926 -0.125427
C38   C     C_R   0.028620 0.385059 0.731444 -0.125300
C39   C     C_R   0.969689 0.613961 0.282479 -0.124780
C40   C     C_3   0.309785 0.415437 0.148156 0.006392
C41   C     C_3   0.289785 0.303480 0.059089 -0.277454
C42   C     C_3   0.274019 0.344012 0.908385 -0.451899
C43   C     C_3   0.677438 0.802412 0.399571 0.000281
C44   C     C_3   0.704340 0.928893 0.439480 -0.263887
C45   C     C_R   0.299187 0.556920 0.611628 -0.214815
C46   C     C_3   0.713221 0.011972 0.308880 -0.475607
C47   C     C_R   0.700121 0.386791 0.489461 -0.199999
C48   C     C_R   0.328304 0.497694 0.500145 0.016593
C49   C     C_R   0.670574 0.500837 0.500782 0.028207
C50   C     C_R   0.297173 0.438451 0.390485 0.238507
Cu1   Cu    Cu3+1 0.500010 0.499990 0.643150 0.935275
Cu2   Cu    Cu3+1 0.499990 0.500010 0.356850 0.944890
H1    H     H_    0.947043 0.340559 0.817886 0.168700
H2    H     H_    0.947754 0.658522 0.194274 0.168836
H3    H     H_    0.218050 0.605687 0.699905 0.144551
H4    H     H_    0.782080 0.297645 0.480960 0.139954
H5    H     H_    0.322405 0.604050 0.695829 0.124384
H6    H     H_    0.677181 0.298523 0.480464 0.104750
H7    H     H_    0.213100 0.385026 0.318365 0.130777
H8    H     H_    0.783507 0.700915 0.525126 0.131782
H9    H     H_    0.583039 0.920103 0.630686 0.140883
H10   H     H_    0.416549 0.079731 0.369947 0.129991
H11   H     H_    0.496312 0.075871 0.745884 0.114973
H12   H     H_    0.051227 0.659515 0.196736 0.167375
H13   H     H_    0.503581 0.924195 0.254273 0.112006
H14   H     H_    0.347976 0.457095 0.097953 0.142372
H15   H     H_    0.276487 0.490583 0.146348 0.133560
H16   H     H_    0.324263 0.231864 0.054261 0.170055
H17   H     H_    0.251992 0.259719 0.109951 0.175829
H18   H     H_    0.311764 0.383541 0.853501 0.139544
H19   H     H_    0.239771 0.416110 0.910764 0.195811
H20   H     H_    0.258534 0.261282 0.847448 0.185180
H21   H     H_    0.634394 0.820068 0.354158 0.150864
H22   H     H_    0.703035 0.757342 0.313609 0.137167
H23   H     H_    0.512303 0.708133 0.902606 0.108439
H24   H     H_    0.676394 0.978869 0.515768 0.164225
H25   H     H_    0.746175 0.912635 0.491847 0.174471
H26   H     H_    0.672174 0.028403 0.252868 0.139086
H27   H     H_    0.743571 0.966541 0.234732 0.170863
H28   H     H_    0.731039 0.104303 0.341976 0.149495
H29   H     H_    0.413258 0.919413 0.613326 0.109761
H30   H     H_    0.586292 0.081629 0.387091 0.102580
H31   H     H_    0.487615 0.291885 0.097304 0.110291
H32   H     H_    0.587393 0.581171 0.098525 0.110451
H33   H     H_    0.413079 0.418004 0.900499 0.098452
H34   H     H_    0.575257 0.372705 0.903116 0.108812
H35   H     H_    0.424919 0.627758 0.096732 0.096237
H36   H     H_    0.050567 0.340158 0.819412 0.166321
N1    N     N_R   0.850798 0.498960 0.503909 -0.394993
N2    N     N_R   0.147548 0.499038 0.509114 -0.391349
N3    N     N_3   0.500040 0.499970 0.858290 -0.229260
N4    N     N_3   0.499960 0.500030 0.141710 -0.229414
O1    O     O_R   0.500030 0.316850 0.620870 -0.510530
O2    O     O_2   0.148060 0.384327 0.723602 -0.525249
O3    O     O_2   0.849689 0.390276 0.722294 -0.493399
O4    O     O_2   0.148392 0.613972 0.294662 -0.514003
O5    O     O_3   0.325657 0.372592 0.285460 -0.562226
O6    O     O_3   0.670766 0.727581 0.523346 -0.579886
O7    O     O_R   0.499970 0.683150 0.379130 -0.512575
O8    O     O_R   0.500000 0.316860 0.379090 -0.503408
O9    O     O_R   0.500000 0.683140 0.620910 -0.502573
O10   O     O_R   0.417890 0.499960 0.620920 -0.520286
O11   O     O_R   0.582110 0.500040 0.379080 -0.509414
O12   O     O_R   0.417870 0.499970 0.379140 -0.459662
O13   O     O_R   0.582130 0.500030 0.620860 -0.482837
O14   O     O_2   0.850293 0.607697 0.285512 -0.505654

loop_
_geom_bond_atom_site_label_1
_geom_bond_atom_site_label_2
_ccdc_geom_bond_type
C43   H21   S    
C46   H28   S    
Cu2   O11   S    
C34   H4    S    
C23   C45   A    
C27   C29   A    
C41   C42   S    
C27   O3    S    
C43   O6    S    
C16   C48   S    
C47   C49   A    
Cu1   O10   S    
C29   C36   A    
C45   H5    S    
C33   C39   A    
C9    H9    S    
C44   H25   S    
C19   C21   S    
C46   H27   S    
C11   C14   S    
C39   H2    S    
C42   H18   S    
C44   H24   S    
C12   O7    A    
C36   H1    S    
Cu1   N3    S    
C16   O12   A    
C7    C14   S    
C20   C24   S    
C40   H15   S    
C18   H32   S    
C22   N3    S    
C31   C33   A    
C15   H30   S    
C5    N2    S    
C43   H22   S    
C48   C50   A    
C8    H13   S    
C40   H14   S    
C21   C22   S    
C10   H10   S    
C24   N4    S    
C1    O8    A    
C3    C50   A    
C44   C46   S    
C25   O14   S    
C41   H16   S    
C37   C39   A    
C20   N3    S    
Cu1   Cu2   S    
C32   C35   A    
C21   H31   S    
C35   C38   A    
C4    C6    A    
C10   C14   S    
C17   C49   S    
C40   O5    S    
C46   H26   S    
C3    C5    A    
Cu2   O8    S    
C6    C34   A    
C30   C37   A    
C38   H36   S    
C2    C4    A    
C43   C44   S    
C2    C49   A    
C17   O13   A    
C31   C32   A    
C5    C23   A    
Cu1   O13   S    
C4    H8    S    
C42   H20   S    
C20   H23   S    
C9    C11   S    
C7    H11   S    
Cu1   O1    S    
C16   O10   A    
C40   C41   S    
C8    C15   S    
C26   O2    S    
C13   C15   S    
Cu2   N4    S    
C26   N2    A    
C37   H12   S    
C41   H17   S    
C45   C48   A    
C7    C9    S    
Cu2   O12   S    
C50   O5    S    
C18   C22   S    
C8    C10   S    
C19   H33   S    
C10   C13   S    
C11   C12   S    
C23   H3    S    
Cu1   O9    S    
C6    N1    S    
Cu2   O7    S    
C25   N1    A    
C28   O4    S    
C18   N4    S    
C28   C30   A    
C19   C24   S    
C17   O11   A    
C12   O9    A    
C29   C31   A    
C47   H6    S    
C30   C32   A    
C8    C11   S    
C36   C38   A    
C42   H19   S    
C27   N1    A    
C18   C20   S    
C22   H34   S    
C9    C15   S    
C24   H35   S    
C19   N3    S    
C26   C35   A    
C7    C13   S    
C1    C13   S    
C2    O6    S    
C1    O1    A    
C28   N2    A    
C34   C47   A    
C14   H29   S    
C25   C33   A    
C21   N4    S    
C3    H7    S    
