data_mof_unit_28205.cif
_audit_creation_date              2012-12-10T17:21:06-0500
_audit_creation_method            fapswitch 2.2
_symmetry_space_group_name_H-M    P1
_symmetry_Int_Tables_number       1
_space_group_crystal_system       triclinic
_cell_length_a                    18.345594
_cell_length_b                    25.82539
_cell_length_c                    18.309519
_cell_angle_alpha                 89.887231
_cell_angle_beta                  89.988144
_cell_angle_gamma                 90.014398
_cell_volume                      8674.70546247

loop_
_atom_site_label
_atom_site_type_symbol
_atom_type_description
_atom_site_fract_x
_atom_site_fract_y
_atom_site_fract_z
_atom_type_partial_charge
C1    C     C_R   0.389726 0.249835 0.139927 0.764637
C2    C     C_R   0.389681 0.750008 0.860075 0.777376
C3    C     C_R   0.389438 0.750386 0.140056 0.777323
C4    C     C_R   0.389366 0.249456 0.859866 0.777861
C5    C     C_R   0.889473 0.749423 0.640143 0.761744
C6    C     C_R   0.889328 0.250580 0.359766 0.769565
C7    C     C_R   0.889864 0.249792 0.639745 0.785910
C8    C     C_R   0.889748 0.750020 0.360088 0.773928
C9    C     C_R   0.549381 0.631972 0.144629 -0.266469
C10   C     C_R   0.381071 0.144143 0.681164 -0.224287
C11   C     C_R   0.430585 0.114469 0.267807 -0.250596
C12   C     C_R   0.399539 0.869049 0.699259 -0.241942
C13   C     C_R   0.024026 0.117663 0.674853 -0.223644
C14   C     C_R   0.098894 0.814597 0.401911 -0.224622
C15   C     C_R   0.927754 0.616557 0.774075 -0.246016
C16   C     C_R   0.917690 0.380231 0.217714 -0.242705
C17   C     C_R   0.495624 0.669826 0.145805 -0.237177
C18   C     C_R   0.384335 0.178592 0.739473 -0.265383
C19   C     C_R   0.418716 0.158545 0.225572 -0.255272
C20   C     C_R   0.396735 0.829661 0.751200 -0.262838
C21   C     C_R   0.980755 0.161217 0.663727 -0.255002
C22   C     C_R   0.030291 0.794098 0.387100 -0.252329
C23   C     C_R   0.918305 0.659139 0.728250 -0.263953
C24   C     C_R   0.910606 0.338510 0.265477 -0.258882
C25   C     C_R   0.497252 0.710286 0.197672 0.091498
C26   C     C_R   0.442176 0.214495 0.745685 0.090685
C27   C     C_R   0.459391 0.204497 0.236869 0.082212
C28   C     C_R   0.449906 0.790109 0.753047 0.101069
C29   C     C_R   0.989216 0.206160 0.707269 0.087390
C30   C     C_R   0.014614 0.771107 0.318664 0.087718
C31   C     C_R   0.958976 0.705292 0.738314 0.083348
C32   C     C_R   0.954878 0.293877 0.258339 0.087398
C33   C     C_R   0.043419 0.206802 0.761771 -0.002318
C34   C     C_R   0.069007 0.770471 0.264265 -0.007757
C35   C     C_R   0.011691 0.706969 0.794203 -0.006228
C36   C     C_R   0.008385 0.292766 0.203162 -0.011323
C37   C     C_R   0.552754 0.710847 0.250873 -0.021002
C38   C     C_R   0.496910 0.215295 0.691603 0.005263
C39   C     C_R   0.512859 0.205095 0.292056 -0.013988
C40   C     C_R   0.506430 0.790855 0.701085 -0.009045
C41   C     C_R   0.445809 0.750808 0.195745 -0.095676
C42   C     C_R   0.446397 0.249344 0.804824 -0.092538
C43   C     C_R   0.446483 0.249940 0.195510 -0.103126
C44   C     C_R   0.446171 0.749280 0.804207 -0.096783
C45   C     C_R   0.945116 0.250321 0.696753 -0.100654
C46   C     C_R   0.945511 0.749666 0.303465 -0.094825
C47   C     C_R   0.947128 0.749780 0.694759 -0.095474
C48   C     C_R   0.946494 0.250483 0.304715 -0.097982
C49   C     C_R   0.449315 0.792446 0.245524 -0.004233
C50   C     C_R   0.504818 0.284528 0.811376 0.014929
C51   C     C_R   0.489188 0.295047 0.205556 0.021278
C52   C     C_R   0.496381 0.707789 0.802337 0.014028
C53   C     C_R   0.953774 0.295212 0.740058 0.011759
C54   C     C_R   0.930004 0.726806 0.235023 0.009983
C55   C     C_R   0.990054 0.794859 0.703197 0.023828
C56   C     C_R   0.995749 0.208462 0.301954 0.018948
C57   C     C_R   0.009103 0.296994 0.794140 -0.041380
C58   C     C_R   0.984569 0.725221 0.180136 -0.045679
C59   C     C_R   0.043819 0.796962 0.758744 -0.052301
C60   C     C_R   0.053597 0.209109 0.250684 -0.036698
C61   C     C_R   0.500487 0.790878 0.303269 -0.047640
C62   C     C_R   0.555884 0.289006 0.753891 -0.050049
C63   C     C_R   0.546108 0.294898 0.257781 -0.050085
C64   C     C_R   0.552561 0.707444 0.749151 -0.045560
C65   C     C_R   0.053106 0.251921 0.804894 -0.129749
C66   C     C_R   0.053408 0.748425 0.195186 -0.132161
C67   C     C_R   0.054639 0.752107 0.803363 -0.134392
C68   C     C_R   0.056029 0.249788 0.198162 -0.135484
C69   C     C_R   0.553094 0.750357 0.304533 -0.129877
C70   C     C_R   0.553859 0.252165 0.696229 -0.130180
C71   C     C_R   0.555321 0.250308 0.302748 -0.136492
C72   C     C_R   0.556171 0.749069 0.698057 -0.139510
C73   C     C_R   0.401443 0.835303 0.239630 -0.160429
C74   C     C_R   0.512517 0.316117 0.874052 -0.152437
C75   C     C_R   0.477906 0.339898 0.162156 -0.160446
C76   C     C_R   0.491691 0.666594 0.853334 -0.153441
C77   C     C_R   0.907085 0.338430 0.730540 -0.138057
C78   C     C_R   0.860836 0.704611 0.220898 -0.148008
C79   C     C_R   0.980985 0.837757 0.655599 -0.159009
C80   C     C_R   0.990407 0.166891 0.352287 -0.153568
C81   C     C_R   0.403663 0.875497 0.289965 -0.201680
C82   C     C_R   0.568112 0.352520 0.878740 -0.230364
C83   C     C_R   0.521415 0.383534 0.170147 -0.246601
C84   C     C_R   0.540675 0.625643 0.851617 -0.242683
C85   C     C_R   0.916388 0.383279 0.770862 -0.226600
C86   C     C_R   0.845318 0.681807 0.154131 -0.232379
C87   C     C_R   0.021715 0.882556 0.664009 -0.238704
C88   C     C_R   0.042712 0.128123 0.354416 -0.228640
C89   C     C_R   0.109356 0.251024 0.860916 0.874660
C90   C     C_R   0.109973 0.749647 0.139632 0.898499
C91   C     C_R   0.111049 0.751169 0.859272 0.893346
C92   C     C_R   0.110656 0.249694 0.140393 0.907895
C93   C     C_R   0.610155 0.749923 0.359975 0.900682
C94   C     C_R   0.611187 0.251362 0.640989 0.896248
C95   C     C_R   0.610133 0.249873 0.360180 0.893509
C96   C     C_R   0.610873 0.749465 0.640522 0.901302
C97   C     C_R   0.971240 0.386179 0.822377 -0.217176
C98   C     C_R   0.898420 0.679275 0.100482 -0.218104
C99   C     C_R   0.072672 0.885868 0.719417 -0.184922
C100  C     C_R   0.102125 0.130278 0.307878 -0.227862
C101  C     C_R   0.450032 0.872460 0.349597 -0.234607
C102  C     C_R   0.613946 0.360642 0.819587 -0.211384
C103  C     C_R   0.578960 0.383044 0.219055 -0.196149
C104  C     C_R   0.596376 0.625200 0.800545 -0.206296
C105  C     C_R   0.016698 0.343642 0.836212 0.536820
C106  C     C_R   0.968427 0.699187 0.112896 0.544936
C107  C     C_R   0.085399 0.843779 0.766106 0.537330
C108  C     C_R   0.108880 0.170306 0.256524 0.528842
C109  C     C_R   0.495989 0.829670 0.358616 0.526817
C110  C     C_R   0.606072 0.331213 0.755855 0.521220
C111  C     C_R   0.593444 0.338972 0.261077 0.553375
C112  C     C_R   0.604298 0.665992 0.750664 0.549541
C113  C     C_R   0.315171 0.055209 0.882042 -0.127903
C114  C     C_R   0.323364 0.947834 0.884589 -0.137295
C115  C     C_R   0.761028 0.553843 0.365820 -0.129506
C116  C     C_R   0.756884 0.446041 0.365975 -0.125199
C117  C     C_R   0.352168 0.029214 0.826958 -0.159254
C118  C     C_R   0.357154 0.975713 0.828848 -0.149958
C119  C     C_R   0.766283 0.526690 0.300395 -0.084541
C120  C     C_R   0.762782 0.472972 0.300270 -0.171303
C121  C     C_R   0.286314 0.973495 0.942155 0.079576
C122  C     C_R   0.283841 0.027882 0.941697 0.083594
C123  C     C_R   0.753794 0.472769 0.433386 0.070125
C124  C     C_R   0.754799 0.527219 0.433235 0.058331
C125  C     C_R   0.251282 0.946287 0.999533 -0.143484
C126  C     C_R   0.249295 0.053766 0.000037 -0.153089
C127  C     C_R   0.751063 0.446263 0.500757 -0.157191
C128  C     C_R   0.750902 0.553775 0.500354 -0.142918
C129  C     C_R   0.217214 0.972217 0.058147 0.071932
C130  C     C_R   0.215552 0.026610 0.058094 0.053335
C131  C     C_R   0.752359 0.472851 0.568038 0.053124
C132  C     C_R   0.751091 0.527295 0.567818 0.069991
C133  C     C_R   0.186442 0.944972 0.118174 -0.136531
C134  C     C_R   0.181165 0.052471 0.117061 -0.135240
C135  C     C_R   0.755587 0.446307 0.635724 -0.159725
C136  C     C_R   0.751390 0.554054 0.635272 -0.126163
C137  C     C_R   0.151678 0.971164 0.174554 -0.140642
C138  C     C_R   0.148368 0.024771 0.173540 -0.133908
C139  C     C_R   0.754917 0.473370 0.701519 -0.153726
C140  C     C_R   0.752856 0.527158 0.701298 -0.153099
C141  C     C_R   0.249848 0.109392 0.000828 0.792490
C142  C     C_R   0.250267 0.890631 0.998657 0.791216
C143  C     C_R   0.750119 0.609407 0.500067 0.794921
C144  C     C_R   0.750157 0.390605 0.500725 0.804052
C145  C     C_R   0.249863 0.391361 0.999853 0.746396
C146  C     C_R   0.249850 0.608622 0.999948 0.729328
C147  C     C_R   0.749781 0.891372 0.500045 0.759262
C148  C     C_R   0.749710 0.108636 0.500133 0.731411
C149  C     C_3   0.180262 0.469919 0.037823 -0.389457
C150  C     C_3   0.251731 0.529837 0.920145 -0.384937
C151  C     C_3   0.179911 0.529821 0.037295 -0.424673
C152  C     C_3   0.250964 0.470366 0.920039 -0.376322
C153  C     C_3   0.749416 0.970174 0.579831 -0.381760
C154  C     C_3   0.680975 0.029990 0.460533 -0.392088
C155  C     C_3   0.748974 0.029634 0.579897 -0.379691
C156  C     C_3   0.680978 0.970095 0.460552 -0.390605
C157  C     C_3   0.317748 0.469991 0.040199 -0.404263
C158  C     C_3   0.317427 0.529853 0.040794 -0.389675
C159  C     C_3   0.818449 0.970169 0.461054 -0.398367
C160  C     C_3   0.818502 0.030044 0.461301 -0.392188
C161  C     C_3   0.249702 0.449096 0.999475 0.198060
C162  C     C_3   0.249699 0.550855 0.999616 0.211622
C163  C     C_3   0.749609 0.949133 0.500334 0.186380
C164  C     C_3   0.749522 0.050890 0.500455 0.194627
C165  C     C_R   0.087834 0.162186 0.771110 -0.266316
C166  C     C_R   0.138198 0.792299 0.280276 -0.284200
C167  C     C_R   0.019250 0.663467 0.841171 -0.230175
C168  C     C_R   0.013926 0.335413 0.154647 -0.263042
C169  C     C_R   0.607470 0.672086 0.248411 -0.244112
C170  C     C_R   0.492355 0.180027 0.632578 -0.288228
C171  C     C_R   0.522578 0.160167 0.335844 -0.238099
C172  C     C_R   0.511098 0.833320 0.652091 -0.309144
C173  C     C_R   0.078511 0.118051 0.727596 0.608565
C174  C     C_R   0.153643 0.812709 0.349383 0.594351
C175  C     C_R   0.978522 0.618481 0.830619 0.594168
C176  C     C_R   0.969939 0.379104 0.162333 0.605290
C177  C     C_R   0.607768 0.633813 0.194351 0.624312
C178  C     C_R   0.435226 0.143617 0.627880 0.608571
C179  C     C_R   0.483858 0.114582 0.322746 0.617010
C180  C     C_R   0.458362 0.872477 0.651654 0.602683
H1    H     H_    0.178117 0.455800 0.095240 0.180903
H2    H     H_    0.301709 0.543808 0.891756 0.179596
H3    H     H_    0.176482 0.544298 0.094401 0.177969
H4    H     H_    0.300099 0.455937 0.890750 0.177320
H5    H     H_    0.798497 0.956132 0.609656 0.183327
H6    H     H_    0.679701 0.044349 0.403193 0.196962
H7    H     H_    0.797569 0.043943 0.610201 0.183282
H8    H     H_    0.679696 0.955919 0.403204 0.188015
H9    H     H_    0.361849 0.838390 0.196074 0.144390
H10   H     H_    0.476021 0.312786 0.920280 0.130494
H11   H     H_    0.435952 0.341858 0.120819 0.146611
H12   H     H_    0.450005 0.665380 0.895105 0.135521
H13   H     H_    0.862695 0.338312 0.691694 0.147082
H14   H     H_    0.817707 0.704604 0.261207 0.138282
H15   H     H_    0.942580 0.837264 0.610806 0.139345
H16   H     H_    0.946792 0.164393 0.391893 0.138750
H17   H     H_    0.881270 0.416265 0.761608 0.162720
H18   H     H_    0.791783 0.665737 0.144118 0.181969
H19   H     H_    0.013250 0.915097 0.627609 0.160284
H20   H     H_    0.038247 0.097039 0.393933 0.156892
H21   H     H_    0.367102 0.908157 0.284274 0.173956
H22   H     H_    0.573582 0.376125 0.927233 0.154718
H23   H     H_    0.511559 0.417477 0.136774 0.155741
H24   H     H_    0.535768 0.594271 0.890626 0.150644
H25   H     H_    0.120649 0.044872 0.216997 0.146933
H26   H     H_    0.127564 0.949765 0.219373 0.146941
H27   H     H_    0.753005 0.548136 0.752414 0.129660
H28   H     H_    0.756167 0.452520 0.752835 0.134782
H29   H     H_    0.311538 0.096824 0.876863 0.125993
H30   H     H_    0.327579 0.906246 0.881902 0.137504
H31   H     H_    0.763135 0.595690 0.363027 0.118652
H32   H     H_    0.756073 0.404236 0.363501 0.159051
H33   H     H_    0.377085 0.050670 0.782672 0.143947
H34   H     H_    0.387266 0.955873 0.786769 0.143436
H35   H     H_    0.773649 0.547421 0.249703 0.174872
H36   H     H_    0.765393 0.452113 0.249156 0.128828
H37   H     H_    0.130671 0.455246 0.009596 0.174163
H38   H     H_    0.203888 0.544367 0.888903 0.175442
H39   H     H_    0.130670 0.543921 0.007856 0.163198
H40   H     H_    0.202144 0.456536 0.889629 0.194708
H41   H     H_    0.700652 0.955759 0.609753 0.170474
H42   H     H_    0.630813 0.044333 0.487954 0.155209
H43   H     H_    0.699608 0.043594 0.609280 0.173440
H44   H     H_    0.630828 0.955583 0.487976 0.165775
H45   H     H_    0.189253 0.903299 0.122942 0.129965
H46   H     H_    0.179115 0.094141 0.120544 0.192506
H47   H     H_    0.758421 0.404504 0.638467 0.155433
H48   H     H_    0.751138 0.595861 0.637564 0.160670
H49   H     H_    0.318525 0.455392 0.097430 0.185387
H50   H     H_    0.368158 0.544610 0.014669 0.146214
H51   H     H_    0.317214 0.543744 0.098298 0.185872
H52   H     H_    0.368261 0.455856 0.013092 0.148130
H53   H     H_    0.868414 0.955620 0.488799 0.150882
H54   H     H_    0.820402 0.044493 0.404022 0.185396
H55   H     H_    0.868372 0.044378 0.489379 0.149036
H56   H     H_    0.820037 0.956100 0.403659 0.185608
H57   H     H_    0.978886 0.422049 0.851871 0.149163
H58   H     H_    0.885415 0.661294 0.048711 0.162576
H59   H     H_    0.102725 0.921610 0.726512 0.173950
H60   H     H_    0.144325 0.101199 0.312674 0.148795
H61   H     H_    0.448231 0.902399 0.390897 0.176322
H62   H     H_    0.653526 0.391728 0.821575 0.146116
H63   H     H_    0.614117 0.416623 0.223080 0.162009
H64   H     H_    0.634664 0.593303 0.800247 0.145908
H65   H     H_    0.129968 0.160649 0.812223 0.143485
H66   H     H_    0.181210 0.793730 0.239902 0.132814
H67   H     H_    0.056401 0.663646 0.886965 0.156328
H68   H     H_    0.053433 0.335963 0.111137 0.127051
H69   H     H_    0.651798 0.671669 0.287436 0.125980
H70   H     H_    0.532108 0.181484 0.589150 0.117153
H71   H     H_    0.560954 0.159404 0.380653 0.135733
H72   H     H_    0.554671 0.836350 0.612634 0.151720
H73   H     H_    0.545101 0.601632 0.104230 0.137229
H74   H     H_    0.336031 0.117242 0.677485 0.145374
H75   H     H_    0.397084 0.080707 0.258091 0.150306
H76   H     H_    0.356299 0.897484 0.696694 0.150294
H77   H     H_    0.015587 0.083503 0.641690 0.152010
H78   H     H_    0.109746 0.831675 0.454779 0.161358
H79   H     H_    0.895073 0.582123 0.765967 0.154873
H80   H     H_    0.882355 0.413438 0.223683 0.144698
H81   H     H_    0.453353 0.667261 0.104759 0.148006
H82   H     H_    0.340964 0.176758 0.779489 0.131674
H83   H     H_    0.376927 0.155840 0.184241 0.168324
H84   H     H_    0.351891 0.829906 0.789008 0.130098
H85   H     H_    0.940637 0.158981 0.620592 0.154232
H86   H     H_    0.989849 0.796546 0.429975 0.150117
H87   H     H_    0.878780 0.655127 0.685018 0.160522
H88   H     H_    0.870701 0.342116 0.308438 0.151389
O1    O     O_3   0.249990 0.250010 0.000000 -0.492133
O2    O     O_3   0.249990 0.749990 0.000000 -0.493578
O3    O     O_3   0.749990 0.750010 0.500000 -0.490256
O4    O     O_3   0.749990 0.249990 0.500000 -0.490498
O5    O     O_R   0.335430 0.280650 0.146160 -0.646020
O6    O     O_R   0.335430 0.719350 0.853840 -0.641167
O7    O     O_R   0.335430 0.719350 0.146160 -0.647583
O8    O     O_R   0.335430 0.280650 0.853840 -0.641231
O9    O     O_R   0.835430 0.780650 0.646160 -0.641467
O10   O     O_R   0.835430 0.219350 0.353840 -0.642414
O11   O     O_R   0.835430 0.219350 0.646160 -0.635416
O12   O     O_R   0.835430 0.780650 0.353840 -0.643988
O13   O     O_R   0.164550 0.280640 0.853840 -0.587189
O14   O     O_R   0.164550 0.719360 0.146160 -0.653209
O15   O     O_R   0.164550 0.719360 0.853840 -0.663775
O16   O     O_R   0.164550 0.280640 0.146160 -0.644669
O17   O     O_R   0.664550 0.780640 0.353840 -0.625831
O18   O     O_R   0.664550 0.219360 0.646160 -0.645532
O19   O     O_R   0.664550 0.219360 0.353840 -0.652496
O20   O     O_R   0.664550 0.780640 0.646160 -0.647412
O21   O     O_R   0.396160 0.219380 0.914560 -0.639334
O22   O     O_R   0.396160 0.780620 0.085440 -0.633270
O23   O     O_R   0.396160 0.780620 0.914560 -0.637110
O24   O     O_R   0.396160 0.219380 0.085440 -0.633357
O25   O     O_R   0.896160 0.719380 0.414560 -0.636976
O26   O     O_R   0.896160 0.280620 0.585440 -0.636559
O27   O     O_R   0.896160 0.280620 0.414560 -0.635957
O28   O     O_R   0.896160 0.719380 0.585440 -0.640439
O29   O     O_R   0.103840 0.219370 0.085450 -0.622431
O30   O     O_R   0.103840 0.780630 0.914550 -0.560420
O31   O     O_R   0.103840 0.780630 0.085450 -0.609397
O32   O     O_R   0.103840 0.219370 0.914550 -0.655918
O33   O     O_R   0.603840 0.719370 0.585450 -0.616695
O34   O     O_R   0.603840 0.280630 0.414550 -0.606299
O35   O     O_R   0.603840 0.280630 0.585450 -0.623735
O36   O     O_R   0.603840 0.719370 0.414550 -0.643056
O37   O     O_R   0.310730 0.133160 0.000000 -0.643304
O38   O     O_R   0.310730 0.866840 0.000000 -0.657788
O39   O     O_R   0.810730 0.633160 0.500000 -0.645415
O40   O     O_R   0.810730 0.366840 0.500000 -0.642121
O41   O     O_R   0.249970 0.366860 0.060720 -0.657743
O42   O     O_R   0.249970 0.633140 0.939280 -0.650658
O43   O     O_R   0.249970 0.633140 0.060720 -0.647153
O44   O     O_R   0.249970 0.366860 0.939280 -0.621278
O45   O     O_R   0.749970 0.866860 0.560720 -0.653839
O46   O     O_R   0.749970 0.133140 0.439280 -0.647986
O47   O     O_R   0.749970 0.133140 0.560720 -0.654084
O48   O     O_R   0.749970 0.866860 0.439280 -0.634145
O49   O     O_R   0.189290 0.133150 0.000000 -0.633329
O50   O     O_R   0.189290 0.866850 0.000000 -0.612769
O51   O     O_R   0.689290 0.633150 0.500000 -0.620596
O52   O     O_R   0.689290 0.366850 0.500000 -0.623766
Zn1   Zn    Zn3+2 0.249990 0.293780 0.913250 0.988220
Zn2   Zn    Zn3+2 0.249990 0.706220 0.086750 0.949833
Zn3   Zn    Zn3+2 0.249990 0.706220 0.913250 0.954997
Zn4   Zn    Zn3+2 0.249990 0.293780 0.086750 0.957568
Zn5   Zn    Zn3+2 0.749990 0.793780 0.413250 0.982910
Zn6   Zn    Zn3+2 0.749990 0.206220 0.586750 0.963933
Zn7   Zn    Zn3+2 0.749990 0.206220 0.413250 0.953108
Zn8   Zn    Zn3+2 0.749990 0.793780 0.586750 0.967271
Zn9   Zn    Zn3+2 0.336760 0.206240 0.000000 0.965021
Zn10  Zn    Zn3+2 0.336760 0.793760 0.000000 0.953913
Zn11  Zn    Zn3+2 0.836760 0.706240 0.500000 0.960430
Zn12  Zn    Zn3+2 0.836760 0.293760 0.500000 0.977659
Zn13  Zn    Zn3+2 0.163250 0.206230 0.000000 0.990846
Zn14  Zn    Zn3+2 0.163250 0.793770 0.000000 1.039674
Zn15  Zn    Zn3+2 0.663250 0.706230 0.500000 1.006698
Zn16  Zn    Zn3+2 0.663250 0.293770 0.500000 1.009996
O53   O     O_3   0.073133 0.350671 0.885087 -0.613510
C181  C     C_3   0.045408 0.351107 0.956800 -0.330881
H89   H     H_    0.013664 0.315356 0.969034 0.156211
H90   H     H_    0.011927 0.386188 0.967171 0.197002
H91   H     H_    0.092413 0.352302 0.994732 0.174179
O54   O     O_3   0.019146 0.694986 0.057306 -0.620099
C182  C     C_3   0.045695 0.643721 0.055408 -0.341411
H92   H     H_    0.003193 0.616372 0.035828 0.189799
H93   H     H_    0.066939 0.631158 0.109620 0.157473
H94   H     H_    0.091766 0.642088 0.016282 0.181147
O55   O     O_3   0.133698 0.851188 0.822786 -0.592154
C183  C     C_3   0.205392 0.847868 0.795922 -0.348436
H95   H     H_    0.220956 0.884013 0.766776 0.167654
H96   H     H_    0.213625 0.813499 0.760086 0.149544
H97   H     H_    0.242009 0.843139 0.843519 0.165720
O56   O     O_3   0.170953 0.171765 0.213941 -0.658263
C184  C     C_3   0.228443 0.192199 0.256133 -0.316939
H98   H     H_    0.248894 0.162975 0.295800 0.172082
H99   H     H_    0.212670 0.228541 0.284864 0.175065
H100  H     H_    0.273636 0.202269 0.218928 0.190012
O57   O     O_3   0.531767 0.824384 0.424431 -0.631645
C185  C     C_3   0.484460 0.798211 0.472902 -0.303831
H101  H     H_    0.457575 0.763878 0.447632 0.148915
H102  H     H_    0.442630 0.825217 0.494693 0.192015
H103  H     H_    0.516866 0.783134 0.518978 0.195357
O58   O     O_3   0.641271 0.348144 0.693647 -0.650395
C186  C     C_3   0.597208 0.386989 0.661622 -0.277247
H104  H     H_    0.595108 0.422204 0.696496 0.157900
H105  H     H_    0.541030 0.372730 0.650163 0.169298
H106  H     H_    0.620977 0.398644 0.608690 0.215096
O59   O     O_3   0.655380 0.339440 0.303706 -0.629400
C187  C     C_3   0.714317 0.321467 0.261238 -0.365448
H107  H     H_    0.735916 0.353172 0.226272 0.166784
H108  H     H_    0.700220 0.287164 0.227094 0.173661
H109  H     H_    0.757796 0.308711 0.298975 0.183433
O60   O     O_3   0.662527 0.664244 0.703095 -0.637469
C188  C     C_3   0.725077 0.682308 0.739824 -0.360662
H110  H     H_    0.747442 0.651769 0.776340 0.164200
H111  H     H_    0.714763 0.718566 0.771159 0.178632
H112  H     H_    0.766639 0.691777 0.698218 0.182895
O61   O     O_3   0.118242 0.073346 0.739864 -0.602322
C189  C     C_3   0.191738 0.082045 0.720897 -0.334236
H113  H     H_    0.219010 0.107860 0.760959 0.145498
H114  H     H_    0.197023 0.098026 0.664574 0.163202
H115  H     H_    0.220865 0.044412 0.722057 0.208662
O62   O     O_3   0.221152 0.833701 0.364868 -0.615776
C190  C     C_3   0.271256 0.792921 0.375299 -0.314293
H116  H     H_    0.283311 0.772935 0.322914 0.172253
H117  H     H_    0.251653 0.764616 0.416914 0.160132
H118  H     H_    0.323088 0.809361 0.396002 0.201179
O63   O     O_3   0.985495 0.577780 0.879158 -0.627792
C191  C     C_3   0.029373 0.539344 0.846804 -0.362391
H119  H     H_    0.082845 0.555245 0.828634 0.163721
H120  H     H_    0.000699 0.520675 0.800236 0.177112
H121  H     H_    0.040739 0.508953 0.888184 0.195636
O64   O     O_3   0.975736 0.418949 0.112107 -0.631957
C192  C     C_3   0.006109 0.462676 0.146669 -0.362113
H122  H     H_    0.058691 0.453193 0.174023 0.165274
H123  H     H_    0.967248 0.479924 0.186366 0.173167
H124  H     H_    0.017697 0.492454 0.104462 0.197654
O65   O     O_3   0.664184 0.597799 0.195464 -0.629855
C193  C     C_3   0.682871 0.580353 0.124765 -0.402359
H125  H     H_    0.683901 0.612401 0.083940 0.165273
H126  H     H_    0.645487 0.548889 0.107297 0.180237
H127  H     H_    0.738602 0.563804 0.126447 0.189454
O66   O     O_3   0.426334 0.109791 0.569523 -0.605312
C194  C     C_3   0.493372 0.089218 0.545362 -0.277056
H128  H     H_    0.529683 0.077997 0.591540 0.119960
H129  H     H_    0.521210 0.116750 0.507969 0.173190
H130  H     H_    0.481928 0.053717 0.513456 0.232553
O67   O     O_3   0.496180 0.072686 0.368860 -0.636949
C195  C     C_3   0.499515 0.025633 0.329884 -0.350677
H131  H     H_    0.530978 0.029343 0.278070 0.169527
H132  H     H_    0.443857 0.010489 0.319287 0.177784
H133  H     H_    0.528042 0.996599 0.364290 0.196775
O68   O     O_3   0.460407 0.911887 0.600536 -0.608576
C196  C     C_3   0.518006 0.945819 0.618091 -0.324578
H134  H     H_    0.571887 0.926270 0.615134 0.153863
H135  H     H_    0.509870 0.963457 0.672936 0.163745
H136  H     H_    0.518896 0.977543 0.577393 0.185774

loop_
_geom_bond_atom_site_label_1
_geom_bond_atom_site_label_2
_ccdc_geom_bond_type
O23   Zn10  S    
C133  C137  A    
O57   C185  S    
C12   H76   S    
C55   C59   A    
C90   O14   A    
C186  H105  S    
C159  H56   S    
C136  C140  A    
C178  O66   S    
C79   C87   A    
O53   C181  S    
C179  O67   S    
O1    Zn1   S    
O31   Zn14  S    
C65   C89   S    
C196  H134  S    
C170  C178  A    
C194  H129  S    
C133  H45   S    
C18   H82   S    
C69   C93   S    
O29   Zn13  S    
O46   Zn7   S    
C64   C112  A    
C71   C95   S    
C8    O25   A    
C146  O42   A    
O44   Zn1   S    
C29   C33   A    
C36   C168  A    
O60   C188  S    
C62   C70   A    
C185  H103  S    
C169  H69   S    
C143  O51   A    
C4    O21   A    
C39   C171  A    
C144  O52   A    
C8    O12   A    
C74   H10   S    
C111  O59   S    
C113  C122  A    
C94   O18   A    
C97   C105  A    
C84   H24   S    
C136  H48   S    
C196  H135  S    
O4    Zn6   S    
C160  H54   S    
C130  C134  A    
C7    O11   A    
C41   C49   A    
C187  H107  S    
C184  H99   S    
C138  H25   S    
O3    Zn5   S    
O1    Zn13  S    
C166  C174  A    
C5    C47   S    
C66   C90   S    
C188  H112  S    
C25   C41   A    
C82   H22   S    
O54   C182  S    
C26   C38   A    
O51   Zn15  S    
O42   Zn3   S    
C20   C28   A    
C21   C29   A    
C28   C44   A    
C29   C45   A    
C4    O8    A    
C154  H42   S    
C13   C173  A    
C24   C32   A    
C143  O39   A    
C2    O6    A    
C22   H86   S    
O56   C184  S    
C12   C20   A    
O2    Zn2   S    
C105  O53   S    
O33   Zn15  S    
C149  H37   S    
O27   Zn12  S    
C7    C45   S    
C117  H33   S    
C86   H18   S    
C129  C133  A    
C195  H132  S    
C106  O54   S    
C49   C73   A    
C11   C179  A    
O63   C191  S    
C6    O10   A    
C140  H27   S    
O2    Zn10  S    
O10   Zn7   S    
C9    C177  A    
O5    Zn4   S    
C9    H73   S    
C158  H51   S    
C139  C140  A    
C36   C68   A    
C97   H57   S    
C192  H122  S    
C126  C141  S    
C98   C106  A    
C92   O29   A    
C17   C25   A    
C80   C88   A    
C155  H7    S    
C20   H84   S    
C145  C161  S    
C10   C18   A    
C23   H87   S    
C183  H95   S    
C68   C92   S    
C61   C69   A    
O2    Zn14  S    
C63   C111  A    
C127  C131  A    
C85   C97   A    
O47   Zn6   S    
C148  O46   A    
C72   C96   S    
C125  C129  A    
C14   C174  A    
C28   C40   A    
C189  H113  S    
C187  H109  S    
C177  O65   S    
O3    Zn11  S    
C116  C123  A    
C171  H71   S    
C155  H43   S    
C112  O60   S    
C75   C83   A    
C34   C66   A    
C157  H49   S    
C123  C124  A    
C81   C101  A    
C154  H6    S    
C142  O38   A    
C83   C103  A    
C153  C163  S    
C32   C36   A    
C154  C164  S    
O68   C196  S    
O39   Zn11  S    
C149  C151  S    
C37   C169  A    
C16   H80   S    
C167  H67   S    
O58   C186  S    
C79   H15   S    
C13   H77   S    
C77   H13   S    
C59   C67   A    
C1    C43   S    
C110  O58   S    
C2    C44   S    
C191  H119  S    
C91   O15   A    
C102  H62   S    
C152  C161  S    
C132  C136  A    
C44   C52   A    
O25   Zn11  S    
C77   C85   A    
C147  O45   A    
C171  C179  A    
C169  C177  A    
O12   Zn5   S    
O17   Zn5   S    
C137  H26   S    
C192  H124  S    
C100  C108  A    
C30   C34   A    
O9    Zn8   S    
C142  O50   A    
O13   Zn1   S    
C5    O28   A    
C104  C112  A    
C6    O27   A    
C91   O30   A    
O6    Zn3   S    
C183  H97   S    
C59   C107  A    
C116  C120  A    
C75   H11   S    
C121  C125  A    
C76   H12   S    
C27   C43   A    
C180  O68   S    
C37   C69   A    
C123  C127  A    
C35   C67   A    
C186  H104  S    
C82   C102  A    
C185  H102  S    
C42   C50   A    
C113  C117  A    
C12   C180  A    
O1    Zn9   S    
O30   Zn14  S    
C181  H90   S    
C182  H93   S    
C84   C104  A    
C186  H106  S    
C193  H126  S    
C26   C42   A    
C167  C175  A    
O66   C194  S    
C168  C176  A    
C39   C71   A    
C40   C72   A    
C30   C46   A    
C33   C165  A    
C52   C76   A    
C3    O7    A    
C181  H91   S    
C115  C119  A    
C56   C80   A    
C115  H31   S    
C156  H44   S    
C14   C22   A    
C190  H118  S    
C113  H29   S    
C92   O16   A    
C147  C163  S    
C117  C118  A    
C93   O17   A    
C145  O44   A    
C16   C176  A    
C4    C42   S    
C146  O43   A    
C191  H121  S    
C95   O19   A    
C100  H60   S    
C159  C163  S    
C108  O56   S    
C8    C46   S    
C3    O22   A    
C38   C70   A    
O62   C190  S    
C159  H53   S    
C93   O36   A    
O65   C193  S    
C18   C26   A    
C87   H19   S    
C94   O35   A    
C76   C84   A    
C187  H108  S    
C184  H98   S    
C15   H79   S    
C150  H2    S    
O26   Zn12  S    
O3    Zn8   S    
C146  C162  S    
C11   C19   A    
C160  C164  S    
O32   Zn13  S    
C70   C94   S    
C129  C130  A    
C188  H111  S    
C126  C130  A    
C101  C109  A    
C170  H70   S    
C103  C111  A    
C78   H14   S    
C73   C81   A    
O41   Zn4   S    
C114  C121  A    
C157  C158  S    
O3    Zn15  S    
O59   C187  S    
C156  C163  S    
C11   H75   S    
O2    Zn3   S    
C153  C155  S    
C22   C30   A    
C154  C156  S    
C60   C108  A    
C124  C128  A    
C99   H59   S    
C172  C180  A    
O19   Zn7   S    
C31   C47   A    
C24   H88   S    
C149  H1    S    
C32   C48   A    
O11   Zn6   S    
O4    Zn7   S    
O35   Zn16  S    
C74   C82   A    
C107  O55   S    
C7    O26   A    
C38   C170  A    
C156  H8    S    
C150  C162  S    
C49   C61   A    
C194  H130  S    
C51   C63   A    
C83   H23   S    
C52   C64   A    
C175  O63   S    
O55   C183  S    
C53   C57   A    
C81   H21   S    
C56   C60   A    
O4    Zn16  S    
C53   C77   A    
C153  H41   S    
C55   C79   A    
C159  C160  S    
C151  C162  S    
C46   C54   A    
C183  H96   S    
C118  H34   S    
C151  H3    S    
C121  C122  A    
C88   C100  A    
C135  H47   S    
C85   H17   S    
C196  H136  S    
C14   H78   S    
C31   C35   A    
C102  C110  A    
C149  C161  S    
C189  H114  S    
C131  C132  A    
C157  C161  S    
C40   C172  A    
C184  H100  S    
C115  C124  A    
C10   H74   S    
O50   Zn14  S    
C57   C65   A    
O64   C192  S    
C119  C120  A    
C98   H58   S    
C99   C107  A    
C135  C139  A    
C89   O13   A    
C88   H20   S    
C189  H115  S    
C50   C74   A    
C116  H32   S    
O34   Zn16  S    
C43   C51   A    
O14   Zn2   S    
C109  O57   S    
C141  O37   A    
C96   O20   A    
C176  O64   S    
C127  C144  S    
C17   H81   S    
C86   C98   A    
C128  C143  S    
O24   Zn9   S    
C166  H66   S    
C19   H83   S    
C145  O41   A    
C195  H131  S    
C60   C68   A    
C191  H120  S    
C34   C166  A    
C174  O62   S    
C73   H9    S    
C144  O40   A    
C89   O32   A    
C23   C31   A    
C54   C78   A    
O1    Zn4   S    
C90   O31   A    
C57   C105  A    
C182  H92   S    
C119  H35   S    
C147  O48   A    
C194  H128  S    
C61   C109  A    
C158  H50   S    
C33   C65   A    
O20   Zn8   S    
C192  H123  S    
C6    C48   S    
C134  H46   S    
O36   Zn15  S    
O16   Zn4   S    
C51   C75   A    
C131  C135  A    
O38   Zn10  S    
C165  C173  A    
C141  O49   A    
O7    Zn2   S    
C25   C37   A    
C58   C66   A    
O49   Zn13  S    
C160  H55   S    
C35   C167  A    
O67   C195  S    
C152  H4    S    
C101  H61   S    
C1    O5    A    
C21   H85   S    
C78   C86   A    
C15   C23   A    
C16   C24   A    
O52   Zn16  S    
C193  H127  S    
C128  C132  A    
C67   C91   S    
O18   Zn6   S    
C87   C99   A    
C148  C164  S    
C13   C21   A    
C10   C178  A    
O8    Zn1   S    
C165  H65   S    
C27   C39   A    
C104  H64   S    
C172  H72   S    
C1    O24   A    
C58   C106  A    
C2    O23   A    
C122  C126  A    
C190  H117  S    
C103  H63   S    
C62   C110  A    
C195  H133  S    
C125  C142  S    
C150  H38   S    
O61   C189  S    
C114  C118  A    
C9    C17   A    
C168  H68   S    
O22   Zn10  S    
C50   C62   A    
C150  C152  S    
C96   O33   A    
O43   Zn2   S    
C19   C27   A    
C47   C55   A    
C54   C58   A    
O21   Zn9   S    
C48   C56   A    
C3    C41   S    
C173  O61   S    
O4    Zn12  S    
C63   C71   A    
O40   Zn12  S    
C134  C138  A    
C155  C164  S    
C120  H36   S    
C137  C138  A    
O28   Zn11  S    
C15   C175  A    
C80   H16   S    
C114  H30   S    
C188  H110  S    
C148  O47   A    
C153  H5    S    
O48   Zn5   S    
C152  H40   S    
C95   O34   A    
C151  H39   S    
C64   C72   A    
O45   Zn8   S    
C185  H101  S    
O15   Zn3   S    
C139  H28   S    
C158  C162  S    
C45   C53   A    
C181  H89   S    
C182  H94   S    
C5    O9    A    
C193  H125  S    
O37   Zn9   S    
C190  H116  S    
C157  H52   S    
