data_mof_unit_66249.cif
_audit_creation_date              2012-10-26T19:34:59-0400
_audit_creation_method            fapswitch 2.2
_symmetry_space_group_name_H-M    P1
_symmetry_Int_Tables_number       1
_space_group_crystal_system       triclinic
_cell_length_a                    13.903688
_cell_length_b                    18.15586
_cell_length_c                    19.383009
_cell_angle_alpha                 90.913166
_cell_angle_beta                  90.910828
_cell_angle_gamma                 85.209721
_cell_volume                      4874.68817384

loop_
_atom_site_label
_atom_site_type_symbol
_atom_type_description
_atom_site_fract_x
_atom_site_fract_y
_atom_site_fract_z
_atom_type_partial_charge
C1    C     C_R   0.497067 0.500811 0.632402 0.558790
C2    C     C_R   0.424220 0.473706 0.036452 -0.077499
C3    C     C_R   0.496692 0.500352 0.927932 0.013509
C4    C     C_R   0.503305 0.499685 0.072062 0.013507
C5    C     C_R   0.561348 0.277265 0.544346 0.061900
C6    C     C_R   0.438646 0.722735 0.455658 0.061886
C7    C     C_R   0.564718 0.199498 0.546836 0.249779
C8    C     C_R   0.435276 0.800503 0.453168 0.249778
C9    C     C_R   0.504301 0.160843 0.502615 0.010452
C10   C     C_R   0.495700 0.839157 0.497385 0.010453
C11   C     C_R   0.441604 0.202101 0.457976 -0.113397
C12   C     C_R   0.502936 0.499188 0.367596 0.558789
C13   C     C_R   0.558403 0.797898 0.542020 -0.113405
C14   C     C_R   0.440360 0.279469 0.456958 0.387238
C15   C     C_R   0.559644 0.720531 0.543038 0.387237
C16   C     C_R   0.683050 0.488279 0.499898 0.564131
C17   C     C_R   0.316950 0.511721 0.500102 0.564151
C18   C     C_R   0.422422 0.045577 0.525601 -0.089993
C19   C     C_R   0.577578 0.954423 0.474400 -0.089999
C20   C     C_R   0.418274 0.968354 0.523984 0.292447
C21   C     C_R   0.581727 0.031646 0.476017 0.292445
C22   C     C_R   0.496011 0.921764 0.497730 0.020556
C23   C     C_R   0.562370 0.441440 0.255445 0.121971
C24   C     C_R   0.503989 0.078236 0.502271 0.020557
C25   C     C_1   0.214193 0.518718 0.501048 0.049709
C26   C     C_1   0.785807 0.481283 0.498956 0.049692
C27   C     C_2   0.024241 0.530401 0.503273 0.096820
C28   C     C_2   0.975758 0.469607 0.496740 0.096810
C29   C     C_1   0.872383 0.475464 0.497958 0.034935
C30   C     C_1   0.127616 0.524539 0.502050 0.034944
C31   C     C_R   0.452312 0.553369 0.255873 -0.130493
C32   C     C_R   0.547817 0.446703 0.744129 -0.130455
C33   C     C_R   0.451666 0.553409 0.184236 -0.118456
C34   C     C_R   0.437509 0.558502 0.744539 0.121922
C35   C     C_R   0.548467 0.446678 0.815766 -0.118510
C36   C     C_R   0.505589 0.497916 0.147598 0.034433
C37   C     C_R   0.494414 0.502111 0.852396 0.034427
C38   C     C_R   0.561000 0.441601 0.182830 0.290566
C39   C     C_R   0.438879 0.558354 0.817153 0.290652
C40   C     C_R   0.506378 0.497497 0.292023 -0.014194
C41   C     C_R   0.493625 0.502504 0.707973 -0.014150
C42   C     C_R   0.579387 0.526343 0.035463 0.285377
C43   C     C_R   0.420612 0.473692 0.964531 0.285445
C44   C     C_R   0.575779 0.526328 0.963543 -0.077581
Cl1   Cl    Cl    0.360194 0.326414 0.398562 -0.482171
Cl2   Cl    Cl    0.357397 0.847158 0.392859 -0.461470
Cl3   Cl    Cl    0.639811 0.673585 0.601434 -0.482185
Cl4   Cl    Cl    0.315916 0.931665 0.557723 -0.424226
Cl5   Cl    Cl    0.684086 0.068335 0.442281 -0.424235
Cl6   Cl    Cl    0.627858 0.371319 0.135470 -0.430958
Cl7   Cl    Cl    0.371876 0.628567 0.864497 -0.430892
Cl8   Cl    Cl    0.679325 0.560700 0.078287 -0.448414
Cl9   Cl    Cl    0.320683 0.439326 0.921709 -0.448321
Cl10  Cl    Cl    0.642587 0.152843 0.607151 -0.461458
Cu1   Cu    Cu3+1 0.500030 0.426640 0.500000 1.075420
Cu2   Cu    Cu3+1 0.499970 0.573360 0.500000 1.075412
H1    H     H_    0.394001 0.174107 0.423495 0.174290
H2    H     H_    0.365759 0.452975 0.064720 0.177244
H3    H     H_    0.607795 0.306607 0.578444 0.161181
H4    H     H_    0.392195 0.693394 0.421563 0.161173
H5    H     H_    0.606010 0.825892 0.576498 0.174288
H6    H     H_    0.361884 0.080393 0.545732 0.175068
H7    H     H_    0.638116 0.919607 0.454269 0.175065
H8    H     H_    0.409348 0.596677 0.283228 0.157762
H9    H     H_    0.590882 0.403444 0.716779 0.157722
H10   H     H_    0.409027 0.596844 0.157155 0.170065
H11   H     H_    0.591208 0.403301 0.842856 0.170045
H12   H     H_    0.634243 0.547059 0.935274 0.177230
I1    I     I_    0.045628 0.361550 0.484041 -0.146215
I2    I     I_    0.954370 0.638458 0.515971 -0.146189
I3    I     I_    0.655374 0.359720 0.307860 -0.057929
I4    I     I_    0.344357 0.640108 0.692097 -0.058068
N1    N     N_R   0.500010 0.316380 0.499980 -0.253061
N2    N     N_R   0.499990 0.683620 0.500020 -0.253058
O1    O     O_R   0.500040 0.438020 0.599820 -0.523100
O2    O     O_R   0.499960 0.561980 0.400180 -0.523122
O3    O     O_R   0.500000 0.561930 0.599810 -0.438068
O4    O     O_R   0.500000 0.438070 0.400190 -0.438071
O5    O     O_R   0.637870 0.429290 0.499990 -0.508131
O6    O     O_R   0.362130 0.570710 0.500010 -0.508118
O7    O     O_R   0.637830 0.553200 0.499980 -0.445840
O8    O     O_R   0.362170 0.446800 0.500020 -0.445840

loop_
_geom_bond_atom_site_label_1
_geom_bond_atom_site_label_2
_ccdc_geom_bond_type
C39   Cl7   S    
Cu1   Cu2   S    
C4    C36   S    
Cu2   O2    S    
C1    O3    A    
C28   I1    S    
C15   Cl3   S    
C21   Cl5   S    
Cu2   O7    S    
C10   C22   S    
C3    C43   A    
C18   C24   A    
C28   C29   S    
C35   C37   A    
C11   C14   A    
C23   C40   A    
C33   C36   A    
C31   C40   A    
C17   O8    A    
C43   Cl9   S    
C19   H7    S    
C12   O4    A    
C32   C41   A    
C31   C33   A    
Cu1   O1    S    
C27   C30   S    
C34   C41   A    
C42   C44   A    
C33   H10   S    
C6    N2    A    
C14   Cl1   S    
C16   C26   S    
C3    C44   A    
Cu2   N2    S    
C5    H3    S    
C34   C39   A    
C1    O1    A    
C32   C35   A    
C23   I3    S    
C19   C22   A    
C5    C7    A    
Cu1   O4    S    
C18   H6    S    
C6    C8    A    
C17   O6    A    
Cu2   O3    S    
C12   C40   S    
C2    C4    A    
C14   N1    A    
C6    H4    S    
Cu1   O5    S    
C35   H11   S    
C2    C43   A    
Cu1   O8    S    
C9    C11   A    
C20   Cl4   S    
C27   I2    S    
C1    C41   S    
C20   C22   A    
C13   C15   A    
C44   H12   S    
C34   I4    S    
C25   C30   T    
C7    C9    A    
C19   C21   A    
C31   H8    S    
C10   C13   A    
C2    H2    S    
C9    C24   S    
C38   Cl6   S    
C23   C38   A    
Cu2   O6    S    
C16   O5    A    
C17   C25   S    
C12   O2    A    
C37   C39   A    
C4    C42   A    
C36   C38   A    
C16   O7    A    
C18   C20   A    
C5    N1    A    
C8    Cl2   S    
Cu1   N1    S    
C15   N2    A    
C13   H5    S    
C3    C37   S    
C26   C29   T    
C8    C10   A    
C21   C24   A    
C27   C28   D    
C7    Cl10  S    
C11   H1    S    
C42   Cl8   S    
C32   H9    S    
