data_mof_unit_11349.cif
_audit_creation_date              2012-12-10T19:06:49-0500
_audit_creation_method            fapswitch 2.2
_symmetry_space_group_name_H-M    P1
_symmetry_Int_Tables_number       1
_space_group_crystal_system       triclinic
_cell_length_a                    13.037691
_cell_length_b                    13.659525
_cell_length_c                    15.637545
_cell_angle_alpha                 89.571684
_cell_angle_beta                  91.114546
_cell_angle_gamma                 94.234907
_cell_volume                      2776.68955148

loop_
_atom_site_label
_atom_site_type_symbol
_atom_type_description
_atom_site_fract_x
_atom_site_fract_y
_atom_site_fract_z
_atom_type_partial_charge
C1    C     C_R   0.481226 0.314970 0.500672 0.873729
C2    C     C_2   0.964429 0.467901 0.479947 0.137843
C3    C     C_1   0.852973 0.478437 0.484266 0.113410
C4    C     C_1   0.146992 0.521571 0.515072 0.125338
C5    C     C_R   0.485876 0.497378 0.343191 0.901672
C6    C     C_R   0.513216 0.495401 0.657018 0.910199
C7    C     C_R   0.475203 0.469009 0.251128 -0.256541
C8    C     C_R   0.517958 0.466913 0.749839 -0.248614
C9    C     C_R   0.563289 0.468587 0.198809 0.142035
C10   C     C_R   0.427364 0.454561 0.799759 0.139083
C11   C     C_R   0.558975 0.410037 0.125527 -0.271561
C12   C     C_R   0.518760 0.685077 0.499349 0.907398
C13   C     C_R   0.428846 0.398646 0.875329 -0.267921
C14   C     C_R   0.466716 0.362799 0.096126 -0.082106
C15   C     C_R   0.519760 0.364233 0.908175 -0.078324
C16   C     C_R   0.375286 0.380981 0.137327 0.416555
C17   C     C_R   0.612839 0.393639 0.868503 0.399089
C18   C     C_R   0.380124 0.424949 0.218579 0.336556
C19   C     C_R   0.611327 0.436099 0.786080 0.320939
C20   C     C_2   0.471838 0.273267 0.043286 0.213014
C21   C     C_2   0.511787 0.274879 0.963279 0.214160
C22   C     C_3   0.665252 0.521769 0.222556 -0.830600
C23   C     C_1   0.533923 0.787839 0.500306 -0.211696
C24   C     C_3   0.325926 0.492270 0.772010 -0.826495
C25   C     C_3   0.728824 0.356823 0.710082 0.141958
C26   C     C_3   0.844411 0.362409 0.694460 -0.321703
C27   C     C_3   0.875193 0.272853 0.646042 -0.964374
C28   C     C_3   0.283939 0.336531 0.318520 0.160264
C29   C     C_3   0.205092 0.258853 0.281496 -0.351865
C30   C     C_3   0.182955 0.174968 0.345082 -0.979671
C31   C     C_3   0.535909 0.180263 0.920539 -0.856294
C32   C     C_3   0.444821 0.176421 0.088388 -0.856240
C33   C     C_3   0.242805 0.414876 0.047302 0.070882
C34   C     C_1   0.465902 0.212338 0.499524 -0.224218
C35   C     C_3   0.170548 0.479258 0.093584 -0.302334
C36   C     C_3   0.124079 0.551324 0.031685 -1.003488
C37   C     C_3   0.744043 0.446450 0.959535 0.085368
C38   C     C_3   0.827836 0.512408 0.916054 -0.317210
C39   C     C_3   0.867091 0.596199 0.974839 -0.999575
C40   C     C_3   0.351648 0.963592 0.488729 -0.918767
C41   C     C_3   0.647829 0.036881 0.511171 -0.919466
C42   C     C_3   0.998104 0.381433 0.431186 -0.945100
C43   C     C_3   0.002036 0.618671 0.567945 -0.925022
C44   C     C_2   0.544811 0.978937 0.502780 0.195192
C45   C     C_2   0.454698 0.021370 0.497129 0.189819
C46   C     C_1   0.456657 0.125274 0.498310 0.007175
C47   C     C_1   0.542942 0.874970 0.501464 0.014700
C48   C     C_2   0.035558 0.532205 0.519071 0.125325
H1    H     H_    0.356885 0.373839 0.904283 0.163178
H2    H     H_    0.710372 0.294096 0.754599 0.139505
H3    H     H_    0.866901 0.429584 0.657041 0.229759
H4    H     H_    0.886669 0.367239 0.756872 0.220788
H5    H     H_    0.854598 0.204680 0.682975 0.265655
H6    H     H_    0.959582 0.279152 0.636376 0.268620
H7    H     H_    0.835821 0.268275 0.582386 0.271662
H8    H     H_    0.256470 0.358600 0.381823 0.189677
H9    H     H_    0.358858 0.303489 0.330445 0.093652
H10   H     H_    0.132307 0.292935 0.265309 0.236817
H11   H     H_    0.235191 0.227770 0.222516 0.257330
H12   H     H_    0.629708 0.393617 0.096127 0.164333
H13   H     H_    0.254717 0.139146 0.361126 0.272275
H14   H     H_    0.126262 0.119419 0.316396 0.274812
H15   H     H_    0.150564 0.202786 0.404610 0.268408
H16   H     H_    0.466177 0.128580 0.916843 0.233416
H17   H     H_    0.562712 0.193466 0.854154 0.228990
H18   H     H_    0.597842 0.145830 0.956980 0.245175
H19   H     H_    0.513013 0.132460 0.093011 0.233656
H20   H     H_    0.418770 0.187567 0.154602 0.233404
H21   H     H_    0.381507 0.134500 0.053032 0.244237
H22   H     H_    0.198497 0.374602 0.995486 0.161164
H23   H     H_    0.713764 0.534719 0.165310 0.217047
H24   H     H_    0.304192 0.462898 0.015724 0.119336
H25   H     H_    0.107898 0.432257 0.123799 0.232193
H26   H     H_    0.213919 0.522168 0.144226 0.249505
H27   H     H_    0.185751 0.597809 0.999767 0.269921
H28   H     H_    0.075941 0.599966 0.067573 0.276175
H29   H     H_    0.075632 0.510993 0.982356 0.274464
H30   H     H_    0.779391 0.412278 0.016523 0.155221
H31   H     H_    0.683590 0.492795 0.983457 0.121729
H32   H     H_    0.892714 0.468212 0.899291 0.217586
H33   H     H_    0.796830 0.544935 0.856703 0.261614
H34   H     H_    0.653326 0.594755 0.249935 0.236882
H35   H     H_    0.804724 0.645312 0.986746 0.271118
H36   H     H_    0.931802 0.639824 0.944256 0.278380
H37   H     H_    0.894175 0.566777 0.036991 0.270467
H38   H     H_    0.287714 0.013095 0.486391 0.245695
H39   H     H_    0.348343 0.919995 0.428949 0.245977
H40   H     H_    0.339911 0.913394 0.544444 0.247000
H41   H     H_    0.711735 0.987401 0.514833 0.247302
H42   H     H_    0.660100 0.086038 0.454827 0.245006
H43   H     H_    0.650611 0.081688 0.570274 0.239486
H44   H     H_    0.930961 0.337072 0.403287 0.246628
H45   H     H_    0.707830 0.477378 0.269067 0.254392
H46   H     H_    0.048881 0.407472 0.378200 0.251505
H47   H     H_    0.040532 0.333398 0.474766 0.240223
H48   H     H_    0.069347 0.663415 0.595149 0.245177
H49   H     H_    0.958779 0.666378 0.524675 0.248931
H50   H     H_    0.952170 0.592794 0.621517 0.241227
H51   H     H_    0.270782 0.489806 0.825451 0.213513
H52   H     H_    0.337541 0.570110 0.751128 0.241842
H53   H     H_    0.290141 0.446369 0.719604 0.253333
H54   H     H_    0.686427 0.340998 0.648826 0.162096
N1    N     N_1   0.235630 0.515160 0.512550 -0.104581
N2    N     N_1   0.764370 0.484840 0.487450 -0.095316
O1    O     O_R   0.402910 0.365220 0.504590 -0.625077
O2    O     O_3   0.291304 0.422013 0.266126 -0.635947
O3    O     O_3   0.281566 0.344249 0.103719 -0.644672
O4    O     O_3   0.705381 0.369547 0.904750 -0.638678
O5    O     O_R   0.597090 0.634780 0.495410 -0.598085
O6    O     O_R   0.572660 0.355490 0.496530 -0.612769
O7    O     O_R   0.427340 0.644510 0.503470 -0.596224
O8    O     O_R   0.405090 0.505430 0.388710 -0.568956
O9    O     O_R   0.594910 0.494570 0.611290 -0.559911
O10   O     O_R   0.574840 0.495690 0.380650 -0.596631
O11   O     O_R   0.425160 0.504310 0.619350 -0.600976
O12   O     O_3   0.702434 0.448416 0.741859 -0.631825
Zn1   Zn    Zn3+2 0.386660 0.506500 0.505380 0.950325
Zn2   Zn    Zn3+2 0.613340 0.493500 0.494620 0.959324

loop_
_geom_bond_atom_site_label_1
_geom_bond_atom_site_label_2
_ccdc_geom_bond_type
C3    N2    T    
C31   H18   S    
C41   H41   S    
C35   H26   S    
C5    O10   A    
C24   H51   S    
C35   C36   S    
C33   O3    S    
C43   H50   S    
O6    Zn2   S    
C28   H8    S    
C27   H6    S    
C28   H9    S    
C21   C31   S    
C12   C23   S    
C26   C27   S    
C37   C38   S    
C22   H34   S    
C40   H39   S    
C28   C29   S    
C39   H36   S    
C36   H29   S    
C4    C48   S    
O8    Zn1   S    
C11   C14   A    
C27   H7    S    
C9    C22   S    
C4    N1    T    
C31   H17   S    
C24   H53   S    
C40   H38   S    
C25   H2    S    
C36   H28   S    
C16   O3    S    
C17   C19   A    
C29   H11   S    
C28   O2    S    
O11   Zn1   S    
C1    C34   S    
C34   C46   T    
C43   C48   S    
C33   H24   S    
C44   C47   S    
C32   H20   S    
C41   H42   S    
C24   H52   S    
C30   H15   S    
O1    Zn1   S    
N1    Zn1   S    
C12   O5    A    
O5    Zn2   S    
N2    Zn2   S    
C40   C45   S    
C8    C19   A    
C23   C47   T    
C42   H47   S    
C14   C20   S    
C37   O4    S    
C25   O12   S    
C5    C7    S    
C6    C8    S    
C22   H45   S    
C10   C24   S    
C25   C26   S    
C45   C46   S    
C18   O2    S    
C6    O9    A    
C29   C30   S    
C36   H27   S    
C26   H4    S    
C1    O6    A    
C37   H31   S    
C7    C18   A    
C43   H48   S    
C29   H10   S    
C9    C11   A    
O10   Zn2   S    
C33   H22   S    
C32   H19   S    
C13   H1    S    
C16   C18   A    
C41   H43   S    
C30   H14   S    
C38   H33   S    
C41   C44   S    
C14   C16   A    
C17   O4    S    
C39   H37   S    
C11   H12   S    
C22   H23   S    
C44   C45   D    
C20   C32   S    
C7    C9    A    
C35   H25   S    
C42   H46   S    
C31   H16   S    
C43   H49   S    
C10   C13   A    
C27   H5    S    
C15   C17   A    
C32   H21   S    
C5    O8    A    
C37   H30   S    
O7    Zn1   S    
C2    C48   D    
C40   H40   S    
C13   C15   A    
C2    C3    S    
C39   H35   S    
C26   H3    S    
C38   C39   S    
C38   H32   S    
C19   O12   S    
C2    C42   S    
C33   C35   S    
C42   H44   S    
C25   H54   S    
C6    O11   A    
O9    Zn2   S    
C15   C21   S    
C20   C21   D    
C8    C10   A    
C30   H13   S    
C12   O7    A    
C1    O1    A    
