data_mof_unit_45993.cif
_audit_creation_date              2012-12-10T18:05:41-0500
_audit_creation_method            fapswitch 2.2
_symmetry_space_group_name_H-M    P1
_symmetry_Int_Tables_number       1
_space_group_crystal_system       triclinic
_cell_length_a                    10.828447
_cell_length_b                    10.822669
_cell_length_c                    9.504534
_cell_angle_alpha                 89.990741
_cell_angle_beta                  90.123108
_cell_angle_gamma                 90.556282
_cell_volume                      1113.80689945

loop_
_atom_site_label
_atom_site_type_symbol
_atom_type_description
_atom_site_fract_x
_atom_site_fract_y
_atom_site_fract_z
_atom_type_partial_charge
C1    C     C_R   0.499568 0.262040 0.499966 0.826095
C2    C     C_R   0.500432 0.737960 0.500034 0.826095
C3    C     C_R   0.871626 0.495662 0.501234 -0.082601
C4    C     C_R   0.128374 0.504339 0.498766 -0.082600
C5    C     C_R   0.938372 0.444294 0.614567 0.102463
C6    C     C_R   0.061627 0.555706 0.385433 0.102461
C7    C     C_R   0.504651 0.063920 0.372219 -0.141497
C8    C     C_R   0.495350 0.936080 0.627781 -0.141501
C9    C     C_R   0.505370 0.936172 0.372274 -0.130525
C10   C     C_R   0.494632 0.063828 0.627726 -0.130528
C11   C     C_R   0.500628 0.871789 0.500038 0.003694
C12   C     C_R   0.499373 0.128211 0.499962 0.003694
C13   C     C_R   0.427056 0.418992 0.074473 -0.229537
C14   C     C_R   0.572944 0.581007 0.925527 -0.229534
C15   C     C_R   0.426912 0.418995 0.925616 0.684810
C16   C     C_R   0.573088 0.581005 0.074383 0.684814
C17   C     C_R   0.262241 0.502552 0.499609 0.831864
C18   C     C_R   0.737759 0.497448 0.500390 0.831863
C19   C     C_R   0.232885 0.796069 0.167422 -0.133158
C20   C     C_R   0.767115 0.203920 0.832571 -0.133160
C21   C     C_R   0.173647 0.739114 0.281439 0.224233
C22   C     C_R   0.826353 0.260880 0.718555 0.224232
C23   C     C_R   0.122062 0.619669 0.265671 -0.081814
C24   C     C_R   0.877937 0.380326 0.734328 -0.081819
C25   C     C_R   0.129254 0.559968 0.134539 0.652710
C26   C     C_R   0.870743 0.440024 0.865464 0.652702
C27   C     C_R   0.187709 0.618257 0.021170 -0.131266
C28   C     C_R   0.812289 0.381729 0.978832 -0.131267
C29   C     C_R   0.240137 0.735717 0.037817 -0.255471
C30   C     C_R   0.759863 0.264268 0.962180 -0.255460
C31   C     C_R   0.933658 0.549743 0.387533 -0.131375
C32   C     C_R   0.066342 0.450258 0.612467 -0.131379
Cu1   Cu    Cu3+1 0.500000 0.500020 0.640660 1.015165
Cu2   Cu    Cu3+1 0.500000 0.499980 0.359340 1.015165
H1    H     H_    0.286141 0.780149 0.950070 0.183998
H2    H     H_    0.713860 0.219831 0.049926 0.183997
H3    H     H_    0.272903 0.887548 0.179033 0.175900
H4    H     H_    0.727099 0.112439 0.820955 0.175899
H5    H     H_    0.193270 0.571923 0.920477 0.193034
H6    H     H_    0.806728 0.428060 0.079529 0.193035
H7    H     H_    0.882286 0.590641 0.301461 0.196836
H8    H     H_    0.117713 0.409359 0.698538 0.196833
H9    H     H_    0.508575 0.112042 0.272348 0.150390
H10   H     H_    0.491426 0.887958 0.727652 0.150390
H11   H     H_    0.509622 0.888113 0.272457 0.175251
H12   H     H_    0.490380 0.111888 0.727544 0.175252
H13   H     H_    0.368283 0.354565 0.130759 0.203853
H14   H     H_    0.631718 0.645435 0.869241 0.203854
N1    N     N_R   0.500030 0.500030 0.852070 -0.249286
N2    N     N_R   0.499970 0.499970 0.147930 -0.249285
O1    O     O_R   0.499990 0.319660 0.618740 -0.540482
O2    O     O_R   0.500010 0.680340 0.381260 -0.540483
O3    O     O_R   0.499990 0.319630 0.381170 -0.598709
O4    O     O_R   0.500010 0.680370 0.618830 -0.598709
O5    O     O_R   0.319650 0.500020 0.618780 -0.544283
O6    O     O_R   0.680350 0.499980 0.381220 -0.544282
O7    O     O_R   0.319640 0.500000 0.381210 -0.589447
O8    O     O_R   0.680360 0.500000 0.618790 -0.589447
F1    F     F_    0.352538 0.338261 0.855880 -0.652010
F2    F     F_    0.647464 0.661737 0.144120 -0.652008
Br1   Br    Br    0.163003 0.828070 0.455542 -0.476600
Br2   Br    Br    0.836998 0.171929 0.544445 -0.476597
F3    F     F_    0.081884 0.444363 0.117504 -0.652231
F4    F     F_    0.918111 0.555630 0.882504 -0.652228

loop_
_geom_bond_atom_site_label_1
_geom_bond_atom_site_label_2
_ccdc_geom_bond_type
Cu1   O5    S    
Cu2   O7    S    
C3    C31   A    
C22   Br2   S    
C26   F4    S    
C9    H11   S    
Cu1   O8    S    
C7    H9    S    
Cu1   O1    S    
C20   H4    S    
C19   H3    S    
C29   H1    S    
C21   Br1   S    
C1    O1    A    
C30   H2    S    
C5    C32   A    
C1    O3    A    
C28   C30   A    
Cu1   Cu2   S    
C20   C30   A    
C23   C25   A    
C15   N1    A    
Cu2   O6    S    
C18   O6    A    
C9    C11   A    
C24   C26   A    
C13   H13   S    
C4    C32   A    
C1    C12   S    
C2    O2    A    
C3    C18   S    
C8    C11   A    
C5    C24   S    
C2    C11   S    
C10   C12   A    
C4    C6    A    
C26   C28   A    
C19   C21   A    
C20   C22   A    
C6    C31   A    
C14   C16   A    
C13   C15   A    
C21   C23   A    
C32   H8    S    
C7    C12   A    
C22   C24   A    
C27   H5    S    
Cu2   N2    S    
C14   N1    A    
C25   C27   A    
C28   H6    S    
Cu1   N1    S    
C13   N2    A    
C19   C29   A    
C10   H12   S    
C2    O4    A    
C27   C29   A    
Cu2   O3    S    
C8    C10   A    
C16   F2    S    
C17   O7    A    
Cu1   O4    S    
C7    C9    A    
C17   O5    A    
C25   F3    S    
C14   H14   S    
Cu2   O2    S    
C31   H7    S    
C6    C23   S    
C15   F1    S    
C18   O8    A    
C8    H10   S    
C16   N2    A    
C3    C5    A    
C4    C17   S    
