data_mof_unit_42227.cif
_audit_creation_date              2012-12-11T14:00:04-0500
_audit_creation_method            fapswitch 2.2
_symmetry_space_group_name_H-M    P1
_symmetry_Int_Tables_number       1
_space_group_crystal_system       triclinic
_cell_length_a                    11.149805
_cell_length_b                    11.165063
_cell_length_c                    18.608653
_cell_angle_alpha                 90.00114
_cell_angle_beta                  90.424556
_cell_angle_gamma                 120.230479
_cell_volume                      2001.44970325

loop_
_atom_site_label
_atom_site_type_symbol
_atom_type_description
_atom_site_fract_x
_atom_site_fract_y
_atom_site_fract_z
_atom_type_partial_charge
C1    C     C_R   0.584830 0.449311 0.860907 0.524796
C2    C     C_R   0.451189 0.581800 0.360255 0.585588
C3    C     C_R   0.134597 0.551334 0.359550 0.562829
C4    C     C_R   0.460544 0.943126 0.349771 0.608872
C5    C     C_2   0.030895 0.515986 0.587761 -0.112348
C6    C     C_2   0.479251 0.514930 0.588851 -0.086634
C7    C     C_2   0.540518 0.096372 0.564642 -0.118500
C8    C     C_2   0.520638 0.036489 0.411056 -0.089505
C9    C     C_2   0.464294 0.555257 0.435108 -0.072120
C10   C     C_2   0.110461 0.550017 0.436067 -0.130354
C11   C     C_2   0.126981 0.464495 0.480393 0.336877
C12   C     C_R   0.548546 0.126828 0.862119 0.530808
C13   C     C_2   0.513428 0.659135 0.483204 0.333485
C14   C     C_2   0.453355 0.093452 0.442997 0.390686
C15   C     C_2   0.483852 0.144468 0.517257 0.346760
C16   C     C_2   0.545244 0.639731 0.557274 0.382315
C17   C     C_2   0.086827 0.446975 0.556290 0.379011
C18   C     C_2   0.916388 0.451143 0.935741 0.380048
C19   C     C_2   0.566644 0.460130 0.937337 0.369784
C20   C     C_2   0.534670 0.078374 0.935546 0.400523
C21   C     C_2   0.434864 0.896380 0.062851 0.365358
C22   C     C_2   0.466967 0.543191 0.064503 0.393698
C23   C     C_R   0.871266 0.419837 0.861606 0.520569
C24   C     C_2   0.101042 0.540142 0.063326 0.354843
C25   C     C_2   0.044904 0.610235 0.033149 0.487938
C26   C     C_2   0.424701 0.411963 0.043789 0.490620
C27   C     C_2   0.556769 0.939456 0.030070 0.481668
C28   C     C_2   0.576662 0.989445 0.956419 0.486335
C29   C     C_2   0.444397 0.381765 0.970123 0.485884
C30   C     C_2   0.995520 0.582561 0.959485 0.489483
C31   C     C_R   0.451941 0.578025 0.137710 0.530851
C32   C     C_R   0.134085 0.550735 0.139226 0.519996
C33   C     C_R   0.415644 0.865430 0.139026 0.523419
C34   C     C_R   0.539421 0.482513 0.650227 0.615062
C35   C     C_R   0.549868 0.132127 0.640034 0.590163
C36   C     C_R   0.942472 0.459822 0.650281 0.583452
Cr1   Cr    Cr6+3 0.464030 0.233680 0.750360 1.196258
Cr2   Cr    Cr6+3 0.766320 0.230350 0.750360 1.197746
Cr3   Cr    Cr6+3 0.769650 0.535970 0.750360 1.183006
Cr4   Cr    Cr6+3 0.233680 0.464030 0.249640 1.201988
Cr5   Cr    Cr6+3 0.230350 0.766320 0.249640 1.183714
Cr6   Cr    Cr6+3 0.535970 0.769650 0.249640 1.173698
F1    F     F_    0.166897 0.376548 0.453709 -0.559605
F2    F     F_    0.641412 0.945238 0.910814 -0.510338
F3    F     F_    0.334788 0.273368 0.936352 -0.497567
F4    F     F_    0.029810 0.694381 0.917012 -0.506777
F5    F     F_    0.127507 0.453989 0.023243 -0.580573
F6    F     F_    0.522881 0.649089 0.016461 -0.571958
F7    F     F_    0.323241 0.882045 0.025045 -0.547693
F8    F     F_    0.480791 0.130033 0.983642 -0.568822
F9    F     F_    0.679524 0.555956 0.975285 -0.559793
F10   F     F_    0.873510 0.341566 0.981136 -0.585009
F11   F     F_    0.552648 0.790047 0.461806 -0.619923
F12   F     F_    0.344739 0.094453 0.409668 -0.516859
F13   F     F_    0.434666 0.227327 0.539775 -0.594445
F14   F     F_    0.652517 0.750699 0.590882 -0.527155
F15   F     F_    0.091413 0.342512 0.591650 -0.529740
F16   F     F_    0.031898 0.709054 0.069293 -0.490438
F17   F     F_    0.358478 0.302764 0.089329 -0.506542
F18   F     F_    0.665214 0.938520 0.063568 -0.498523
H1    H     H_    0.080429 0.622639 0.454970 0.076754
H2    H     H_    0.436870 0.450551 0.449994 0.160309
H3    H     H_    0.615844 0.048306 0.433883 0.119395
H4    H     H_    0.577185 0.026818 0.548955 0.130259
H5    H     H_    0.385032 0.430544 0.565405 0.172778
H6    H     H_    0.035092 0.606324 0.563968 0.066364
O1    O     O_R   0.434100 0.092480 0.829780 -0.413554
O2    O     O_R   0.362730 0.477510 0.175360 -0.462178
O3    O     O_R   0.114780 0.637270 0.175360 -0.457223
O4    O     O_R   0.522490 0.885220 0.175360 -0.470211
O5    O     O_R   0.432250 0.092620 0.670380 -0.427575
O6    O     O_R   0.907380 0.339630 0.670380 -0.427132
O7    O     O_R   0.660370 0.567750 0.670380 -0.432324
O8    O     O_R   0.092620 0.432250 0.329620 -0.414106
O9    O     O_R   0.339630 0.907380 0.329620 -0.439598
O10   O     O_R   0.567750 0.660370 0.329620 -0.438235
O11   O     O_R   0.475790 0.362860 0.676880 -0.464114
O12   O     O_R   0.907520 0.341620 0.829780 -0.427583
O13   O     O_R   0.637140 0.112930 0.676880 -0.462537
O14   O     O_R   0.887070 0.524210 0.676880 -0.498009
O15   O     O_R   0.362860 0.475790 0.323120 -0.445574
O16   O     O_R   0.112930 0.637140 0.323120 -0.479585
O17   O     O_R   0.524210 0.887070 0.323120 -0.474877
O18   O     O_3   0.666667 0.333333 0.749450 -0.428349
O19   O     O_3   0.333333 0.666667 0.250550 -0.451271
O20   O     O_R   0.658380 0.565900 0.829780 -0.400457
O21   O     O_R   0.092480 0.434100 0.170220 -0.414677
O22   O     O_R   0.341620 0.907520 0.170220 -0.392144
O23   O     O_R   0.565900 0.658380 0.170220 -0.414484
O24   O     O_R   0.477510 0.362730 0.824640 -0.469288
O25   O     O_R   0.637270 0.114780 0.824640 -0.460901
O26   O     O_R   0.885220 0.522490 0.824640 -0.466784

loop_
_geom_bond_atom_site_label_1
_geom_bond_atom_site_label_2
_ccdc_geom_bond_type
C22   F6    S    
C1    O24   A    
C12   O25   A    
C4    C8    S    
C21   F7    S    
C18   F10   S    
Cr1   O24   S    
Cr4   O21   S    
C33   O22   A    
Cr3   O18   S    
C27   F18   S    
C34   O11   A    
C5    C17   D    
Cr2   O13   S    
C5    C36   S    
Cr6   O4    S    
C3    O8    A    
C9    C13   D    
C4    O9    A    
C20   F8    S    
C6    H5    S    
C31   O23   A    
Cr1   O18   S    
C11   F1    S    
C18   C30   D    
C26   F17   S    
C20   C28   D    
C7    C15   D    
C21   C27   D    
C35   O5    A    
C16   F14   S    
C13   F11   S    
C31   O2    A    
C12   O1    A    
Cr2   O6    S    
C1    C19   S    
C22   C31   S    
C9    H2    S    
C24   C25   D    
C8    H3    S    
C36   O14   A    
Cr2   O12   S    
C32   O21   A    
Cr1   O11   S    
Cr2   O25   S    
C28   F2    S    
C18   C23   S    
C29   F3    S    
C15   F13   S    
Cr4   O19   S    
C24   C32   S    
C19   F9    S    
Cr5   O9    S    
C12   C20   S    
C3    O16   A    
Cr6   O19   S    
C33   O4    A    
C14   F12   S    
Cr1   O5    S    
Cr4   O2    S    
C10   H1    S    
C25   F16   S    
C19   C29   D    
Cr3   O26   S    
C2    O10   A    
Cr5   O3    S    
C25   C30   S    
Cr5   O22   S    
C11   C17   S    
C8    C14   D    
Cr2   O18   S    
C14   C15   S    
C24   F5    S    
C7    C35   S    
Cr4   O15   S    
C30   F4    S    
Cr6   O17   S    
C5    H6    S    
C32   O3    A    
Cr5   O19   S    
Cr6   O10   S    
Cr6   O23   S    
Cr3   O14   S    
C3    C10   S    
C4    O17   A    
Cr5   O16   S    
Cr1   O1    S    
C35   O13   A    
Cr4   O8    S    
Cr3   O7    S    
C23   O12   A    
C7    H4    S    
C10   C11   D    
C34   O7    A    
C6    C16   D    
C6    C34   S    
C1    O20   A    
C21   C33   S    
C26   C29   S    
C22   C26   D    
C13   C16   S    
C27   C28   S    
C23   O26   A    
C2    O15   A    
Cr3   O20   S    
C2    C9    S    
C36   O6    A    
C17   F15   S    
