data_mof_unit_29866.cif
_audit_creation_date              2012-12-10T16:37:53-0500
_audit_creation_method            fapswitch 2.2
_symmetry_space_group_name_H-M    P1
_symmetry_Int_Tables_number       1
_space_group_crystal_system       triclinic
_cell_length_a                    27.903595
_cell_length_b                    18.307669
_cell_length_c                    16.896886
_cell_angle_alpha                 90.249839
_cell_angle_beta                  61.017756
_cell_angle_gamma                 90.322814
_cell_volume                      7550.68013645

loop_
_atom_site_label
_atom_site_type_symbol
_atom_type_description
_atom_site_fract_x
_atom_site_fract_y
_atom_site_fract_z
_atom_type_partial_charge
C1    C     C_R   0.700197 0.264845 0.677439 0.896329
C2    C     C_R   0.098044 0.503573 0.503046 -0.087441
C3    C     C_R   0.184329 0.230674 0.914052 0.005903
C4    C     C_R   0.602197 0.304104 0.059050 0.076647
C5    C     C_R   0.384543 0.690699 0.951895 0.122806
C6    C     C_R   0.390755 0.312971 0.943942 0.084890
C7    C     C_R   0.609109 0.688624 0.054159 0.112197
C8    C     C_R   0.102196 0.804104 0.059050 0.076647
C9    C     C_R   0.884543 0.190699 0.951895 0.122806
C10   C     C_R   0.890755 0.812971 0.943942 0.084891
C11   C     C_R   0.109109 0.188624 0.054159 0.112196
C12   C     C_R   0.631576 0.288784 0.105647 0.081619
C13   C     C_R   0.422399 0.001463 0.428490 -0.086749
C14   C     C_R   0.353220 0.701248 0.907617 0.077131
C15   C     C_R   0.358518 0.304645 0.900597 0.072298
C16   C     C_R   0.640104 0.700576 0.098773 0.030904
C17   C     C_R   0.131576 0.788784 0.105647 0.081619
C18   C     C_R   0.853220 0.201248 0.907617 0.077131
C19   C     C_R   0.858518 0.804645 0.900597 0.072298
C20   C     C_R   0.140104 0.200576 0.098773 0.030905
C21   C     C_R   0.739642 0.183377 0.796191 0.138099
C22   C     C_R   0.218265 0.699027 0.241952 0.086381
C23   C     C_R   0.256683 0.188631 0.203114 0.136854
C24   C     C_R   0.598044 0.003573 0.503046 -0.087441
C25   C     C_R   0.741715 0.814992 0.796574 0.109365
C26   C     C_R   0.239642 0.683377 0.796191 0.138098
C27   C     C_R   0.718265 0.199027 0.241952 0.086381
C28   C     C_R   0.756683 0.688631 0.203114 0.136853
C29   C     C_R   0.241715 0.314992 0.796574 0.109365
C30   C     C_R   0.773009 0.176294 0.836435 -0.236870
C31   C     C_R   0.188502 0.717023 0.198043 -0.174762
C32   C     C_R   0.223446 0.181017 0.162297 -0.290199
C33   C     C_R   0.775667 0.822076 0.836045 -0.178041
C34   C     C_R   0.273009 0.676294 0.836435 -0.236870
C35   C     C_R   0.124366 0.383666 0.435764 0.571433
C36   C     C_R   0.688502 0.217023 0.198043 -0.174762
C37   C     C_R   0.723446 0.681017 0.162297 -0.290199
C38   C     C_R   0.275667 0.322076 0.836045 -0.178042
C39   C     C_R   0.071141 0.104091 0.937330 0.936178
C40   C     C_R   0.928745 0.896099 0.062687 0.906142
C41   C     C_R   0.928843 0.104227 0.062649 0.910279
C42   C     C_R   0.070407 0.895221 0.937783 0.895810
C43   C     C_R   0.571141 0.604091 0.937330 0.936178
C44   C     C_R   0.428745 0.396099 0.062687 0.906142
C45   C     C_R   0.428843 0.604227 0.062649 0.910279
C46   C     C_R   0.926341 0.633359 0.421816 0.629251
C47   C     C_R   0.570407 0.395221 0.937783 0.895810
C48   C     C_R   0.539553 0.132776 0.520002 -0.050971
C49   C     C_R   0.480747 0.871128 0.409570 -0.107092
C50   C     C_R   0.464386 0.135084 0.453339 -0.044845
C51   C     C_R   0.576120 0.877123 0.429454 -0.093669
C52   C     C_R   0.039553 0.632776 0.520001 -0.050970
C53   C     C_R   0.980746 0.371128 0.409571 -0.107092
C54   C     C_R   0.964386 0.635084 0.453338 -0.044845
C55   C     C_R   0.076120 0.377123 0.429455 -0.093668
C56   C     C_R   0.515647 0.199539 0.515771 0.062058
C57   C     C_R   0.932619 0.371142 0.400847 0.567491
C58   C     C_R   0.512408 0.807154 0.397405 0.117521
C59   C     C_R   0.479739 0.201082 0.478747 0.061969
C60   C     C_R   0.559858 0.810358 0.406660 0.108651
C61   C     C_R   0.015648 0.699539 0.515770 0.062058
C62   C     C_R   0.012407 0.307154 0.397407 0.117521
C63   C     C_R   0.979739 0.701082 0.478746 0.061969
C64   C     C_R   0.059857 0.310357 0.406662 0.108653
C65   C     C_R   0.486858 0.068671 0.460494 -0.040027
C66   C     C_R   0.542798 0.938981 0.448152 -0.013580
C67   C     C_R   0.527509 0.068476 0.486672 -0.036408
C68   C     C_R   0.075719 0.628608 0.555848 0.621490
C69   C     C_R   0.497118 0.937069 0.433678 -0.017004
C70   C     C_R   0.986858 0.568671 0.460493 -0.040027
C71   C     C_R   0.042798 0.438981 0.448153 -0.013580
C72   C     C_R   0.027510 0.568476 0.486672 -0.036408
C73   C     C_R   0.997118 0.437069 0.433678 -0.017004
C74   C     C_R   0.969201 0.502313 0.439840 -0.003643
C75   C     C_R   0.055888 0.503645 0.479769 0.001507
C76   C     C_R   0.469201 0.002313 0.439840 -0.003643
C77   C     C_R   0.555888 0.003645 0.479769 0.001507
C78   C     C_R   0.899865 0.434620 0.420505 -0.039756
C79   C     C_R   0.624367 0.883667 0.435763 0.571433
C80   C     C_R   0.109201 0.566516 0.539673 -0.078573
C81   C     C_R   0.130781 0.441443 0.486014 -0.074702
C82   C     C_R   0.897925 0.567815 0.426391 -0.107884
C83   C     C_R   0.399865 0.934620 0.420505 -0.039756
C84   C     C_R   0.609201 0.066516 0.539673 -0.078573
C85   C     C_R   0.630782 0.941443 0.486014 -0.074702
C86   C     C_R   0.397924 0.067815 0.426392 -0.107884
C87   C     C_R   0.846698 0.434671 0.427455 -0.138091
C88   C     C_R   0.154910 0.565557 0.555974 -0.102206
C89   C     C_R   0.167289 0.438734 0.522743 -0.101510
C90   C     C_R   0.426341 0.133359 0.421816 0.629251
C91   C     C_R   0.846363 0.566420 0.428564 -0.090476
C92   C     C_R   0.346698 0.934671 0.427455 -0.138090
C93   C     C_R   0.654910 0.065557 0.555974 -0.102205
C94   C     C_R   0.667289 0.938734 0.522743 -0.101509
C95   C     C_R   0.346363 0.066420 0.428564 -0.090476
C96   C     C_R   0.825099 0.500660 0.417017 0.005547
C97   C     C_R   0.175278 0.499368 0.564640 -0.010235
C98   C     C_R   0.325099 0.000661 0.417017 0.005546
C99   C     C_R   0.675278 0.999368 0.564640 -0.010236
C100  C     C_R   0.432619 0.871142 0.400846 0.567490
C101  C     C_R   0.293199 0.720923 0.327495 0.902357
C102  C     C_R   0.575719 0.128608 0.555848 0.621490
C103  C     C_R   0.707753 0.243648 0.965976 -0.011873
C104  C     C_R   0.270605 0.714344 0.053373 -0.011215
C105  C     C_R   0.283141 0.260146 0.040835 -0.011391
C106  C     C_R   0.716163 0.743184 0.958229 -0.015991
C107  C     C_R   0.207753 0.743648 0.965976 -0.011873
C108  C     C_R   0.770605 0.214343 0.053373 -0.011216
C109  C     C_R   0.783141 0.760146 0.040835 -0.011391
C110  C     C_R   0.216163 0.243184 0.958229 -0.015991
C111  C     C_R   0.760374 0.211933 0.917923 0.034086
C112  C     C_R   0.299610 0.264964 0.322343 0.953394
C113  C     C_R   0.214142 0.731917 0.104817 0.047648
C114  C     C_R   0.232595 0.222491 0.086356 0.062226
C115  C     C_R   0.766532 0.781256 0.912670 0.049953
C116  C     C_R   0.260373 0.711933 0.917923 0.034086
C117  C     C_R   0.714142 0.231917 0.104817 0.047648
C118  C     C_R   0.732595 0.722491 0.086356 0.062227
C119  C     C_R   0.266532 0.281256 0.912670 0.049954
C120  C     C_R   0.795021 0.207981 0.958291 -0.024559
C121  C     C_R   0.184423 0.756076 0.060130 0.018663
C122  C     C_R   0.196824 0.218885 0.048067 -0.000496
C123  C     C_R   0.700228 0.735418 0.677463 0.891045
C124  C     C_R   0.802205 0.785335 0.951304 0.015832
C125  C     C_R   0.295021 0.707981 0.958291 -0.024559
C126  C     C_R   0.684423 0.256076 0.060130 0.018663
C127  C     C_R   0.696824 0.718884 0.048067 -0.000496
C128  C     C_R   0.302205 0.285335 0.951304 0.015832
C129  C     C_R   0.628665 0.300195 0.962845 0.020969
C130  C     C_R   0.358332 0.682860 0.047583 0.008732
C131  C     C_R   0.365730 0.308359 0.040013 0.020114
C132  C     C_R   0.634492 0.692198 0.958622 0.037183
C133  C     C_R   0.128665 0.800195 0.962845 0.020969
C134  C     C_R   0.200197 0.764845 0.677439 0.896329
C135  C     C_R   0.858332 0.182860 0.047583 0.008733
C136  C     C_R   0.865730 0.808359 0.040013 0.020114
C137  C     C_R   0.134492 0.192198 0.958622 0.037183
C138  C     C_R   0.607820 0.332608 0.908248 -0.142426
C139  C     C_R   0.385867 0.659569 0.096319 -0.142250
C140  C     C_R   0.389722 0.335587 0.092674 -0.140090
C141  C     C_R   0.610414 0.664433 0.906556 -0.118250
C142  C     C_R   0.107820 0.832608 0.908248 -0.142426
C143  C     C_R   0.885867 0.159569 0.096319 -0.142250
C144  C     C_R   0.889722 0.835587 0.092674 -0.140090
C145  C     C_R   0.793199 0.220923 0.327495 0.902357
C146  C     C_R   0.110414 0.164433 0.906556 -0.118250
C147  C     C_R   0.629301 0.313464 0.818412 -0.268698
C148  C     C_R   0.364439 0.676382 0.186073 -0.262433
C149  C     C_R   0.369701 0.314333 0.181334 -0.291843
C150  C     C_R   0.630258 0.685636 0.817971 -0.305870
C151  C     C_R   0.129301 0.813464 0.818412 -0.268698
C152  C     C_R   0.864439 0.176382 0.186073 -0.262433
C153  C     C_R   0.869701 0.814333 0.181334 -0.291843
C154  C     C_R   0.130258 0.185636 0.817971 -0.305870
C155  C     C_R   0.674132 0.268225 0.776829 -0.133830
C156  C     C_R   0.799610 0.764964 0.322343 0.953394
C157  C     C_R   0.310862 0.698017 0.235063 -0.128907
C158  C     C_R   0.324024 0.270355 0.223299 -0.106324
C159  C     C_R   0.675364 0.730736 0.776319 -0.127278
C160  C     C_R   0.174132 0.768225 0.776829 -0.133830
C161  C     C_R   0.810862 0.198017 0.235063 -0.128907
C162  C     C_R   0.824024 0.770355 0.223299 -0.106324
C163  C     C_R   0.175364 0.230736 0.776319 -0.127278
C164  C     C_R   0.698127 0.238008 0.828333 0.048521
C165  C     C_R   0.276533 0.700206 0.193531 0.052908
C166  C     C_R   0.297610 0.244010 0.173107 0.110536
C167  C     C_R   0.200228 0.235418 0.677463 0.891045
C168  C     C_R   0.701268 0.758599 0.826522 0.055523
C169  C     C_R   0.198127 0.738008 0.828333 0.048520
C170  C     C_R   0.776533 0.200206 0.193531 0.052908
C171  C     C_R   0.797610 0.744010 0.173107 0.110536
C172  C     C_R   0.201268 0.258599 0.826522 0.055524
C173  C     C_R   0.690150 0.129817 0.537939 0.892521
C174  C     C_R   0.310088 0.869977 0.459254 0.959078
C175  C     C_R   0.309913 0.130228 0.459445 0.946169
C176  C     C_R   0.695256 0.872502 0.521504 0.986124
C177  C     C_R   0.190150 0.629817 0.537939 0.892521
C178  C     C_R   0.922400 0.501463 0.428490 -0.086749
C179  C     C_R   0.810088 0.369977 0.459254 0.959077
C180  C     C_R   0.809913 0.630229 0.459445 0.946169
C181  C     C_R   0.195256 0.372501 0.521504 0.986124
C182  C     C_R   0.678425 0.261418 0.918909 0.019397
C183  C     C_R   0.301968 0.700070 0.097890 0.020844
C184  C     C_R   0.315202 0.271496 0.084966 0.002152
C185  C     C_R   0.684329 0.730673 0.914052 0.005903
C186  C     C_R   0.178425 0.761418 0.918909 0.019397
C187  C     C_R   0.801968 0.200070 0.097890 0.020844
C188  C     C_R   0.815202 0.771496 0.084966 0.002153
F1    F     F_    0.167638 0.340427 0.382788 -0.681592
F2    F     F_    0.921603 0.692784 0.378055 -0.646747
F3    F     F_    0.921298 0.313230 0.362166 -0.691476
F4    F     F_    0.074877 0.681934 0.612806 -0.646619
F5    F     F_    0.667638 0.840428 0.382788 -0.681593
F6    F     F_    0.421603 0.192784 0.378055 -0.646747
F7    F     F_    0.421298 0.813230 0.362166 -0.691476
F8    F     F_    0.574877 0.181934 0.612806 -0.646619
H1    H     H_    0.613007 0.338396 0.778348 0.197522
H2    H     H_    0.144576 0.711284 0.236947 0.179233
H3    H     H_    0.193739 0.137261 0.185579 0.144051
H4    H     H_    0.805668 0.865695 0.811787 0.165855
H5    H     H_    0.304684 0.635290 0.809808 0.149760
H6    H     H_    0.644577 0.211284 0.236947 0.179233
H7    H     H_    0.693739 0.637261 0.185579 0.144052
H8    H     H_    0.305668 0.365695 0.811787 0.165855
H9    H     H_    0.126739 0.243638 0.348944 0.239244
H10   H     H_    0.088657 0.237017 0.463295 0.198710
H11   H     H_    0.987537 0.804539 0.431034 0.174404
H12   H     H_    0.388711 0.667440 0.219539 0.197253
H13   H     H_    0.934108 0.791603 0.536986 0.164036
H14   H     H_    0.956641 0.224955 0.429818 0.217702
H15   H     H_    0.998448 0.238119 0.316026 0.244376
H16   H     H_    0.994433 0.789769 0.595875 0.180885
H17   H     H_    0.048078 0.801927 0.489946 0.158500
H18   H     H_    0.626740 0.743639 0.348940 0.239244
H19   H     H_    0.588659 0.737017 0.463292 0.198711
H20   H     H_    0.487537 0.304540 0.431035 0.174403
H21   H     H_    0.434107 0.291602 0.536987 0.164036
H22   H     H_    0.456643 0.724954 0.429815 0.217702
H23   H     H_    0.388138 0.336187 0.220146 0.200571
H24   H     H_    0.498448 0.738120 0.316023 0.244377
H25   H     H_    0.494432 0.289769 0.595877 0.180885
H26   H     H_    0.548078 0.301927 0.489947 0.158501
H27   H     H_    0.744443 0.492875 0.448691 0.224182
H28   H     H_    0.790445 0.463016 0.342012 0.196255
H29   H     H_    0.241736 0.512895 0.584833 0.224377
H30   H     H_    0.179215 0.520895 0.679778 0.185002
H31   H     H_    0.244443 0.992875 0.448691 0.224182
H32   H     H_    0.290445 0.963016 0.342012 0.196255
H33   H     H_    0.741736 0.012895 0.584833 0.224377
H34   H     H_    0.612143 0.663034 0.779040 0.191423
H35   H     H_    0.679215 0.020894 0.679778 0.185002
H36   H     H_    0.533320 0.360947 0.145093 0.210117
H37   H     H_    0.523802 0.301962 0.074455 0.182376
H38   H     H_    0.461465 0.709621 0.938391 0.171245
H39   H     H_    0.459364 0.651061 0.861038 0.206700
H40   H     H_    0.463081 0.361106 0.854115 0.208142
H41   H     H_    0.469396 0.300238 0.925144 0.183722
H42   H     H_    0.536269 0.734548 0.141052 0.203706
H43   H     H_    0.539676 0.643550 0.154726 0.204203
H44   H     H_    0.033320 0.860946 0.145093 0.210118
H45   H     H_    0.113007 0.838396 0.778348 0.197522
H46   H     H_    0.023802 0.801963 0.074455 0.182376
H47   H     H_    0.961465 0.209621 0.938391 0.171245
H48   H     H_    0.959364 0.151061 0.861038 0.206700
H49   H     H_    0.963081 0.861106 0.854115 0.208143
H50   H     H_    0.969396 0.800238 0.925144 0.183722
H51   H     H_    0.036269 0.234548 0.141052 0.203707
H52   H     H_    0.039676 0.143550 0.154726 0.204202
H53   H     H_    0.601146 0.367568 0.202124 0.179905
H54   H     H_    0.570835 0.284518 0.236402 0.210807
H55   H     H_    0.363093 0.756418 0.794819 0.202544
H56   H     H_    0.888711 0.167440 0.219539 0.197253
H57   H     H_    0.387548 0.668365 0.775899 0.167698
H58   H     H_    0.404814 0.356284 0.781135 0.167360
H59   H     H_    0.414471 0.264613 0.778036 0.224226
H60   H     H_    0.626896 0.751983 0.215129 0.221314
H61   H     H_    0.609638 0.660169 0.227003 0.184775
H62   H     H_    0.101146 0.867568 0.202124 0.179905
H63   H     H_    0.070835 0.784518 0.236402 0.210807
H64   H     H_    0.863093 0.256418 0.794819 0.202544
H65   H     H_    0.887548 0.168365 0.775899 0.167698
H66   H     H_    0.904813 0.856284 0.781135 0.167360
H67   H     H_    0.888138 0.836187 0.220146 0.200571
H68   H     H_    0.914471 0.764613 0.778036 0.224226
H69   H     H_    0.126896 0.251982 0.215130 0.221314
H70   H     H_    0.109638 0.160168 0.227002 0.184773
H71   H     H_    0.707358 0.125762 0.727748 0.184257
H72   H     H_    0.777583 0.126624 0.677464 0.201572
H73   H     H_    0.212459 0.636963 0.347993 0.184199
H74   H     H_    0.167587 0.709174 0.376683 0.229757
H75   H     H_    0.265490 0.082979 0.227606 0.176375
H76   H     H_    0.213958 0.126901 0.315080 0.190563
H77   H     H_    0.777852 0.873684 0.679484 0.207381
H78   H     H_    0.112143 0.163034 0.779040 0.191423
H79   H     H_    0.707560 0.873829 0.732282 0.204348
H80   H     H_    0.207358 0.625762 0.727748 0.184257
H81   H     H_    0.277583 0.626623 0.677464 0.201572
H82   H     H_    0.712460 0.136963 0.347993 0.184199
H83   H     H_    0.667587 0.209174 0.376683 0.229757
H84   H     H_    0.765491 0.582979 0.227606 0.176375
H85   H     H_    0.713958 0.626901 0.315080 0.190563
H86   H     H_    0.277852 0.373684 0.679484 0.207381
H87   H     H_    0.207560 0.373829 0.732282 0.204348
H88   H     H_    0.804684 0.135290 0.809808 0.149760
N1    N     N_3   0.086940 0.242891 0.403190 -0.444875
N2    N     N_3   0.201817 0.492498 0.619102 -0.454873
N3    N     N_3   0.282581 0.002234 0.391999 -0.433346
N4    N     N_3   0.701817 0.992498 0.619102 -0.454874
N5    N     N_3   0.543543 0.310128 0.112853 -0.435172
N6    N     N_3   0.443090 0.698831 0.898441 -0.424866
N7    N     N_3   0.449459 0.311257 0.887776 -0.440416
N8    N     N_3   0.550395 0.685024 0.106607 -0.437975
N9    N     N_3   0.043543 0.810128 0.112853 -0.435172
N10   N     N_3   0.943090 0.198831 0.898441 -0.424866
N11   N     N_3   0.949459 0.811257 0.887776 -0.440416
N12   N     N_3   0.956054 0.768752 0.472403 -0.381316
N13   N     N_3   0.050395 0.185024 0.106607 -0.437975
N14   N     N_3   0.608330 0.311340 0.198415 -0.483788
N15   N     N_3   0.382919 0.716460 0.812263 -0.443827
N16   N     N_3   0.385028 0.305912 0.803510 -0.475901
N17   N     N_3   0.610253 0.709143 0.195197 -0.477620
N18   N     N_3   0.108330 0.811340 0.198415 -0.483789
N19   N     N_3   0.882918 0.216460 0.812263 -0.443828
N20   N     N_3   0.885028 0.805912 0.803510 -0.475901
N21   N     N_3   0.110253 0.209143 0.195197 -0.477620
N22   N     N_3   0.741032 0.124262 0.738854 -0.452401
N23   N     N_3   0.996492 0.237050 0.379324 -0.430493
N24   N     N_3   0.187609 0.667348 0.330173 -0.454002
N25   N     N_3   0.254534 0.132263 0.263460 -0.424917
N26   N     N_3   0.741872 0.875007 0.741791 -0.449484
N27   N     N_3   0.241033 0.624262 0.738854 -0.452401
N28   N     N_3   0.687609 0.167348 0.330173 -0.454001
N29   N     N_3   0.754534 0.632263 0.263459 -0.424918
N30   N     N_3   0.241872 0.375007 0.741791 -0.449484
N31   N     N_3   0.030027 0.766031 0.544724 -0.381381
N32   N     N_3   0.586942 0.742891 0.403187 -0.444875
N33   N     N_3   0.456054 0.268752 0.472405 -0.381316
N34   N     N_3   0.496493 0.737051 0.379320 -0.430491
N35   N     N_3   0.530026 0.266031 0.544725 -0.381382
N36   N     N_3   0.782581 0.502235 0.391999 -0.433346
O1    O     O_R   0.746490 0.236330 0.638080 -0.650768
O2    O     O_R   0.325830 0.813840 0.483730 -0.563723
O3    O     O_R   0.325830 0.186160 0.483730 -0.572183
O4    O     O_R   0.674170 0.813840 0.516270 -0.600189
O5    O     O_R   0.174170 0.686160 0.516270 -0.590381
O6    O     O_R   0.825830 0.313840 0.483730 -0.563724
O7    O     O_R   0.825830 0.686160 0.483730 -0.572184
O8    O     O_R   0.174170 0.313840 0.516270 -0.600189
O9    O     O_R   0.739960 0.127620 0.525000 -0.662829
O10   O     O_R   0.260040 0.872380 0.475000 -0.653041
O11   O     O_R   0.260040 0.127620 0.475000 -0.628911
O12   O     O_R   0.253510 0.763670 0.361920 -0.648197
O13   O     O_R   0.739960 0.872380 0.525000 -0.635041
O14   O     O_R   0.239960 0.627620 0.525000 -0.662829
O15   O     O_R   0.760040 0.372380 0.475000 -0.653041
O16   O     O_R   0.760040 0.627620 0.475000 -0.628911
O17   O     O_R   0.239960 0.372380 0.525000 -0.635042
O18   O     O_R   0.680700 0.294870 0.629350 -0.592876
O19   O     O_R   0.319300 0.705130 0.370650 -0.593546
O20   O     O_R   0.319300 0.294870 0.370650 -0.609590
O21   O     O_R   0.680700 0.705130 0.629350 -0.627207
O22   O     O_R   0.180700 0.794870 0.629350 -0.592876
O23   O     O_R   0.253510 0.236330 0.361920 -0.584574
O24   O     O_R   0.819300 0.205130 0.370650 -0.593546
O25   O     O_R   0.819300 0.794870 0.370650 -0.609590
O26   O     O_R   0.180700 0.205130 0.629350 -0.627207
O27   O     O_R   0.062020 0.072840 0.007170 -0.601577
O28   O     O_R   0.937980 0.927160 0.992830 -0.621530
O29   O     O_R   0.937980 0.072840 0.992830 -0.624168
O30   O     O_R   0.062020 0.927160 0.007170 -0.623169
O31   O     O_R   0.562020 0.572840 0.007170 -0.601577
O32   O     O_R   0.437980 0.427160 0.992830 -0.621530
O33   O     O_R   0.437980 0.572840 0.992830 -0.624168
O34   O     O_R   0.746490 0.763670 0.638080 -0.641653
O35   O     O_R   0.562020 0.427160 0.007170 -0.623169
O36   O     O_R   0.947860 0.073950 0.109290 -0.606169
O37   O     O_R   0.052140 0.926050 0.890710 -0.620436
O38   O     O_R   0.052140 0.073950 0.890710 -0.629816
O39   O     O_R   0.947860 0.926050 0.109290 -0.621508
O40   O     O_R   0.447860 0.573950 0.109290 -0.606169
O41   O     O_R   0.552140 0.426050 0.890710 -0.620436
O42   O     O_R   0.552140 0.573950 0.890710 -0.629816
O43   O     O_R   0.447860 0.426050 0.109290 -0.621508
O44   O     O_R   0.246490 0.736330 0.638080 -0.650768
O45   O     O_R   0.753510 0.263670 0.361920 -0.648196
O46   O     O_R   0.753510 0.736330 0.361920 -0.584574
O47   O     O_R   0.246490 0.263670 0.638080 -0.641653
O48   O     O_R   0.674170 0.186160 0.516270 -0.590381
Zn1   Zn    Zn3+2 0.792340 0.208750 0.507670 0.956331
Zn2   Zn    Zn3+2 0.494040 0.500000 0.919480 0.907716
Zn3   Zn    Zn3+2 0.005960 0.000000 0.080520 0.919905
Zn4   Zn    Zn3+2 0.994040 0.000000 0.919480 0.907716
Zn5   Zn    Zn3+2 0.207660 0.791250 0.492330 0.972878
Zn6   Zn    Zn3+2 0.207660 0.208750 0.492330 0.969755
Zn7   Zn    Zn3+2 0.792340 0.791250 0.507670 0.994680
Zn8   Zn    Zn3+2 0.292340 0.708750 0.507670 0.956331
Zn9   Zn    Zn3+2 0.707660 0.291250 0.492330 0.972878
Zn10  Zn    Zn3+2 0.707660 0.708750 0.492330 0.969754
Zn11  Zn    Zn3+2 0.292340 0.291250 0.507670 0.994680
Zn12  Zn    Zn3+2 0.505960 0.500000 0.080520 0.919905

loop_
_geom_bond_atom_site_label_1
_geom_bond_atom_site_label_2
_ccdc_geom_bond_type
C64   N1    S    
C20   N21   S    
C108  C120  A    
H39   N6    S    
H83   N28   S    
O20   Zn11  S    
H65   N19   S    
C112  C158  S    
H27   N36   S    
H51   N13   S    
C50   C59   A    
C41   C143  S    
C52   C61   A    
C12   C126  A    
C8    N9    S    
C34   H5    S    
C58   C60   A    
C45   C139  S    
C39   O38   A    
C22   N24   S    
C61   C63   A    
C103  C126  A    
C134  O44   A    
C4    N5    S    
C62   C64   A    
C131  C140  A    
C91   C96   A    
C42   O30   A    
C50   C90   A    
H43   N8    S    
H54   N14   S    
C170  C187  A    
C70   C74   A    
C174  O2    A    
C4    C12   A    
C147  C155  A    
C24   C85   A    
O18   Zn9   S    
C88   C97   A    
C119  C128  A    
C109  C188  A    
O2    Zn8   S    
C101  O19   A    
C40   O39   A    
O11   Zn6   S    
H80   N27   S    
C109  C118  A    
C123  O21   A    
H20   N33   S    
C11   C20   A    
C150  C159  A    
O47   Zn11  S    
C165  C183  A    
O41   Zn2   S    
O34   Zn7   S    
C166  C184  A    
C177  O14   A    
C86   C90   A    
O4    Zn10  S    
C71   C73   A    
C106  C127  A    
C82   C91   A    
C51   C66   A    
C89   C181  S    
C142  C151  A    
H17   N31   S    
O39   Zn3   S    
H68   N20   S    
H18   N32   S    
C156  O25   A    
C52   C72   A    
H31   N3    S    
C131  C184  A    
C105  C114  A    
H72   N22   S    
C54   C70   A    
C26   N27   S    
C82   C178  A    
C167  O47   A    
H14   N23   S    
H69   N21   S    
O21   Zn10  S    
C177  O5    A    
C28   N29   S    
C36   C117  A    
H86   N30   S    
C7    C132  A    
H66   N20   S    
C38   C119  A    
C5    C130  A    
O42   Zn2   S    
C83   C100  A    
H35   N4    S    
C79   C85   A    
C62   N23   S    
O10   Zn5   S    
H26   N35   S    
C156  O46   A    
C57   C78   A    
C41   O29   A    
C8    C17   A    
H87   N30   S    
O12   Zn5   S    
C150  H34   S    
C56   C59   A    
C106  C115  A    
C80   C88   A    
H71   N22   S    
O46   Zn10  S    
C145  C161  S    
H44   N9    S    
C93   C173  S    
C84   C93   A    
C105  C184  A    
C86   C95   A    
C24   C77   A    
C104  C183  A    
C17   N18   S    
C54   C63   A    
C123  O34   A    
O37   Zn4   S    
C19   N20   S    
C14   N15   S    
C2    C81   A    
C36   H6    S    
C31   H2    S    
C110  C122  A    
C2    C75   A    
C145  O45   A    
C78   C87   A    
C134  C160  S    
C84   C102  A    
O44   Zn8   S    
C67   C77   A    
C97   N2    S    
C96   N36   S    
C60   N32   S    
C99   N4    S    
H62   N18   S    
O15   Zn9   S    
C133  C142  A    
C123  C159  S    
C32   H3    S    
C130  C183  A    
C3    C110  A    
C23   C166  A    
C69   C76   A    
H22   N34   S    
H76   N25   S    
C95   C175  S    
C167  O26   A    
C46   C82   A    
H74   N24   S    
C29   C38   A    
C149  C158  A    
C20   C122  A    
C152  C161  A    
H15   N23   S    
C135  C143  A    
H53   N14   S    
C48   C67   A    
C45   O33   A    
C18   N19   S    
O32   Zn2   S    
O43   Zn12  S    
C72   C75   A    
C135  C187  A    
C141  C150  A    
C11   N13   S    
C25   C168  A    
C37   H7    S    
C139  C148  A    
C162  C171  A    
O23   Zn6   S    
C181  O17   A    
H41   N7    S    
C157  C165  A    
H81   N27   S    
H42   N8    S    
H82   N28   S    
C92   C174  S    
C151  H45   S    
C174  O10   A    
C91   C180  S    
C9    C135  A    
C116  C125  A    
H37   N5    S    
C118  C127  A    
C152  H56   S    
C98   N3    S    
H46   N9    S    
C117  C126  A    
C132  C141  A    
O1    Zn1   S    
C108  C117  A    
H30   N2    S    
O13   Zn7   S    
C110  C119  A    
C79   F5    S    
O7    Zn7   S    
H29   N2    S    
H28   N36   S    
C28   C37   A    
H64   N19   S    
C47   C138  S    
O5    Zn5   S    
C21   N22   S    
C148  C157  A    
H57   N15   S    
C16   C127  A    
C51   C79   A    
C107  C116  A    
O38   Zn4   S    
C104  C113  A    
C9    C18   A    
C113  C121  A    
C44   C140  S    
C132  C185  A    
O8    Zn6   S    
H16   N31   S    
C38   H8    S    
C51   C60   A    
H59   N16   S    
C140  C149  A    
C31   C113  A    
C25   C33   A    
C101  O12   A    
O31   Zn12  S    
C129  C182  A    
C73   C74   A    
H10   N1    S    
C134  O22   A    
C5    N6    S    
C56   N35   S    
C175  O11   A    
C180  O7    A    
C40   O28   A    
H47   N10   S    
C107  C186  A    
C65   C76   A    
C171  C188  A    
O17   Zn11  S    
C169  C186  A    
C57   F3    S    
C179  O15   A    
C3    C172  A    
H40   N7    S    
H50   N11   S    
C103  C111  A    
O24   Zn1   S    
C154  H78   S    
C180  O16   A    
C181  O8    A    
C43   C141  S    
C104  C125  A    
H33   N4    S    
C65   C67   A    
C88   C177  S    
C16   N17   S    
C160  C169  A    
C3    C137  A    
C93   C99   A    
C81   C89   A    
C173  O48   A    
C101  C157  S    
C35   F1    S    
C21   C164  A    
O36   Zn3   S    
C130  C139  A    
C112  O20   A    
C33   C115  A    
C173  O9    A    
H36   N5    S    
C53   C57   A    
C33   H4    S    
H55   N15   S    
H9    N1    S    
C176  O13   A    
O14   Zn8   S    
C137  C146  A    
C90   F6    S    
C10   C19   A    
C48   C102  A    
C46   C54   A    
O28   Zn4   S    
C27   C170  A    
C5    C14   A    
C17   C121  A    
C143  C152  A    
C15   N16   S    
C15   C128  A    
C147  H1    S    
C107  C121  A    
O26   Zn6   S    
C6    N7    S    
C158  C166  A    
C100  F7    S    
C12   N14   S    
C115  C124  A    
C78   C178  A    
C106  C185  A    
C6    C131  A    
C47   O41   A    
O3    Zn11  S    
C1    O1    A    
O30   Zn3   S    
C4    C129  A    
O40   Zn12  S    
C27   C36   A    
C21   C30   A    
C13   C83   A    
H63   N18   S    
C153  C162  A    
C23   C32   A    
C11   C137  A    
O48   Zn9   S    
C136  C144  A    
C176  O4    A    
H32   N3    S    
O45   Zn9   S    
C39   C146  S    
C39   O27   A    
C63   N12   S    
H13   N12   S    
O22   Zn5   S    
H38   N6    S    
C24   C84   A    
C59   N33   S    
C164  C182  A    
C148  H12   S    
C61   N31   S    
H21   N33   S    
O33   Zn2   S    
H70   N21   S    
H77   N26   S    
C94   C176  S    
O35   Zn12  S    
C43   O42   A    
C68   C80   A    
C74   C178  A    
C44   O32   A    
C45   O40   A    
C103  C182  A    
C108  C187  A    
H48   N10   S    
C35   C81   A    
C41   O36   A    
C92   C98   A    
O16   Zn10  S    
C83   C92   A    
C14   C125  A    
H75   N25   S    
C10   C136  A    
C149  H23   S    
C66   C69   A    
C68   F4    S    
C34   C116  A    
C42   O37   A    
O9    Zn1   S    
C159  C168  A    
C7    N8    S    
C44   O43   A    
C144  C153  A    
C1    C155  S    
C6    C15   A    
C22   C165  A    
C26   C34   A    
C37   C118  A    
O25   Zn7   S    
C26   C169  A    
H84   N29   S    
C146  C154  A    
C13   C86   A    
C42   C142  S    
C55   C71   A    
H11   N12   S    
C145  O24   A    
C52   C68   A    
C49   C69   A    
C156  C162  S    
H85   N29   S    
C46   F2    S    
C153  H67   S    
C9    N10   S    
C50   C65   A    
H24   N34   S    
H25   N35   S    
O6    Zn1   S    
C19   C124  A    
C22   C31   A    
C129  C138  A    
C35   C55   A    
C154  C163  A    
H58   N16   S    
C29   N30   S    
C112  O23   A    
C49   C58   A    
C89   C97   A    
C111  C120  A    
O29   Zn4   S    
O19   Zn8   S    
C58   N34   S    
C163  C167  S    
C163  C172  A    
C179  O6    A    
H73   N24   S    
C85   C94   A    
C28   C171  A    
C13   C76   A    
C138  C147  A    
C87   C96   A    
C30   H88   S    
H60   N17   S    
C133  C186  A    
C161  C170  A    
H79   N26   S    
C175  O3    A    
C40   C144  S    
H52   N13   S    
C18   C120  A    
C47   O35   A    
C48   C56   A    
C7    C16   A    
C168  C185  A    
C105  C128  A    
C8    C133  A    
C53   C73   A    
C102  F8    S    
C43   O31   A    
C109  C124  A    
H19   N32   S    
C55   C64   A    
C155  C164  A    
C30   C111  A    
C151  C160  A    
C1    O18   A    
C49   C100  A    
C71   C75   A    
H61   N17   S    
C94   C99   A    
H49   N11   S    
O27   Zn3   S    
C23   N25   S    
C29   C172  A    
C2    C80   A    
C87   C179  S    
C114  C122  A    
C25   N26   S    
C53   C62   A    
C27   N28   S    
C70   C72   A    
C32   C114  A    
C95   C98   A    
C136  C188  A    
C66   C77   A    
C10   N11   S    
