data_mof_unit_41343.cif
_audit_creation_date              2012-12-10T19:14:56-0500
_audit_creation_method            fapswitch 2.2
_symmetry_space_group_name_H-M    P1
_symmetry_Int_Tables_number       1
_space_group_crystal_system       triclinic
_cell_length_a                    16.006241
_cell_length_b                    14.707145
_cell_length_c                    10.698896
_cell_angle_alpha                 90.047528
_cell_angle_beta                  89.91756
_cell_angle_gamma                 89.946361
_cell_volume                      2518.58087956

loop_
_atom_site_label
_atom_site_type_symbol
_atom_type_description
_atom_site_fract_x
_atom_site_fract_y
_atom_site_fract_z
_atom_type_partial_charge
C1    C     C_1   0.252059 0.500162 0.499904 -0.199542
C2    C     C_1   0.747849 0.499946 0.504017 -0.069087
C3    C     C_R   0.550696 0.499805 0.868232 -0.198248
C4    C     C_R   0.550456 0.499983 0.131273 -0.197246
C5    C     C_R   0.501209 0.902878 0.500136 0.058369
C6    C     C_R   0.501182 0.097116 0.500219 0.052141
C7    C     C_R   0.493034 0.952051 0.612391 -0.129934
C8    C     C_R   0.509873 0.047945 0.388041 -0.125735
C9    C     C_R   0.509886 0.951942 0.388000 -0.187210
C10   C     C_R   0.493019 0.048049 0.612433 -0.189853
C11   C     C_R   0.955511 0.584224 0.508364 0.044707
C12   C     C_R   0.044165 0.416272 0.507169 0.049333
C13   C     C_R   0.043896 0.584231 0.501514 0.051872
C14   C     C_R   0.955798 0.416348 0.514487 0.052966
C15   C     C_R   0.340884 0.500044 0.499812 0.856834
C16   C     C_R   0.659104 0.499966 0.500422 0.862996
C17   C     C_R   0.517266 0.499994 0.263448 0.804043
C18   C     C_R   0.517438 0.499949 0.736341 0.801011
C19   C     C_R   0.912541 0.500211 0.511256 0.030635
C20   C     C_R   0.087168 0.500249 0.502259 0.036645
C21   C     C_1   0.500502 0.802835 0.500016 0.142617
C22   C     C_1   0.500475 0.197161 0.500140 0.145385
C23   C     C_1   0.822640 0.500011 0.507772 -0.044204
C24   C     C_1   0.177164 0.500247 0.500474 -0.057830
C25   C     C_R   0.587300 0.665643 0.128474 0.041514
C26   C     C_R   0.587179 0.334037 0.870735 0.040853
C27   C     C_R   0.589820 0.664753 0.870301 0.029276
C28   C     C_R   0.588930 0.334670 0.128910 0.031322
C29   C     C_R   0.583798 0.747915 0.063905 -0.291566
C30   C     C_R   0.583053 0.251741 0.935119 -0.289457
C31   C     C_R   0.585527 0.747563 0.934508 -0.136083
C32   C     C_R   0.584439 0.251961 0.064506 -0.138912
C33   C     C_R   0.567027 0.582755 0.932966 -0.040880
C34   C     C_R   0.566729 0.416934 0.066427 -0.041396
C35   C     C_R   0.566360 0.582963 0.066082 0.091425
C36   C     C_R   0.566402 0.416788 0.933299 0.091562
Cu1   Cu    Cu3+1 0.500000 0.589220 0.500000 0.990341
Cu2   Cu    Cu3+1 0.500000 0.410780 0.500000 0.990843
H1    H     H_    0.595824 0.188145 0.112101 0.167043
H2    H     H_    0.597326 0.811235 0.886784 0.171480
H3    H     H_    0.593895 0.187982 0.886775 0.132635
H4    H     H_    0.594876 0.811627 0.112134 0.129499
H5    H     H_    0.486481 0.084018 0.700313 0.123492
H6    H     H_    0.516528 0.915970 0.300142 0.118614
H7    H     H_    0.516510 0.083835 0.300211 0.135480
H8    H     H_    0.486510 0.916162 0.700244 0.131080
N1    N     N_1   0.500000 0.276710 0.500000 -0.148020
N2    N     N_1   0.500000 0.723290 0.500000 -0.149771
O1    O     O_R   0.380310 0.575320 0.500020 -0.567686
O2    O     O_R   0.619690 0.424680 0.499980 -0.567959
O3    O     O_R   0.619690 0.575320 0.499980 -0.567087
O4    O     O_R   0.380310 0.424680 0.500020 -0.567679
O5    O     O_R   0.499990 0.575350 0.319650 -0.581878
O6    O     O_R   0.500010 0.424650 0.680350 -0.582611
O7    O     O_R   0.500010 0.575350 0.680350 -0.577537
O8    O     O_R   0.499990 0.424650 0.319650 -0.577266
C37   C     C_3   0.093089 0.672829 0.491343 -0.393530
C38   C     C_3   0.123039 0.704779 0.620252 -0.338386
C39   C     C_3   0.173742 0.792282 0.610200 -0.839338
H9    H     H_    0.229918 0.781169 0.550982 0.260144
H10   H     H_    0.135095 0.847410 0.569072 0.249361
H11   H     H_    0.194398 0.813796 0.704730 0.242160
H12   H     H_    0.068469 0.716940 0.682376 0.212446
H13   H     H_    0.162689 0.651532 0.663918 0.228677
H14   H     H_    0.147635 0.663651 0.428192 0.204183
H15   H     H_    0.056230 0.727213 0.445695 0.192590
C40   C     C_3   0.906713 0.328011 0.529140 -0.399308
C41   C     C_3   0.877158 0.291909 0.402114 -0.351527
C42   C     C_3   0.830892 0.201877 0.416741 -0.767388
H16   H     H_    0.872879 0.149639 0.457655 0.231508
H17   H     H_    0.775456 0.210726 0.478202 0.277606
H18   H     H_    0.809573 0.177737 0.323750 0.256383
H19   H     H_    0.834592 0.342001 0.357555 0.235150
H20   H     H_    0.931537 0.281542 0.339028 0.209232
H21   H     H_    0.943689 0.275413 0.578485 0.194303
H22   H     H_    0.851841 0.338878 0.591188 0.227375
C43   C     C_3   0.905888 0.672823 0.515351 -0.398773
C44   C     C_3   0.876873 0.702915 0.385169 -0.331882
C45   C     C_3   0.820499 0.786455 0.393086 -0.799200
H23   H     H_    0.764049 0.771185 0.449847 0.279423
H24   H     H_    0.854706 0.844250 0.435981 0.245481
H25   H     H_    0.800296 0.806416 0.297718 0.233798
H26   H     H_    0.931822 0.719100 0.325737 0.204771
H27   H     H_    0.841833 0.647043 0.339245 0.263113
H28   H     H_    0.850853 0.664169 0.577697 0.216953
H29   H     H_    0.942073 0.727958 0.560569 0.194485
C46   C     C_3   0.093606 0.327482 0.502165 -0.393928
C47   C     C_3   0.124576 0.300232 0.632542 -0.338206
C48   C     C_3   0.175417 0.212490 0.627410 -0.840429
H30   H     H_    0.136603 0.155932 0.590604 0.249584
H31   H     H_    0.231123 0.221478 0.566595 0.260309
H32   H     H_    0.196827 0.194415 0.722889 0.241994
H33   H     H_    0.164412 0.354982 0.672035 0.228539
H34   H     H_    0.070514 0.290305 0.696317 0.212462
H35   H     H_    0.056601 0.271450 0.460714 0.194529
H36   H     H_    0.147677 0.334498 0.437625 0.204443
C49   C     C_2   0.637058 0.667145 0.244378 0.401519
H37   H     H_    0.633765 0.725052 0.307159 0.070438
O9    O     O_2   0.686770 0.606223 0.265735 -0.606394
C50   C     C_2   0.637311 0.332206 0.754892 0.400718
H38   H     H_    0.633169 0.274828 0.691320 0.070552
O10   O     O_2   0.688422 0.391899 0.734631 -0.600580
C51   C     C_2   0.639439 0.662897 0.753298 0.420762
H39   H     H_    0.668398 0.599865 0.723718 0.070274
O11   O     O_2   0.650923 0.731632 0.691624 -0.575341
C52   C     C_2   0.637967 0.335811 0.246188 0.418373
H40   H     H_    0.667895 0.398245 0.275763 0.069662
O12   O     O_2   0.647482 0.267072 0.308517 -0.580424

loop_
_geom_bond_atom_site_label_1
_geom_bond_atom_site_label_2
_ccdc_geom_bond_type
C7    C10   A    
C46   C47   S    
C29   H4    S    
C16   O3    A    
C37   H15   S    
C49   H37   S    
C43   C44   S    
C27   C33   A    
C11   C19   A    
C16   O2    A    
Cu1   O3    S    
C13   C37   S    
C52   H40   S    
C3    C33   A    
C41   H20   S    
C6    C22   S    
C31   H2    S    
C3    C18   S    
C32   H1    S    
C42   H17   S    
C8    H7    S    
C11   C43   S    
C44   H26   S    
C20   C24   S    
C28   C52   S    
C8    C9    A    
C39   H11   S    
C46   H35   S    
C14   C40   S    
C30   H3    S    
C1    C15   S    
C48   H31   S    
C2    C16   S    
C13   C20   A    
C21   N2    T    
Cu1   O5    S    
C22   N1    T    
C4    C35   A    
C43   H28   S    
C39   H9    S    
C38   H13   S    
C49   O9    D    
C47   H34   S    
C25   C29   A    
C4    C34   A    
C39   H10   S    
C27   C31   A    
C40   C41   S    
C7    H8    S    
C28   C32   A    
C45   H24   S    
C44   C45   S    
C41   C42   S    
C6    C8    A    
C38   C39   S    
C48   H32   S    
C42   H18   S    
C19   C23   S    
C5    C9    A    
Cu1   Cu2   S    
Cu1   O1    S    
Cu2   O6    S    
C46   H36   S    
C12   C20   A    
C50   O10   D    
Cu2   O8    S    
C51   O11   D    
C15   O4    A    
Cu1   N2    S    
C17   O8    A    
Cu2   N1    S    
C18   O7    A    
C25   C35   A    
C4    C17   S    
C25   C49   S    
C12   C14   A    
C43   H29   S    
C26   C30   A    
C40   H21   S    
C17   O5    A    
C51   H39   S    
C5    C7    A    
C26   C36   A    
C38   H12   S    
C47   H33   S    
C9    H6    S    
C12   C46   S    
C10   H5    S    
C14   C19   A    
C37   H14   S    
C6    C10   A    
C45   H25   S    
Cu2   O2    S    
C41   H19   S    
C29   C31   A    
C30   C32   A    
C11   C13   A    
C37   C38   S    
C52   O12   D    
C3    C36   A    
Cu2   O4    S    
C27   C51   S    
C50   H38   S    
C33   C35   A    
C34   C36   A    
C15   O1    A    
C42   H16   S    
C18   O6    A    
C28   C34   A    
C45   H23   S    
Cu1   O7    S    
C44   H27   S    
C5    C21   S    
C47   C48   S    
C1    C24   T    
C2    C23   T    
C40   H22   S    
C48   H30   S    
C26   C50   S    
