data_mof_unit_64466.cif
_audit_creation_date              2012-12-10T19:35:15-0500
_audit_creation_method            fapswitch 2.2
_symmetry_space_group_name_H-M    P1
_symmetry_Int_Tables_number       1
_space_group_crystal_system       triclinic
_cell_length_a                    16.38345
_cell_length_b                    16.747197
_cell_length_c                    19.229879
_cell_angle_alpha                 90.219172
_cell_angle_beta                  93.12037
_cell_angle_gamma                 87.124723
_cell_volume                      5261.77566336

loop_
_atom_site_label
_atom_site_type_symbol
_atom_type_description
_atom_site_fract_x
_atom_site_fract_y
_atom_site_fract_z
_atom_type_partial_charge
C1    C     C_R   0.487976 0.652188 0.499739 0.877244
C2    C     C_R   0.512161 0.347938 0.498256 0.873108
C3    C     C_R   0.479273 0.737941 0.491806 -0.155488
C4    C     C_R   0.523113 0.263776 0.482546 -0.139946
C5    C     C_R   0.522955 0.788832 0.536698 -0.169578
C6    C     C_R   0.493254 0.233113 0.418151 -0.182668
C7    C     C_R   0.523049 0.869762 0.520729 0.622092
C8    C     C_R   0.509479 0.152795 0.402606 0.615642
C9    C     C_R   0.481013 0.899059 0.459529 -0.001775
C10   C     C_R   0.555874 0.104005 0.450562 0.003827
C11   C     C_R   0.432658 0.849293 0.418256 -0.199625
C12   C     C_R   0.590356 0.136159 0.511864 -0.179551
C13   C     C_R   0.431903 0.768701 0.434289 -0.187230
C14   C     C_R   0.573913 0.215918 0.527878 -0.197826
C15   C     C_2   0.485700 0.982176 0.439210 -0.106451
C16   C     C_2   0.557091 0.017587 0.444253 -0.066658
C17   C     C_R   0.757137 0.458545 0.467183 -0.126682
C18   C     C_R   0.242828 0.542357 0.532038 -0.127279
C19   C     C_R   0.842411 0.451393 0.471812 -0.066448
C20   C     C_R   0.157518 0.549357 0.527489 -0.066529
C21   C     C_R   0.886072 0.499739 0.519710 -0.031309
C22   C     C_R   0.113883 0.500161 0.480322 -0.030110
C23   C     C_R   0.500390 0.498828 0.634151 0.888440
C24   C     C_R   0.499603 0.501280 0.365857 0.876039
C25   C     C_R   0.841688 0.552424 0.563064 -0.226563
C26   C     C_R   0.158244 0.446504 0.437836 -0.225936
C27   C     C_R   0.755989 0.556553 0.556497 0.722469
C28   C     C_R   0.243915 0.442286 0.444516 0.725569
C29   C     C_2   0.976838 0.492980 0.526984 0.464438
C30   C     C_2   0.023147 0.506916 0.472976 0.464461
C31   C     C_R   0.433754 0.532953 0.741902 -0.216836
C32   C     C_R   0.566157 0.466319 0.258253 -0.219867
C33   C     C_R   0.431330 0.533514 0.813913 -0.063371
C34   C     C_R   0.568427 0.465041 0.186233 -0.061834
C35   C     C_R   0.497179 0.497443 0.854478 -0.113253
C36   C     C_R   0.502531 0.500806 0.145529 -0.113294
C37   C     C_R   0.564150 0.460462 0.822476 0.628491
C38   C     C_R   0.435540 0.537950 0.177384 0.628733
C39   C     C_R   0.566443 0.459907 0.750262 -0.155584
C40   C     C_R   0.433363 0.539162 0.249591 -0.151020
C41   C     C_R   0.500943 0.497081 0.709771 -0.163909
C42   C     C_R   0.499050 0.502565 0.290240 -0.162973
C43   C     C_R   0.502103 0.500039 0.069988 0.344458
C44   C     C_R   0.497699 0.498104 0.930025 0.344434
H1    H     H_    0.383197 0.561146 0.710696 0.171611
H2    H     H_    0.616733 0.438340 0.289580 0.170934
H3    H     H_    0.722565 0.420799 0.431828 0.162512
H4    H     H_    0.277375 0.580769 0.566805 0.163178
H5    H     H_    0.599739 0.240152 0.576092 0.170785
H6    H     H_    0.397661 0.729597 0.399882 0.172873
H7    H     H_    0.613459 0.983400 0.459153 0.183296
H8    H     H_    0.428750 0.016060 0.425638 0.188595
H9    H     H_    0.398311 0.872173 0.372211 0.186982
H10   H     H_    0.626168 0.098482 0.549062 0.202989
N1    N     N_R   0.521209 0.431117 0.966588 -0.080760
N2    N     N_R   0.478630 0.567024 0.033422 -0.082558
N3    N     N_R   0.523156 0.432009 0.035621 -0.143196
N4    N     N_R   0.476683 0.566132 0.964400 -0.145475
N5    N     N_R   0.716290 0.510230 0.508970 -0.148888
N6    N     N_R   0.283710 0.489770 0.491030 -0.148878
O1    O     O_R   0.422340 0.612130 0.496770 -0.630037
O2    O     O_R   0.577660 0.387870 0.503230 -0.629582
O3    O     O_R   0.561240 0.618700 0.502530 -0.566627
O4    O     O_R   0.438760 0.381300 0.497470 -0.564247
O5    O     O_R   0.430520 0.496720 0.598980 -0.626467
O6    O     O_R   0.569480 0.503280 0.401020 -0.627210
O7    O     O_R   0.569430 0.503290 0.604740 -0.573655
O8    O     O_R   0.430570 0.496710 0.395260 -0.578778
Zn1   Zn    Zn3+2 0.407250 0.495620 0.496160 1.011373
Zn2   Zn    Zn3+2 0.592750 0.504380 0.503840 1.012160
F1    F     F_    0.287768 0.392343 0.403473 -0.651918
F2    F     F_    0.711958 0.604967 0.598766 -0.650068
F3    F     F_    0.987121 0.527119 0.409586 -0.660687
F4    F     F_    0.012967 0.472929 0.590376 -0.660564
C45   C     C_1   0.882284 0.601650 0.614723 0.370304
N7    N     N_1   0.914364 0.641111 0.656356 -0.120139
C46   C     C_1   0.117699 0.396326 0.386906 0.368475
N8    N     N_1   0.085745 0.356083 0.345819 -0.120515
C47   C     C_1   0.117217 0.610732 0.568085 0.257065
N9    N     N_1   0.085367 0.660238 0.600588 -0.154727
C48   C     C_1   0.882533 0.390474 0.430630 0.257648
N10   N     N_1   0.914150 0.341285 0.397641 -0.154439
C49   C     C_1   0.359547 0.569209 0.844536 0.248181
N11   N     N_1   0.302025 0.597775 0.868988 -0.126031
C50   C     C_1   0.640111 0.428978 0.155734 0.249716
N12   N     N_1   0.697558 0.400113 0.131382 -0.125113
F5    F     F_    0.628077 0.426239 0.861723 -0.630415
F6    F     F_    0.371488 0.571730 0.137997 -0.630519
C51   C     C_1   0.635220 0.418748 0.719190 0.341330
N13   N     N_1   0.690226 0.385822 0.694330 -0.159150
C52   C     C_1   0.364388 0.580221 0.280448 0.334019
N14   N     N_1   0.309181 0.613032 0.305106 -0.166469
C53   C     C_1   0.566317 0.759377 0.599684 0.333240
N15   N     N_1   0.600765 0.735955 0.650258 -0.094042
C54   C     C_1   0.449774 0.283353 0.366008 0.348942
N16   N     N_1   0.415412 0.323068 0.323668 -0.098633
F7    F     F_    0.479441 0.121719 0.341535 -0.653120
F8    F     F_    0.563170 0.919893 0.565001 -0.673152

loop_
_geom_bond_atom_site_label_1
_geom_bond_atom_site_label_2
_ccdc_geom_bond_type
C46   N8    T    
C53   N15   T    
C7    F8    S    
C24   C42   S    
C54   N16   T    
C16   H7    S    
C8    F7    S    
C48   N10   T    
C39   C41   A    
C50   N12   T    
C19   C21   A    
C14   H5    S    
C15   C16   D    
O2    Zn2   S    
C23   O7    A    
C33   C35   A    
C44   N4    A    
O8    Zn1   S    
C31   C33   A    
C22   C30   S    
C18   C20   A    
C3    C13   A    
C24   O6    A    
C40   C42   A    
C11   H9    S    
C1    O3    A    
C2    O4    A    
C28   N6    A    
C26   C46   S    
C4    C6    A    
C52   N14   T    
C5    C7    A    
C30   F3    S    
C43   N3    A    
C6    C8    A    
C29   F4    S    
C15   H8    S    
C21   C29   S    
C13   H6    S    
C1    O1    A    
C1    C3    S    
C34   C50   S    
C32   C34   A    
C2    C4    S    
C45   N7    T    
C29   C30   D    
C9    C11   A    
C49   N11   T    
O3    Zn2   S    
O4    Zn1   S    
C35   C44   S    
C33   C49   S    
C10   C12   A    
C17   N5    A    
C18   N6    A    
C20   C22   A    
N1    N3    A    
C31   H1    S    
C28   F1    S    
O1    Zn1   S    
C7    C9    A    
C21   C25   A    
C31   C41   A    
C20   C47   S    
C35   C37   A    
C32   H2    S    
C37   F5    S    
C17   H3    S    
C12   C14   A    
C3    C5    A    
C18   H4    S    
C5    C53   S    
C25   C27   A    
C26   C28   A    
C23   C41   S    
O7    Zn2   S    
C23   O5    A    
C36   C38   A    
C9    C15   S    
C37   C39   A    
C27   N5    A    
C38   C40   A    
C11   C13   A    
C44   N1    A    
O6    Zn2   S    
N6    Zn1   S    
O5    Zn1   S    
C17   C19   A    
N2    N4    A    
C34   C36   A    
C40   C52   S    
C4    C14   A    
C24   O8    A    
N5    Zn2   S    
C47   N9    T    
C43   N2    A    
C8    C10   A    
C6    C54   S    
C22   C26   A    
C38   F6    S    
C32   C42   A    
C36   C43   S    
C10   C16   S    
C25   C45   S    
C51   N13   T    
C19   C48   S    
C39   C51   S    
C12   H10   S    
C27   F2    S    
C2    O2    A    
