data_mof_unit_45694.cif
_audit_creation_date              2012-10-26T21:10:24-0400
_audit_creation_method            fapswitch 2.2
_symmetry_space_group_name_H-M    P1
_symmetry_Int_Tables_number       1
_space_group_crystal_system       triclinic
_cell_length_a                    10.873237
_cell_length_b                    10.911133
_cell_length_c                    9.792521
_cell_angle_alpha                 90.730925
_cell_angle_beta                  91.584343
_cell_angle_gamma                 90.803405
_cell_volume                      1161.11945772

loop_
_atom_site_label
_atom_site_type_symbol
_atom_type_description
_atom_site_fract_x
_atom_site_fract_y
_atom_site_fract_z
_atom_type_partial_charge
C1    C     C_R   0.499133 0.265627 0.499392 0.574022
C2    C     C_R   0.860119 0.691121 0.895526 0.020138
C3    C     C_R   0.781111 0.619529 0.972090 -0.113702
C4    C     C_R   0.262584 0.497460 0.497905 0.588204
C5    C     C_R   0.773324 0.492450 0.951349 -0.075585
C6    C     C_R   0.832481 0.436916 0.841579 0.088152
C7    C     C_R   0.903147 0.511615 0.755897 0.032792
C8    C     C_2   0.513656 0.931957 0.389493 -0.167084
C9    C     C_2   0.511185 0.866778 0.504516 -0.120624
C10   C     C_2   0.521365 0.066037 0.390753 -0.170530
C11   C     C_2   0.492549 0.133364 0.500155 -0.103715
C12   C     C_R   0.238353 0.688730 0.031453 -0.133281
C13   C     C_2   0.453528 0.412009 0.918792 -0.017043
C14   C     C_2   0.443580 0.416446 0.072707 0.082484
C15   C     C_R   0.502591 0.734425 0.500849 0.544932
C16   C     C_R   0.737748 0.507122 0.502132 0.546981
C17   C     C_R   0.244318 0.759823 0.151018 -0.108191
C18   C     C_R   0.187333 0.718702 0.268298 -0.072628
C19   C     C_R   0.124312 0.605475 0.266859 0.024026
C20   C     C_R   0.118259 0.532704 0.146017 0.058163
C21   C     C_R   0.175717 0.576022 0.028668 -0.069333
C22   C     C_3   0.810970 0.302490 0.810824 -0.356990
C23   C     C_R   0.935501 0.575909 0.400379 -0.047384
C24   C     C_3   0.369677 0.312474 0.129914 -0.307395
C25   C     C_2   0.054145 0.411363 0.143441 0.193160
C26   C     C_3   0.865914 0.654319 0.299846 -0.379557
C27   C     C_2   0.122242 0.356039 0.698192 0.216545
C28   C     C_3   0.875859 0.825956 0.923780 -0.405933
C29   C     C_R   0.873120 0.518038 0.506541 0.001573
C30   C     C_R   0.940940 0.472160 0.618716 -0.074397
C31   C     C_R   0.064483 0.444756 0.603032 -0.023746
C32   C     C_R   0.128113 0.497509 0.494128 -0.008120
C33   C     C_R   0.063302 0.563621 0.392246 -0.061493
C34   C     C_R   0.921693 0.636538 0.788328 -0.085651
Cu1   Cu    Cu3+1 0.500020 0.500020 0.638630 0.956743
Cu2   Cu    Cu3+1 0.499980 0.499980 0.361370 0.922156
H1    H     H_    0.282699 0.720801 0.940695 0.114226
H2    H     H_    0.293093 0.847009 0.152791 0.108549
H3    H     H_    0.548653 0.566812 0.108784 0.185941
H4    H     H_    0.192424 0.774709 0.360468 0.108910
H5    H     H_    0.172991 0.522589 0.934857 0.142082
H6    H     H_    0.977690 0.693329 0.723627 0.108555
H7    H     H_    0.770396 0.289414 0.706358 0.145643
H8    H     H_    0.898890 0.252649 0.818131 0.145086
H9    H     H_    0.746866 0.260571 0.883884 0.117989
H10   H     H_    0.300793 0.276978 0.052894 0.127138
H11   H     H_    0.431341 0.235866 0.155768 0.117327
H12   H     H_    0.725621 0.663076 0.047940 0.078255
H13   H     H_    0.316991 0.340823 0.219043 0.199307
H14   H     H_    0.004580 0.379745 0.231133 0.129914
H15   H     H_    0.925033 0.718036 0.242613 0.133139
H16   H     H_    0.818717 0.591040 0.227151 0.161267
H17   H     H_    0.798113 0.711842 0.353011 0.137999
H18   H     H_    0.090328 0.348007 0.800750 0.162044
H19   H     H_    0.846250 0.878120 0.832273 0.133434
H20   H     H_    0.820527 0.856062 0.011477 0.124487
H21   H     H_    0.974208 0.847357 0.948309 0.143010
H22   H     H_    0.716180 0.438262 0.016919 0.113768
H23   H     H_    0.512527 0.886273 0.290231 0.143005
H24   H     H_    0.519662 0.909404 0.604854 0.100611
H25   H     H_    0.549870 0.109827 0.297709 0.137883
H26   H     H_    0.461472 0.092524 0.593529 0.114923
H27   H     H_    0.418059 0.330976 0.864856 0.171734
H28   H     H_    0.523717 0.579310 0.895807 0.203387
N1    N     N_2   0.498640 0.498660 0.846910 -0.365007
N2    N     N_2   0.498610 0.498630 0.153040 -0.337851
O1    O     O_R   0.500020 0.321960 0.617040 -0.485826
O2    O     O_2   0.201335 0.286004 0.660121 -0.512668
O3    O     O_R   0.499980 0.321920 0.382900 -0.505837
O4    O     O_R   0.319660 0.500030 0.617070 -0.464156
O5    O     O_R   0.319620 0.499990 0.382930 -0.505236
O6    O     O_R   0.500020 0.678080 0.617100 -0.505858
O7    O     O_R   0.499980 0.678040 0.382960 -0.501627
O8    O     O_R   0.680380 0.500010 0.617070 -0.488580
O9    O     O_R   0.680340 0.499970 0.382930 -0.509145
O10   O     O_2   0.056895 0.343624 0.043751 -0.575511

loop_
_geom_bond_atom_site_label_1
_geom_bond_atom_site_label_2
_ccdc_geom_bond_type
C12   C17   A    
C23   C33   A    
Cu1   O8    S    
C6    C7    A    
Cu2   O9    S    
C26   H16   S    
C16   O9    A    
C24   H13   S    
Cu1   Cu2   S    
C34   H6    S    
Cu2   O5    S    
Cu1   O1    S    
C30   C31   A    
C11   H26   S    
C24   H10   S    
H28   N1    S    
C2    C34   A    
C4    O4    A    
C17   C18   A    
C9    C15   S    
C27   H18   S    
H3    N2    S    
C7    C30   S    
C13   N1    D    
C26   H15   S    
C32   C33   A    
C15   O6    A    
C10   C11   D    
C4    C32   S    
C22   H8    S    
C5    H22   S    
C16   O8    A    
C23   C29   A    
C1    O1    A    
C28   H19   S    
C13   H27   S    
Cu1   O6    S    
C2    C3    A    
C17   H2    S    
C25   O10   D    
C8    H23   S    
C28   H20   S    
C5    C6    A    
C22   H7    S    
C7    C34   A    
Cu2   N2    S    
C10   H25   S    
Cu2   O7    S    
Cu1   N1    S    
C29   C30   A    
C4    O5    A    
C6    C22   S    
C26   H17   S    
C3    H12   S    
C21   H5    S    
C22   H9    S    
C20   C21   A    
C14   N2    D    
C20   C25   S    
C8    C10   S    
C18   C19   A    
C19   C33   S    
C23   C26   S    
C14   C24   S    
C12   H1    S    
Cu2   O3    S    
C18   H4    S    
C25   H14   S    
C2    C28   S    
C27   O2    D    
C13   C14   S    
C15   O7    A    
C16   C29   S    
C28   H21   S    
C24   H11   S    
C27   C31   S    
C12   C21   A    
C31   C32   A    
C1    O3    A    
C19   C20   A    
Cu1   O4    S    
C8    C9    D    
C3    C5    A    
C9    H24   S    
C1    C11   S    
