data_mof_unit_42389.cif
_audit_creation_date              2012-12-10T17:12:28-0500
_audit_creation_method            fapswitch 2.2
_symmetry_space_group_name_H-M    P1
_symmetry_Int_Tables_number       1
_space_group_crystal_system       triclinic
_cell_length_a                    11.685919
_cell_length_b                    12.935971
_cell_length_c                    11.810707
_cell_angle_alpha                 99.130512
_cell_angle_beta                  92.489477
_cell_angle_gamma                 93.238134
_cell_volume                      1757.48444399

loop_
_atom_site_label
_atom_site_type_symbol
_atom_type_description
_atom_site_fract_x
_atom_site_fract_y
_atom_site_fract_z
_atom_type_partial_charge
C1    C     C_R   0.496856 0.299925 0.479243 0.800452
C2    C     C_R   0.496030 0.700141 0.521010 0.790958
C3    C     C_R   0.386398 0.403064 0.029555 -0.336408
C4    C     C_R   0.613477 0.597106 0.970460 -0.338884
C5    C     C_R   0.398438 0.412240 0.148936 0.037034
C6    C     C_R   0.601150 0.588178 0.851114 0.045683
C7    C     C_R   0.551316 0.542997 0.153488 0.350944
C8    C     C_R   0.449097 0.456650 0.846482 0.344076
C9    C     C_R   0.541688 0.535543 0.031428 0.036018
C10   C     C_R   0.458202 0.464635 0.968625 0.033072
C11   C     C_R   0.284283 0.499769 0.501007 0.795897
C12   C     C_R   0.715717 0.500434 0.498981 0.815960
C13   C     C_1   0.162622 0.500358 0.502551 -0.187139
C14   C     C_1   0.837425 0.500827 0.497355 -0.182112
C15   C     C_1   0.060018 0.500757 0.501211 -0.007198
C16   C     C_1   0.940065 0.501010 0.498566 -0.013891
C17   C     C_R   0.488121 0.813703 0.534283 -0.119023
C18   C     C_R   0.478787 0.187322 0.469264 -0.095096
C19   C     C_R   0.341675 0.036696 0.424542 0.191941
C20   C     C_R   0.572142 0.981337 0.628376 0.174435
C21   C     C_R   0.373250 0.142039 0.422585 -0.242662
C22   C     C_R   0.560143 0.873677 0.619967 -0.232817
C23   C     C_R   0.556270 0.129583 0.522402 0.035058
C24   C     C_R   0.409005 0.862311 0.467699 0.027045
C25   C     C_R   0.517822 0.028980 0.542678 0.060179
C26   C     C_R   0.420198 0.974567 0.476794 0.056921
Cu1   Cu    Cu3+1 0.508350 0.507730 0.615930 0.931329
Cu2   Cu    Cu3+1 0.491650 0.492270 0.384070 0.921234
H1    H     H_    0.609696 0.836175 0.679964 0.163481
H2    H     H_    0.313356 0.191269 0.387277 0.145426
H3    H     H_    0.656726 0.636291 0.806785 0.132270
H4    H     H_    0.342653 0.364329 0.193285 0.136342
H5    H     H_    0.320082 0.347068 0.986803 0.158801
H6    H     H_    0.680216 0.652714 0.013057 0.157590
N1    N     N_R   0.520920 0.519350 0.790130 -0.177613
N2    N     N_R   0.479080 0.480650 0.209870 -0.176827
O1    O     O_R   0.505930 0.354460 0.582000 -0.586864
O2    O     O_R   0.494070 0.645540 0.418000 -0.591721
O3    O     O_R   0.491820 0.341410 0.386200 -0.585422
O4    O     O_R   0.508180 0.658590 0.613800 -0.581337
O5    O     O_R   0.344250 0.506540 0.597900 -0.577403
O6    O     O_R   0.655750 0.493460 0.402100 -0.579751
O7    O     O_R   0.330140 0.493480 0.402100 -0.586218
O8    O     O_R   0.669860 0.506520 0.597900 -0.577110
C27   C     C_3   0.323195 0.792410 0.383292 -0.362455
C28   C     C_3   0.360764 0.785476 0.259435 -0.320906
C29   C     C_3   0.279691 0.710494 0.175648 -0.832831
H7    H     H_    0.277836 0.630430 0.198671 0.268589
H8    H     H_    0.191576 0.738513 0.177044 0.245989
H9    H     H_    0.310010 0.706468 0.087327 0.242611
H10   H     H_    0.364328 0.864056 0.232841 0.213401
H11   H     H_    0.448308 0.756863 0.254172 0.237347
H12   H     H_    0.312644 0.712206 0.404176 0.204350
H13   H     H_    0.234437 0.814735 0.392012 0.187602
C30   C     C_3   0.682241 0.170235 0.542821 -0.425550
C31   C     C_3   0.737112 0.186631 0.430396 -0.354146
C32   C     C_3   0.866705 0.210251 0.449050 -0.846222
H14   H     H_    0.886239 0.278941 0.517756 0.262018
H15   H     H_    0.908296 0.141394 0.473782 0.249828
H16   H     H_    0.902907 0.228051 0.368395 0.245778
H17   H     H_    0.720358 0.114714 0.365134 0.224549
H18   H     H_    0.699995 0.253076 0.395969 0.227715
H19   H     H_    0.689719 0.244742 0.604884 0.212175
H20   H     H_    0.734341 0.113251 0.578798 0.226960
C33   C     C_3   0.217664 0.003339 0.388467 -0.888162
H21   H     H_    0.166604 0.071078 0.376446 0.224344
H22   H     H_    0.210023 0.950632 0.304633 0.238500
H23   H     H_    0.176045 0.968093 0.457277 0.228580
C34   C     C_3   0.631350 0.042086 0.737043 -0.904456
H24   H     H_    0.593889 0.014802 0.812834 0.240406
H25   H     H_    0.724345 0.028525 0.739397 0.226459
H26   H     H_    0.619091 0.127361 0.746256 0.242562
C35   C     C_3   0.359072 0.376865 0.782974 -0.798340
H27   H     H_    0.272737 0.397345 0.811555 0.197064
H28   H     H_    0.352973 0.368754 0.690188 0.275425
H29   H     H_    0.376586 0.297569 0.801599 0.197905
C36   C     C_3   0.643627 0.620570 0.216747 -0.817994
H30   H     H_    0.647213 0.631092 0.309692 0.277764
H31   H     H_    0.729268 0.596210 0.189827 0.204939
H32   H     H_    0.631052 0.700040 0.196071 0.181550

loop_
_geom_bond_atom_site_label_1
_geom_bond_atom_site_label_2
_ccdc_geom_bond_type
C30   C31   S    
C22   H1    S    
C18   C21   A    
C7    N2    A    
C29   H8    S    
C27   C28   S    
C6    N1    A    
C1    C18   S    
C24   C27   S    
C19   C21   A    
C24   C26   A    
C32   H15   S    
C20   C25   A    
C3    H5    S    
C15   C16   S    
C5    N2    A    
C28   H11   S    
C31   C32   S    
C35   H27   S    
C34   H25   S    
C19   C26   A    
C2    O2    A    
C12   O6    A    
Cu1   O8    S    
C33   H22   S    
C30   H19   S    
C11   O7    A    
C9    C10   A    
C1    O1    A    
C7    C36   S    
C5    H4    S    
C6    H3    S    
C27   H12   S    
C2    C17   S    
C35   H28   S    
C29   H9    S    
C36   H31   S    
C4    H6    S    
C17   C24   A    
C18   C23   A    
C4    C6    A    
C32   H16   S    
Cu2   O3    S    
Cu1   N1    S    
C25   C26   A    
C36   H30   S    
C28   H10   S    
C8    N1    A    
C34   H26   S    
Cu1   O5    S    
C29   H7    S    
Cu2   O2    S    
Cu1   O4    S    
C33   H23   S    
C30   H20   S    
C12   C14   S    
C27   H13   S    
C13   C15   T    
C35   H29   S    
C31   H18   S    
C20   C34   S    
C36   H32   S    
C7    C9    A    
C28   C29   S    
Cu2   O7    S    
C20   C22   A    
C3    C5    A    
C23   C30   S    
C21   H2    S    
C19   C33   S    
C17   C22   A    
C12   O8    A    
C3    C10   A    
C11   C13   S    
C32   H14   S    
Cu1   O1    S    
Cu2   O6    S    
C8    C35   S    
C11   O5    A    
C14   C16   T    
C23   C25   A    
C34   H24   S    
C1    O3    A    
C2    O4    A    
Cu2   N2    S    
C8    C10   A    
C33   H21   S    
Cu1   Cu2   S    
C31   H17   S    
C4    C9    A    
