data_mof_unit_59748.cif
_audit_creation_date              2012-12-10T17:33:42-0500
_audit_creation_method            fapswitch 2.2
_symmetry_space_group_name_H-M    P1
_symmetry_Int_Tables_number       1
_space_group_crystal_system       triclinic
_cell_length_a                    11.689562
_cell_length_b                    12.338945
_cell_length_c                    13.18847
_cell_angle_alpha                 116.608075
_cell_angle_beta                  77.859619
_cell_angle_gamma                 101.020156
_cell_volume                      1652.49745163

loop_
_atom_site_label
_atom_site_type_symbol
_atom_type_description
_atom_site_fract_x
_atom_site_fract_y
_atom_site_fract_z
_atom_type_partial_charge
C1    C     C_R   0.510293 0.854875 0.286630 0.770411
C2    C     C_R   0.460422 0.227899 0.834566 -0.047510
C3    C     C_R   0.589678 0.814741 0.085931 -0.188518
C4    C     C_R   0.615102 0.735475 0.971595 -0.145821
C5    C     C_R   0.574428 0.612255 0.933869 -0.181230
C6    C     C_R   0.502715 0.565957 0.009908 0.079571
C7    C     C_R   0.466242 0.649760 0.123719 0.076820
C8    C     C_R   0.464834 0.439534 0.976483 0.074217
C9    C     C_R   0.384277 0.400295 0.053526 0.165776
C10   C     C_R   0.339721 0.485698 0.160205 -0.242272
C11   C     C_R   0.378182 0.608626 0.193957 -0.194729
C12   C     C_R   0.715702 0.999437 0.499653 0.818944
C13   C     C_R   0.504605 0.350499 0.868632 -0.253244
C14   C     C_R   0.383549 0.190029 0.912237 -0.196235
C15   C     C_R   0.518088 0.772833 0.163649 -0.109777
C16   C     C_R   0.683933 0.340827 0.323800 -0.308921
C17   C     C_R   0.343686 0.760547 0.646591 0.089182
C18   C     C_R   0.310046 0.664459 0.678387 -0.256079
C19   C     C_R   0.369126 0.560554 0.622354 -0.176189
C20   C     C_R   0.463493 0.551387 0.533203 -0.008946
C21   C     C_R   0.494891 0.652308 0.504124 0.232715
C22   C     C_R   0.527796 0.446751 0.472697 -0.060489
C23   C     C_R   0.483388 0.145038 0.713336 0.795611
C24   C     C_R   0.621352 0.444128 0.382864 0.103933
C25   C     C_R   0.651418 0.544277 0.353969 0.083721
C26   C     C_R   0.589132 0.646136 0.416696 -0.181078
C27   C     C_R   0.503087 0.343383 0.497666 0.038642
C28   C     C_R   0.655136 0.243332 0.352993 0.086765
C29   C     C_R   0.284313 0.000323 0.500022 0.815644
C30   C     C_1   0.837366 0.998786 0.499498 -0.191546
C31   C     C_1   0.940004 0.999001 0.499338 -0.003731
C32   C     C_1   0.060036 0.999821 0.499332 -0.002754
C33   C     C_1   0.162671 0.000426 0.499543 -0.186487
C34   C     C_R   0.346271 0.275918 0.021651 -0.193266
Cu1   Cu    Cu3+1 0.526510 0.098270 0.475420 0.936109
Cu2   Cu    Cu3+1 0.473490 0.901730 0.524580 0.922508
H1    H     H_    0.348408 0.095197 0.886885 0.147593
H2    H     H_    0.755605 0.333590 0.255117 0.128821
H3    H     H_    0.433910 0.337554 0.563827 0.121908
H4    H     H_    0.297463 0.840929 0.690496 0.121719
H5    H     H_    0.338839 0.489257 0.650783 0.134556
H6    H     H_    0.237918 0.670483 0.746669 0.143174
H7    H     H_    0.616917 0.720981 0.396056 0.227880
H8    H     H_    0.274164 0.457456 0.217775 0.146109
H9    H     H_    0.284756 0.245576 0.080143 0.134391
H10   H     H_    0.568859 0.373847 0.807973 0.148321
H11   H     H_    0.628964 0.908617 0.114106 0.151391
H12   H     H_    0.598902 0.556583 0.844122 0.129820
H13   H     H_    0.669920 0.769073 0.912281 0.142824
H14   H     H_    0.335250 0.670780 0.274769 0.177221
H15   H     H_    0.703290 0.164356 0.307278 0.120517
N1    N     N_R   0.566700 0.246290 0.438210 -0.181514
N2    N     N_R   0.434010 0.754320 0.561170 -0.200479
O1    O     O_R   0.533340 0.972510 0.318140 -0.579824
O2    O     O_R   0.488570 0.806530 0.359650 -0.607071
O3    O     O_R   0.685190 0.083000 0.479260 -0.572883
O4    O     O_R   0.640410 0.917020 0.520770 -0.592332
O5    O     O_R   0.511430 0.193470 0.640350 -0.587076
O6    O     O_R   0.466660 0.027490 0.681860 -0.586431
O7    O     O_R   0.359590 0.082980 0.479230 -0.572986
O8    O     O_R   0.314810 0.917000 0.520740 -0.584965
C35   C     C_3   0.750702 0.540945 0.256224 -0.390108
C36   C     C_3   0.775408 0.651517 0.227906 -0.849478
H16   H     H_    0.696060 0.664958 0.203038 0.258750
H17   H     H_    0.804677 0.734892 0.301844 0.247013
H18   H     H_    0.847128 0.635507 0.154321 0.245840
H19   H     H_    0.833800 0.530007 0.277241 0.204779
H20   H     H_    0.729168 0.460135 0.176690 0.210774

loop_
_geom_bond_atom_site_label_1
_geom_bond_atom_site_label_2
_ccdc_geom_bond_type
C16   C28   A    
C23   O5    A    
C23   O6    A    
C1    O1    A    
C36   H17   S    
C24   C25   A    
C14   C34   A    
C8    C13   A    
C1    C15   S    
C29   C33   S    
C25   C35   S    
C21   N2    A    
C9    C10   A    
C9    C34   A    
C19   C20   A    
C29   O7    A    
C35   H20   S    
C4    H13   S    
C21   C26   A    
Cu2   O6    S    
C32   C33   T    
C7    C15   A    
C17   C18   A    
C1    O2    A    
C36   H18   S    
C16   C24   A    
C11   H14   S    
C12   O3    A    
C27   N1    A    
Cu1   O1    S    
C7    C11   A    
C28   N1    A    
C30   C31   T    
C35   C36   S    
C34   H9    S    
C35   H19   S    
Cu1   O5    S    
C12   O4    A    
C3    H11   S    
C28   H15   S    
C20   C22   A    
C26   H7    S    
Cu2   O4    S    
C6    C7    A    
C29   O8    A    
C22   C27   A    
C18   H6    S    
C5    C6    A    
C2    C14   A    
C5    H12   S    
C22   C24   A    
Cu1   O3    S    
C10   C11   A    
C10   H8    S    
Cu2   O8    S    
Cu1   O7    S    
C17   N2    A    
Cu1   N1    S    
C3    C15   A    
C20   C21   A    
C18   C19   A    
C16   H2    S    
C2    C23   S    
Cu2   O2    S    
C2    C13   A    
C13   H10   S    
C8    C9    A    
C6    C8    A    
Cu2   N2    S    
C12   C30   S    
C25   C26   A    
C36   H16   S    
C17   H4    S    
C31   C32   S    
C3    C4    A    
C19   H5    S    
C27   H3    S    
C4    C5    A    
C14   H1    S    
Cu1   Cu2   S    
