data_mof_unit_58111.cif
_audit_creation_date              2012-12-10T19:56:43-0500
_audit_creation_method            fapswitch 2.2
_symmetry_space_group_name_H-M    P1
_symmetry_Int_Tables_number       1
_space_group_crystal_system       triclinic
_cell_length_a                    28.793013
_cell_length_b                    18.285009
_cell_length_c                    18.237613
_cell_angle_alpha                 89.999314
_cell_angle_beta                  130.972262
_cell_angle_gamma                 90.000743
_cell_volume                      7249.57970422

loop_
_atom_site_label
_atom_site_type_symbol
_atom_type_description
_atom_site_fract_x
_atom_site_fract_y
_atom_site_fract_z
_atom_type_partial_charge
C1    C     C_R   0.500566 0.000052 0.359359 0.939537
C2    C     C_R   0.220897 0.035325 0.279610 -0.055088
C3    C     C_R   0.804287 0.401956 0.134198 -0.226573
C4    C     C_R   0.679682 0.845467 0.897966 0.128527
C5    C     C_R   0.320307 0.845476 0.102025 0.128516
C6    C     C_R   0.179676 0.345455 0.897947 0.128536
C7    C     C_R   0.820297 0.345504 0.102001 0.128529
C8    C     C_R   0.652441 0.781118 0.841601 0.043588
C9    C     C_R   0.347549 0.781124 0.158382 0.043589
C10   C     C_R   0.152430 0.281109 0.841576 0.043586
C11   C     C_R   0.847541 0.281146 0.158345 0.043594
C12   C     C_R   0.783967 0.948413 0.827864 -0.052844
C13   C     C_R   0.279103 0.535323 0.720388 -0.055075
C14   C     C_R   0.216032 0.948402 0.172148 -0.052850
C15   C     C_R   0.283967 0.448404 0.827856 -0.052846
C16   C     C_R   0.716032 0.448395 0.172155 -0.052855
C17   C     C_1   0.632960 0.722091 0.868653 0.122415
C18   C     C_1   0.367022 0.722099 0.131316 0.122430
C19   C     C_1   0.132943 0.222083 0.868621 0.122410
C20   C     C_1   0.867011 0.222131 0.131261 0.122422
C21   C     C_1   0.892044 0.139366 0.571649 0.139015
C22   C     C_1   0.107979 0.139500 0.428328 0.139015
C23   C     C_1   0.392024 0.639443 0.571651 0.139013
C24   C     C_R   0.720897 0.535318 0.279616 -0.055138
C25   C     C_1   0.607977 0.639549 0.428309 0.139011
C26   C     C_3   0.911151 0.228704 0.734749 -0.441301
C27   C     C_3   0.954098 0.251948 0.716584 -0.321280
C28   C     C_3   0.997182 0.312934 0.786039 -0.876325
C29   C     C_3   0.088892 0.228792 0.265223 -0.441280
C30   C     C_3   0.045871 0.251987 0.283258 -0.321304
C31   C     C_3   0.002753 0.312918 0.213716 -0.876314
C32   C     C_3   0.411122 0.728756 0.734754 -0.441279
C33   C     C_3   0.454116 0.751966 0.716671 -0.321288
C34   C     C_3   0.497222 0.812917 0.786180 -0.876331
C35   C     C_R   0.715505 0.039817 0.662506 -0.049153
C36   C     C_3   0.588906 0.728822 0.265210 -0.441274
C37   C     C_3   0.545855 0.752000 0.283192 -0.321301
C38   C     C_3   0.502726 0.812910 0.213615 -0.876325
C39   C     C_3   0.832480 0.183171 0.777217 -0.424027
C40   C     C_3   0.779916 0.238998 0.713564 -0.338453
C41   C     C_3   0.742042 0.247000 0.744412 -0.854989
C42   C     C_3   0.167568 0.183205 0.222779 -0.424012
C43   C     C_3   0.220044 0.239143 0.286400 -0.338436
C44   C     C_3   0.258044 0.247120 0.255774 -0.855085
C45   C     C_3   0.332443 0.683196 0.777203 -0.424018
C46   C     C_R   0.284493 0.039826 0.337485 -0.049198
C47   C     C_3   0.279949 0.739110 0.713565 -0.338440
C48   C     C_3   0.241989 0.747120 0.744257 -0.855088
C49   C     C_3   0.667599 0.683218 0.222800 -0.424011
C50   C     C_3   0.720047 0.739188 0.286430 -0.338421
C51   C     C_3   0.758080 0.747190 0.255868 -0.855132
C52   C     C_1   0.668323 0.809835 0.656277 0.195677
C53   C     C_1   0.331693 0.809824 0.343738 0.195710
C54   C     C_1   0.168316 0.309829 0.656257 0.195688
C55   C     C_1   0.831707 0.309811 0.343730 0.195740
C56   C     C_3   0.698743 0.852364 0.997295 -0.470057
C57   C     C_R   0.215507 0.539825 0.662516 -0.049177
C58   C     C_3   0.663048 0.912625 0.999899 -0.313636
C59   C     C_3   0.685543 0.921379 0.102078 -0.802806
C60   C     C_3   0.301245 0.852385 0.002695 -0.470051
C61   C     C_3   0.336935 0.912658 0.000096 -0.313706
C62   C     C_3   0.314457 0.921407 0.897927 -0.802729
C63   C     C_3   0.198736 0.352348 0.997276 -0.470043
C64   C     C_3   0.163048 0.412615 0.999887 -0.313665
C65   C     C_3   0.185532 0.421351 0.102060 -0.802805
C66   C     C_3   0.801230 0.352429 0.002670 -0.470060
C67   C     C_3   0.836932 0.412696 0.000091 -0.313695
C68   C     C_R   0.784492 0.539824 0.337486 -0.049198
C69   C     C_3   0.814439 0.421485 0.897917 -0.802694
C70   C     C_1   0.819439 0.896519 0.907984 0.197804
C71   C     C_1   0.180559 0.896503 0.092034 0.197788
C72   C     C_1   0.319439 0.396507 0.907973 0.197788
C73   C     C_1   0.680559 0.396496 0.092041 0.197785
C74   C     C_1   0.680154 0.084670 0.575347 0.183775
C75   C     C_1   0.319836 0.084713 0.424613 0.183766
C76   C     C_1   0.180162 0.584706 0.575381 0.183791
C77   C     C_1   0.819832 0.584727 0.424601 0.183697
C78   C     C_3   0.773037 0.951791 0.574703 -0.412842
C79   C     C_R   0.686290 0.997236 0.686300 -0.145503
C80   C     C_3   0.717012 0.958790 0.465753 -0.343460
C81   C     C_3   0.675086 0.892267 0.427530 -0.862909
C82   C     C_3   0.226919 0.951826 0.425274 -0.412867
C83   C     C_3   0.282948 0.958822 0.534221 -0.343348
C84   C     C_3   0.324760 0.892183 0.572511 -0.863080
C85   C     C_3   0.273056 0.451812 0.574712 -0.412856
C86   C     C_3   0.217027 0.458814 0.465765 -0.343411
C87   C     C_3   0.175151 0.392238 0.427510 -0.862972
C88   C     C_3   0.726891 0.451831 0.425263 -0.412882
C89   C     C_3   0.782925 0.458827 0.534206 -0.343236
C90   C     C_R   0.313709 0.997234 0.313703 -0.145458
C91   C     C_3   0.824618 0.392070 0.572561 -0.863271
C92   C     C_R   0.186291 0.497236 0.686299 -0.145471
C93   C     C_R   0.499434 0.000052 0.640641 0.939547
C94   C     C_R   0.813709 0.497233 0.313706 -0.145422
C95   C     C_R   0.719938 0.947560 0.765282 -0.046717
C96   C     C_R   0.280061 0.947550 0.234730 -0.046688
C97   C     C_R   0.219938 0.447551 0.765273 -0.046696
C98   C     C_R   0.780061 0.447546 0.234736 -0.046678
C99   C     C_R   0.806743 0.024385 0.615922 0.111353
C100  C     C_R   0.193237 0.024434 0.384051 0.111387
C101  C     C_R   0.306752 0.524412 0.615936 0.111379
C102  C     C_R   0.693223 0.524447 0.384040 0.111404
C103  C     C_R   0.835787 0.051109 0.583397 -0.257765
C104  C     C_R   0.000566 0.500052 0.359359 0.939539
C105  C     C_R   0.164197 0.051188 0.416568 -0.257768
C106  C     C_R   0.335792 0.551153 0.583412 -0.257768
C107  C     C_R   0.664180 0.551213 0.416547 -0.257775
C108  C     C_R   0.867377 0.117350 0.616199 0.027522
C109  C     C_R   0.132632 0.117445 0.383770 0.027480
C110  C     C_R   0.367368 0.617404 0.616210 0.027491
C111  C     C_R   0.632628 0.617478 0.383752 0.027472
C112  C     C_R   0.871671 0.159616 0.686141 0.094847
C113  C     C_R   0.128355 0.159693 0.313833 0.094807
C114  C     C_R   0.371651 0.659661 0.686147 0.094822
C115  C     C_R   0.999435 0.500052 0.640642 0.939570
C116  C     C_R   0.628363 0.659719 0.313822 0.094807
C117  C     C_R   0.838974 0.134799 0.715914 0.064727
C118  C     C_R   0.161053 0.134849 0.284073 0.064744
C119  C     C_R   0.338954 0.634829 0.715914 0.064736
C120  C     C_R   0.661065 0.634863 0.284073 0.064732
C121  C     C_R   0.620271 0.999521 0.622948 0.890249
C122  C     C_R   0.379729 0.999521 0.377055 0.890249
C123  C     C_R   0.120271 0.499521 0.622946 0.890239
C124  C     C_R   0.879729 0.499521 0.377056 0.890264
C125  C     C_R   0.808641 0.065863 0.683404 0.082658
C126  C     C_R   0.813274 0.995174 0.808114 -0.163939
C127  C     C_R   0.191357 0.065894 0.316574 0.082687
C128  C     C_R   0.308641 0.565880 0.683416 0.082678
C129  C     C_R   0.691356 0.565901 0.316571 0.082701
C130  C     C_1   0.501672 0.000481 0.284005 -0.182813
C131  C     C_1   0.498328 0.000480 0.715995 -0.182846
C132  C     C_1   0.001672 0.500481 0.284005 -0.182835
C133  C     C_1   0.998329 0.500481 0.715996 -0.182870
C134  C     C_1   0.501983 0.001100 0.219489 -0.209991
C135  C     C_1   0.498018 0.001099 0.780511 -0.209998
C136  C     C_1   0.001982 0.501101 0.219489 -0.210001
C137  C     C_R   0.186725 0.995169 0.191889 -0.163932
C138  C     C_1   0.998018 0.501100 0.780512 -0.210007
C139  C     C_R   0.999997 0.141334 0.999996 0.922141
C140  C     C_R   0.499998 0.641334 0.999997 0.922155
C141  C     C_R   0.879572 0.999750 0.878104 0.883581
C142  C     C_R   0.120428 0.999750 0.121897 0.883629
C143  C     C_R   0.379572 0.499749 0.878103 0.883616
C144  C     C_R   0.620428 0.499749 0.121897 0.883647
C145  C     C_R   0.000000 0.858735 0.000000 0.938030
C146  C     C_R   0.500000 0.358735 0.000000 0.938028
C147  C     C_R   0.500000 0.140910 0.000000 0.940288
C148  C     C_R   0.313274 0.495170 0.808112 -0.163925
C149  C     C_R   0.000000 0.640910 0.000000 0.940287
C150  C     C_R   0.500718 0.000960 0.141646 0.924486
C151  C     C_R   0.499282 0.000957 0.858354 0.924519
C152  C     C_R   0.000718 0.500959 0.141646 0.924502
C153  C     C_R   0.999282 0.500956 0.858354 0.924548
C154  C     C_R   0.499999 0.859089 0.999996 0.941204
C155  C     C_R   0.999999 0.359089 0.999995 0.941197
C156  C     C_1   0.999996 0.217855 0.999990 -0.273620
C157  C     C_1   0.499997 0.717855 0.999992 -0.273628
C158  C     C_R   0.646150 0.772214 0.759232 -0.256473
C159  C     C_R   0.686725 0.495164 0.191893 -0.163925
C160  C     C_R   0.353847 0.772214 0.240757 -0.256458
C161  C     C_R   0.146140 0.272209 0.759207 -0.256484
C162  C     C_R   0.853847 0.272224 0.240726 -0.256478
C163  C     C_1   0.499998 0.782642 0.999991 -0.219786
C164  C     C_1   0.999997 0.282642 0.999990 -0.219762
C165  C     C_1   0.000000 0.782225 0.000001 -0.174582
C166  C     C_1   0.500000 0.282225 0.000001 -0.174576
C167  C     C_1   0.500000 0.217434 0.000001 -0.176744
C168  C     C_1   0.000000 0.717434 0.000001 -0.176745
C169  C     C_R   0.667138 0.826064 0.732547 0.061349
C170  C     C_R   0.779102 0.035322 0.720385 -0.054979
C171  C     C_R   0.332865 0.826059 0.267455 0.061341
C172  C     C_R   0.167133 0.326057 0.732529 0.061354
C173  C     C_R   0.832869 0.326060 0.267440 0.061338
C174  C     C_R   0.689911 0.892970 0.783681 0.053573
C175  C     C_R   0.310088 0.892967 0.216325 0.053566
C176  C     C_R   0.189909 0.392960 0.783669 0.053571
C177  C     C_R   0.810088 0.392972 0.216320 0.053560
C178  C     C_R   0.695700 0.901933 0.865795 -0.226567
C179  C     C_R   0.304292 0.901936 0.134205 -0.226556
C180  C     C_R   0.195699 0.401920 0.865783 -0.226564
H1    H     H_    0.627462 0.721572 0.718299 0.154512
H2    H     H_    0.166284 0.019399 0.468934 0.151909
H3    H     H_    0.689800 0.008085 0.452026 0.242999
H4    H     H_    0.732628 0.964726 0.424203 0.215980
H5    H     H_    0.805076 0.910005 0.585434 0.199550
H6    H     H_    0.757861 0.930749 0.613045 0.224341
H7    H     H_    0.298625 0.841482 0.557948 0.260897
H8    H     H_    0.345098 0.888193 0.537884 0.279513
H9    H     H_    0.362728 0.898101 0.652025 0.254370
H10   H     H_    0.310243 0.008014 0.547905 0.242950
H11   H     H_    0.267338 0.964942 0.575759 0.216038
H12   H     H_    0.194865 0.910066 0.414547 0.199613
H13   H     H_    0.333697 0.519358 0.531042 0.151914
H14   H     H_    0.242092 0.930758 0.386938 0.224302
H15   H     H_    0.201240 0.341484 0.442104 0.260945
H16   H     H_    0.154809 0.388359 0.462139 0.279480
H17   H     H_    0.137189 0.398145 0.347993 0.254387
H18   H     H_    0.189778 0.508062 0.452064 0.242971
H19   H     H_    0.232638 0.464837 0.424218 0.216007
H20   H     H_    0.305100 0.410039 0.585435 0.199577
H21   H     H_    0.257883 0.430755 0.613054 0.224327
H22   H     H_    0.798397 0.341472 0.558079 0.260816
H23   H     H_    0.844933 0.387855 0.537916 0.279576
H24   H     H_    0.666253 0.519427 0.468901 0.151899
H25   H     H_    0.862606 0.398019 0.652065 0.254361
H26   H     H_    0.810307 0.507911 0.547845 0.242908
H27   H     H_    0.767327 0.465142 0.575738 0.216101
H28   H     H_    0.694829 0.410089 0.414544 0.199685
H29   H     H_    0.742060 0.430745 0.386928 0.224254
H30   H     H_    0.970179 0.358230 0.782300 0.254817
H31   H     H_    0.030014 0.292179 0.861810 0.264873
H32   H     H_    0.023698 0.333927 0.765900 0.264793
H33   H     H_    0.983227 0.205160 0.729324 0.246050
H34   H     H_    0.926449 0.272926 0.641261 0.247314
H35   H     H_    0.880737 0.275393 0.716812 0.201384
H36   H     H_    0.941796 0.219178 0.813658 0.234759
H37   H     H_    0.372538 0.721569 0.281687 0.154513
H38   H     H_    0.029728 0.358220 0.217396 0.254778
H39   H     H_    0.969938 0.292104 0.137974 0.264927
H40   H     H_    0.976218 0.333921 0.233816 0.264724
H41   H     H_    0.016769 0.205164 0.270521 0.246049
H42   H     H_    0.073464 0.273004 0.358553 0.247341
H43   H     H_    0.119320 0.275490 0.283248 0.201300
H44   H     H_    0.058296 0.219297 0.186317 0.234772
H45   H     H_    0.470238 0.858218 0.782477 0.254792
H46   H     H_    0.530043 0.792125 0.861932 0.264901
H47   H     H_    0.523751 0.833915 0.766064 0.264756
H48   H     H_    0.127448 0.221568 0.718269 0.154518
H49   H     H_    0.483226 0.705155 0.729409 0.246051
H50   H     H_    0.426502 0.772968 0.641365 0.247332
H51   H     H_    0.380700 0.775451 0.716758 0.201327
H52   H     H_    0.441734 0.719251 0.813662 0.234768
H53   H     H_    0.529692 0.858214 0.217275 0.254767
H54   H     H_    0.469919 0.792072 0.137884 0.264945
H55   H     H_    0.476182 0.833919 0.233698 0.264694
H56   H     H_    0.516764 0.705164 0.270454 0.246060
H57   H     H_    0.573426 0.773032 0.358475 0.247344
H58   H     H_    0.619340 0.775522 0.283270 0.201269
H59   H     H_    0.872541 0.221576 0.281647 0.154514
H60   H     H_    0.558333 0.719338 0.186306 0.234777
H61   H     H_    0.717297 0.195232 0.730828 0.271904
H62   H     H_    0.772317 0.260407 0.822777 0.257806
H63   H     H_    0.707737 0.291457 0.702010 0.248783
H64   H     H_    0.799477 0.293231 0.719212 0.209299
H65   H     H_    0.748363 0.222748 0.635803 0.237857
H66   H     H_    0.825053 0.149543 0.819334 0.214026
H67   H     H_    0.875479 0.212586 0.834829 0.183493
H68   H     H_    0.282925 0.195404 0.269679 0.271947
H69   H     H_    0.227839 0.260342 0.177364 0.257817
H70   H     H_    0.717534 0.950981 0.909303 0.149689
H71   H     H_    0.292238 0.291695 0.298069 0.248758
H72   H     H_    0.200384 0.293362 0.280512 0.209301
H73   H     H_    0.251533 0.223014 0.364204 0.237852
H74   H     H_    0.175108 0.149581 0.180803 0.214073
H75   H     H_    0.124539 0.212520 0.165051 0.183425
H76   H     H_    0.217134 0.695400 0.730441 0.271936
H77   H     H_    0.272218 0.760393 0.822655 0.257824
H78   H     H_    0.207774 0.791670 0.701933 0.248767
H79   H     H_    0.299587 0.793325 0.719376 0.209309
H80   H     H_    0.248439 0.722940 0.635776 0.237853
H81   H     H_    0.282456 0.950986 0.090702 0.149686
H82   H     H_    0.324925 0.649577 0.819210 0.214064
H83   H     H_    0.375467 0.712533 0.834905 0.183448
H84   H     H_    0.782993 0.695492 0.269827 0.271960
H85   H     H_    0.727895 0.760390 0.177454 0.257825
H86   H     H_    0.792249 0.791789 0.298164 0.248757
H87   H     H_    0.700357 0.793396 0.280496 0.209305
H88   H     H_    0.751519 0.723077 0.364240 0.237860
H89   H     H_    0.675185 0.649597 0.180879 0.214093
H90   H     H_    0.624563 0.712501 0.165025 0.183417
H91   H     H_    0.671699 0.873317 0.121021 0.261206
H92   H     H_    0.217536 0.450966 0.909296 0.149687
H93   H     H_    0.736380 0.927302 0.156342 0.236226
H94   H     H_    0.665117 0.971138 0.105653 0.264579
H95   H     H_    0.668900 0.965647 0.977025 0.222218
H96   H     H_    0.613454 0.898185 0.948766 0.243971
H97   H     H_    0.692249 0.800290 0.020768 0.209151
H98   H     H_    0.748808 0.864775 0.050968 0.214029
H99   H     H_    0.328331 0.873357 0.879016 0.261204
H100  H     H_    0.263618 0.927297 0.843642 0.236220
H101  H     H_    0.334867 0.971181 0.894348 0.264553
H102  H     H_    0.331066 0.965678 0.022949 0.222207
H103  H     H_    0.782450 0.451010 0.090704 0.149691
H104  H     H_    0.386532 0.898234 0.051248 0.244002
H105  H     H_    0.307743 0.800317 0.979219 0.209157
H106  H     H_    0.251179 0.864790 0.949023 0.214030
H107  H     H_    0.171671 0.373287 0.120976 0.261217
H108  H     H_    0.236370 0.427256 0.156338 0.236230
H109  H     H_    0.165113 0.471112 0.105645 0.264581
H110  H     H_    0.168920 0.465639 0.977044 0.222215
H111  H     H_    0.113451 0.398193 0.948737 0.243965
H112  H     H_    0.192233 0.300274 0.020739 0.209150
H113  H     H_    0.248803 0.364748 0.050952 0.214025
H114  H     H_    0.833683 0.019306 0.531024 0.151920
H115  H     H_    0.828292 0.373443 0.878960 0.261157
H116  H     H_    0.763601 0.427396 0.843653 0.236220
H117  H     H_    0.834858 0.471261 0.894362 0.264546
H118  H     H_    0.831090 0.465709 0.022992 0.222215
H119  H     H_    0.886523 0.398243 0.051215 0.244002
H120  H     H_    0.807715 0.300363 0.979173 0.209142
H121  H     H_    0.751167 0.364850 0.949008 0.214035
H122  H     H_    0.701137 0.841468 0.442158 0.260979
H123  H     H_    0.654736 0.888485 0.462154 0.279458
H124  H     H_    0.637130 0.898161 0.348009 0.254396
N1    N     N_1   0.617374 0.674790 0.890383 -0.205608
N2    N     N_1   0.330576 0.796785 0.404639 -0.220685
N3    N     N_1   0.169443 0.296797 0.595364 -0.220658
N4    N     N_1   0.830598 0.296761 0.404638 -0.220743
N5    N     N_1   0.847545 0.855172 0.971533 -0.194856
N6    N     N_1   0.152453 0.855152 0.028490 -0.194847
N7    N     N_1   0.347545 0.355157 0.971518 -0.194855
N8    N     N_1   0.652453 0.355144 0.028498 -0.194847
N9    N     N_1   0.651957 0.120411 0.505982 -0.212283
N10   N     N_1   0.348024 0.120482 0.493952 -0.212213
N11   N     N_1   0.151973 0.620470 0.506036 -0.212236
N12   N     N_1   0.382601 0.674800 0.109575 -0.205610
N13   N     N_1   0.848018 0.620509 0.493928 -0.212196
N14   N     N_1   0.117353 0.174784 0.890344 -0.205603
N15   N     N_1   0.882587 0.174840 0.109506 -0.205598
N16   N     N_1   0.911514 0.156059 0.535130 -0.212939
N17   N     N_1   0.088518 0.156224 0.464852 -0.212920
N18   N     N_1   0.411487 0.656155 0.535127 -0.212930
N19   N     N_1   0.588518 0.656285 0.464832 -0.212906
N20   N     N_1   0.669451 0.796803 0.595386 -0.220616
O1    O     O_R   0.500010 0.939400 0.392680 -0.624475
O2    O     O_R   0.551740 0.000000 0.944400 -0.630578
O3    O     O_R   0.948260 0.500000 0.055600 -0.630576
O4    O     O_R   0.051740 0.500000 0.944400 -0.630578
O5    O     O_R   0.551720 0.892660 0.051710 -0.629111
O6    O     O_R   0.448280 0.892660 0.948290 -0.629104
O7    O     O_R   0.051720 0.392660 0.051710 -0.629121
O8    O     O_R   0.948280 0.392660 0.948290 -0.629089
O9    O     O_R   0.499990 0.060580 0.392690 -0.611785
O10   O     O_R   0.500010 0.060580 0.607310 -0.611796
O11   O     O_R   0.999990 0.560580 0.392690 -0.611791
O12   O     O_R   0.499990 0.939400 0.607320 -0.624473
O13   O     O_R   0.000010 0.560580 0.607310 -0.611801
O14   O     O_R   0.591620 0.939400 0.591620 -0.624544
O15   O     O_R   0.408380 0.939400 0.408380 -0.624518
O16   O     O_R   0.091620 0.439400 0.591620 -0.624537
O17   O     O_R   0.908380 0.439400 0.408380 -0.624501
O18   O     O_R   0.591600 0.060580 0.591620 -0.618852
O19   O     O_R   0.408400 0.060580 0.408380 -0.618885
O20   O     O_R   0.091600 0.560580 0.591620 -0.618872
O21   O     O_R   0.908400 0.560580 0.408380 -0.618892
O22   O     O_R   0.999970 0.107360 0.060570 -0.617273
O23   O     O_R   0.000010 0.439400 0.392680 -0.624478
O24   O     O_R   0.000030 0.107360 0.939430 -0.617336
O25   O     O_R   0.499970 0.607360 0.060570 -0.617263
O26   O     O_R   0.500030 0.607360 0.939430 -0.617307
O27   O     O_R   0.908370 0.000030 0.968970 -0.609811
O28   O     O_R   0.091630 0.000030 0.031030 -0.609809
O29   O     O_R   0.408370 0.500030 0.968970 -0.609815
O30   O     O_R   0.591630 0.500030 0.031030 -0.609813
O31   O     O_R   0.908380 0.000000 0.847800 -0.625275
O32   O     O_R   0.091620 0.000000 0.152200 -0.625280
O33   O     O_R   0.408380 0.500000 0.847800 -0.625281
O34   O     O_R   0.999990 0.439400 0.607320 -0.624467
O35   O     O_R   0.591620 0.500000 0.152200 -0.625284
O36   O     O_R   0.000000 0.892710 0.060610 -0.615531
O37   O     O_R   1.000000 0.892710 0.939390 -0.615525
O38   O     O_R   0.500000 0.392710 0.060610 -0.615534
O39   O     O_R   0.500000 0.392710 0.939390 -0.615529
O40   O     O_R   0.551710 0.107310 0.051740 -0.615555
O41   O     O_R   0.448290 0.107310 0.948260 -0.615560
O42   O     O_R   0.051710 0.607310 0.051740 -0.615556
O43   O     O_R   0.948290 0.607310 0.948260 -0.615566
O44   O     O_R   0.551700 0.999990 0.159040 -0.621049
O45   O     O_R   0.448300 0.999990 0.840960 -0.621046
O46   O     O_R   0.051700 0.499990 0.159040 -0.621049
O47   O     O_R   0.948300 0.499990 0.840960 -0.621040
O48   O     O_R   0.448260 0.000000 0.055600 -0.630564
Zn1   Zn    Zn3+2 0.500000 0.919080 0.500000 0.975060
Zn2   Zn    Zn3+2 0.430940 0.999980 0.930930 0.917793
Zn3   Zn    Zn3+2 0.069060 0.499980 0.069070 0.917791
Zn4   Zn    Zn3+2 0.930940 0.499980 0.930930 0.917802
Zn5   Zn    Zn3+2 0.000000 0.419080 0.500000 0.975065
Zn6   Zn    Zn3+2 0.500000 0.080900 0.500000 0.985371
Zn7   Zn    Zn3+2 0.000000 0.580900 0.500000 0.985367
Zn8   Zn    Zn3+2 0.999980 0.000040 0.080910 0.985678
Zn9   Zn    Zn3+2 0.000020 0.000040 0.919090 0.985680
Zn10  Zn    Zn3+2 0.499980 0.500040 0.080910 0.985677
Zn11  Zn    Zn3+2 0.500020 0.500040 0.919090 0.985677
Zn12  Zn    Zn3+2 0.569060 0.999980 0.069070 0.917788

loop_
_geom_bond_atom_site_label_1
_geom_bond_atom_site_label_2
_ccdc_geom_bond_type
C99   C103  A    
C22   N17   T    
C100  C127  A    
C14   C71   S    
C30   H42   S    
C79   C121  S    
C48   H78   S    
O3    Zn4   S    
C64   H111  S    
C57   C76   S    
C154  O6    A    
C49   C120  S    
C12   C126  A    
C42   H74   S    
C101  C128  A    
C80   H3    S    
C55   C173  S    
C93   O12   A    
C24   C129  S    
C152  O3    A    
O18   Zn6   S    
C169  C174  A    
C78   H6    S    
C105  H2    S    
C119  C128  A    
C43   H73   S    
C20   N15   T    
C4    C56   S    
C130  C134  T    
C149  C168  S    
C15   C97   A    
O20   Zn7   S    
C136  C152  S    
C45   C47   S    
C11   C20   S    
C34   H45   S    
O31   Zn9   S    
C104  O11   A    
C38   H55   S    
O21   Zn7   S    
O11   Zn7   S    
C11   C162  A    
C26   H35   S    
C6    C63   S    
C43   C44   S    
C6    C10   A    
C37   C38   S    
C178  H70   S    
C14   C137  A    
C47   H80   S    
C22   C109  S    
C40   H64   S    
C147  C167  S    
C143  O29   A    
O36   Zn8   S    
O13   Zn7   S    
C147  O41   A    
C67   H118  S    
C19   N14   T    
C103  H114  S    
C31   H40   S    
C68   C77   S    
C23   C110  S    
C29   C113  S    
C50   H87   S    
C146  O39   A    
C141  O31   A    
C88   C102  S    
C104  O23   A    
C151  O45   A    
C126  C141  S    
C8    C17   S    
C52   N20   T    
C65   H107  S    
C87   H15   S    
C121  O14   A    
C61   H102  S    
C7    C66   S    
C179  H81   S    
C16   C98   A    
C30   C31   S    
C76   N11   T    
C51   H85   S    
O4    Zn3   S    
C66   H120  S    
O28   Zn9   S    
O45   Zn2   S    
C44   H69   S    
C88   C89   S    
O47   Zn4   S    
C78   C99   S    
C35   C170  A    
C115  O13   A    
C84   H7    S    
C29   H44   S    
C137  C142  S    
C32   H52   S    
C66   H121  S    
C142  O32   A    
C57   C92   A    
C83   H10   S    
C62   H101  S    
C38   H53   S    
C40   H65   S    
C89   H27   S    
C85   C86   S    
C28   H31   S    
C15   C72   S    
C144  O30   A    
C18   N12   T    
C36   C37   S    
C15   C148  A    
C78   C80   S    
C13   C57   A    
C63   H113  S    
C64   H110  S    
C73   N8    T    
C85   H20   S    
C53   C171  S    
C5    C179  A    
C47   C48   S    
C27   H34   S    
C12   C95   A    
C152  O46   A    
C89   C91   S    
C110  C114  A    
C70   N5    T    
C114  C119  A    
C31   H38   S    
C2    C127  S    
C66   C67   S    
C161  C172  A    
C33   H49   S    
C81   H123  S    
C46   C75   S    
C92   C97   A    
C143  C148  S    
C58   H96   S    
C120  C129  A    
C54   C172  S    
C84   H9    S    
O7    Zn3   S    
C54   N3    T    
C39   C40   S    
C24   C68   A    
C9    C160  A    
C68   C94   A    
C116  C120  A    
C41   H61   S    
O43   Zn4   S    
C5    C9    A    
C29   C30   S    
C126  C170  A    
C39   H66   S    
C1    O9    A    
C44   H71   S    
C83   C84   S    
C25   N19   T    
C132  C136  T    
C150  O48   A    
C69   H116  S    
C102  C107  A    
C151  O2    A    
C140  O26   A    
O30   Zn11  S    
C149  O43   A    
C104  C132  S    
C63   H112  S    
C118  C127  A    
C36   C116  S    
O2    Zn12  S    
C101  C106  A    
C12   C70   S    
O12   Zn1   S    
C5    C60   S    
C6    C180  A    
C56   H97   S    
C107  C111  A    
C4    C178  A    
O29   Zn10  S    
O19   Zn6   S    
C146  O38   A    
C90   C96   A    
O5    Zn12  S    
O37   Zn9   S    
O15   Zn1   S    
O39   Zn11  S    
C143  O33   A    
C162  H59   S    
C42   H75   S    
C64   C65   S    
O1    Zn1   S    
O48   Zn2   S    
C150  O44   A    
C80   H4    S    
C61   C62   S    
O10   Zn6   S    
C158  H1    S    
C91   H22   S    
C25   C111  S    
C63   C64   S    
C9    C18   S    
C176  C180  A    
C49   C50   S    
C62   H99   S    
C117  C125  A    
C172  C176  A    
C72   N7    T    
O27   Zn8   S    
C35   C74   S    
C8    C158  A    
C121  O18   A    
C24   C159  A    
C162  C173  A    
C145  C165  S    
C123  O20   A    
C26   C27   S    
C41   H63   S    
C83   H11   S    
C34   H46   S    
C88   H28   S    
C3    C7    A    
C112  C117  A    
C45   H83   S    
C94   C98   A    
C28   H30   S    
C59   H94   S    
C60   H105  S    
C26   H36   S    
O35   Zn10  S    
C122  O15   A    
C105  C109  A    
O9    Zn6   S    
C47   H79   S    
O17   Zn5   S    
C111  C116  A    
C174  C178  A    
O46   Zn3   S    
C85   H21   S    
C86   H19   S    
C161  H48   S    
C67   H119  S    
C49   H90   S    
C45   C119  S    
C133  C138  T    
C69   H117  S    
C81   H122  S    
C82   C100  S    
C141  O27   A    
C14   C96   A    
C91   H25   S    
C145  O36   A    
O41   Zn2   S    
C30   H41   S    
C31   H39   S    
C36   H58   S    
O6    Zn2   S    
C50   H88   S    
C48   H77   S    
C154  O5    A    
C1    C130  S    
C86   C87   S    
C42   C118  S    
C115  C133  S    
C58   C59   S    
C39   C117  S    
C139  O24   A    
C108  C112  A    
C60   C61   S    
O32   Zn8   S    
C79   C95   A    
C89   H26   S    
C10   C19   S    
C77   N13   T    
C50   C51   S    
C78   H5    S    
O40   Zn12  S    
C144  C159  S    
C125  C170  S    
C71   N6    T    
C180  H92   S    
C39   H67   S    
C23   N18   T    
C142  O28   A    
C10   C161  A    
C88   H29   S    
C92   C123  S    
C42   C43   S    
C87   H17   S    
C26   C112  S    
C65   H109  S    
C29   H43   S    
C82   H12   S    
C2    C137  A    
C52   C169  S    
C38   H54   S    
C46   C90   A    
C28   H32   S    
C144  O35   A    
C32   C33   S    
C135  C151  S    
C160  C171  A    
C82   H14   S    
C44   H68   S    
C82   C83   S    
O23   Zn5   S    
C17   N1    T    
C27   H33   S    
C93   C131  S    
C91   H23   S    
C36   H60   S    
C102  C129  A    
C4    C8    A    
C74   N9    T    
O24   Zn9   S    
C99   C125  A    
O26   Zn11  S    
C2    C46   A    
C7    C11   A    
C139  O22   A    
C100  C105  A    
O8    Zn4   S    
C65   H108  S    
C95   C174  S    
C87   H16   S    
C131  C135  T    
C124  O17   A    
C134  C150  S    
C51   H86   S    
C35   C79   A    
O25   Zn10  S    
C13   C128  S    
C43   H72   S    
C56   C58   S    
C69   H115  S    
C103  C108  A    
C48   H76   S    
O34   Zn5   S    
C55   N4    T    
C157  C163  T    
C109  C113  A    
C123  O16   A    
C3    H103  S    
C149  O42   A    
C146  C166  S    
C32   H51   S    
C97   C176  S    
C16   C159  A    
C90   C122  S    
C62   H100  S    
C106  H13   S    
C153  O47   A    
C56   H98   S    
C16   C73   S    
C21   C108  S    
C61   H104  S    
C154  C163  S    
C122  O19   A    
C124  O21   A    
C175  C179  A    
O16   Zn5   S    
C171  C175  A    
C155  O8    A    
C67   C69   S    
C96   C175  S    
C140  C157  S    
C37   H57   S    
C160  H37   S    
C173  C177  A    
C147  O40   A    
C33   C34   S    
C59   H91   S    
C98   C177  S    
C155  O7    A    
C93   O10   A    
C40   C41   S    
C86   H18   S    
C165  C168  T    
C166  C167  T    
C33   H50   S    
C81   H124  S    
C85   C101  S    
C138  C153  S    
C37   H56   S    
C106  C110  A    
C58   H95   S    
C21   N16   T    
O22   Zn8   S    
C80   C81   S    
O42   Zn3   S    
C158  C169  A    
C145  O37   A    
C155  C164  S    
C51   H84   S    
O38   Zn10  S    
C13   C148  A    
C41   H62   S    
C53   N2    T    
C34   H47   S    
C3    C177  A    
C107  H24   S    
C153  O4    A    
C45   H82   S    
C139  C156  S    
C59   H93   S    
O33   Zn11  S    
C60   H106  S    
C140  O25   A    
O44   Zn12  S    
C75   N10   T    
C84   H8    S    
C113  C118  A    
C156  C164  T    
C27   C28   S    
C115  O34   A    
O14   Zn1   S    
C32   C114  S    
C1    O1    A    
C94   C124  S    
C49   H89   S    
