data_mof_unit_43799.cif
_audit_creation_date              2012-12-10T20:42:41-0500
_audit_creation_method            fapswitch 2.2
_symmetry_space_group_name_H-M    P1
_symmetry_Int_Tables_number       1
_space_group_crystal_system       triclinic
_cell_length_a                    8.927628
_cell_length_b                    10.642629
_cell_length_c                    10.05433
_cell_angle_alpha                 89.958146
_cell_angle_beta                  88.994693
_cell_angle_gamma                 92.517808
_cell_volume                      954.226198165

loop_
_atom_site_label
_atom_site_type_symbol
_atom_type_description
_atom_site_fract_x
_atom_site_fract_y
_atom_site_fract_z
_atom_type_partial_charge
C1    C     C_R   0.504345 0.261141 0.499823 0.861231
C2    C     C_R   0.602511 0.936583 0.409503 -0.220277
C3    C     C_R   0.502992 0.870720 0.496092 -0.174505
C4    C     C_R   0.395051 0.932466 0.567642 0.115105
C5    C     C_3   0.349496 0.923175 0.710836 -0.446728
C6    C     C_3   0.350294 0.065693 0.710048 -0.469026
C7    C     C_R   0.388462 0.439930 0.072100 0.104469
C8    C     C_R   0.614001 0.559221 0.069291 0.170330
C9    C     C_R   0.610458 0.565156 0.925857 0.178044
C10   C     C_R   0.393456 0.431161 0.931055 0.102123
C11   C     C_3   0.227955 0.447937 0.924848 -0.063149
C12   C     C_R   0.219257 0.499350 0.500753 0.930918
C13   C     C_3   0.228442 0.474466 0.073344 0.176999
C14   C     C_R   0.502208 0.738911 0.499562 0.884020
C15   C     C_R   0.780710 0.499944 0.499364 0.908752
C16   C     C_1   0.065433 0.499025 0.501273 -0.231872
C17   C     C_1   0.934492 0.499166 0.499296 -0.215557
C18   C     C_R   0.397290 0.060594 0.567173 0.074276
C19   C     C_R   0.509485 0.128864 0.497625 -0.211707
C20   C     C_R   0.609994 0.066971 0.411666 0.436799
H1    H     H_    0.153952 0.413493 0.137892 0.129573
H2    H     H_    0.681330 0.887080 0.347721 0.164207
H3    H     H_    0.235592 0.878158 0.725056 0.203458
H4    H     H_    0.437852 0.885069 0.774168 0.214970
H5    H     H_    0.236388 0.102197 0.720423 0.209328
H6    H     H_    0.437411 0.110622 0.774333 0.222655
H7    H     H_    0.200710 0.531029 0.864033 0.197855
N1    N     N_R   0.499010 0.499140 0.142800 -0.129164
N2    N     N_R   0.499010 0.499180 0.857150 -0.150703
O1    O     O_R   0.500020 0.316790 0.614690 -0.608757
O2    O     O_R   0.500000 0.316760 0.385350 -0.602542
O3    O     O_R   0.285350 0.500020 0.614650 -0.624251
O4    O     O_R   0.285340 0.499980 0.385310 -0.635635
O5    O     O_R   0.500000 0.683240 0.614650 -0.648470
O6    O     O_R   0.499980 0.683210 0.385310 -0.627998
O7    O     O_R   0.714660 0.500020 0.614690 -0.612674
O8    O     O_R   0.714650 0.499980 0.385350 -0.632049
Zn1   Zn    Zn3+2 0.500010 0.500020 0.653130 0.925583
Zn2   Zn    Zn3+2 0.499990 0.499980 0.346870 0.935165
O9    O     O_3   0.721120 0.128217 0.335621 -0.766614
H8    H     H_    0.740571 0.214115 0.370639 0.330480
C21   C     C_3   0.136631 0.327748 0.883236 -0.452083
C22   C     C_3   0.162717 0.209120 0.965340 -0.852276
H9    H     H_    0.119469 0.217943 0.068717 0.257312
H10   H     H_    0.283499 0.188889 0.966994 0.261923
H11   H     H_    0.100377 0.127558 0.920684 0.254750
H12   H     H_    0.015532 0.346117 0.890109 0.210759
H13   H     H_    0.163139 0.308562 0.777098 0.234345
O10   O     O_3   0.214579 0.603861 0.095510 -0.781200
H14   H     H_    0.213217 0.616802 0.192861 0.366916
C23   C     C_3   0.748415 0.615786 0.139673 -0.327729
C24   C     C_3   0.867272 0.517033 0.152357 -0.762832
H15   H     H_    0.817946 0.424459 0.185584 0.269191
H16   H     H_    0.953274 0.550791 0.223489 0.253802
H17   H     H_    0.922064 0.498465 0.056111 0.246303
H18   H     H_    0.799973 0.699955 0.090351 0.181570
H19   H     H_    0.714239 0.656374 0.235328 0.234895
C25   C     C_3   0.717508 0.659086 0.852592 -0.357813
C26   C     C_3   0.879114 0.619111 0.833738 -0.849953
H20   H     H_    0.882884 0.515505 0.826168 0.266983
H21   H     H_    0.928007 0.660547 0.740351 0.243819
H22   H     H_    0.951732 0.655946 0.914226 0.269590
H23   H     H_    0.679544 0.678004 0.754298 0.266885
H24   H     H_    0.715076 0.753230 0.899828 0.160183

loop_
_geom_bond_atom_site_label_1
_geom_bond_atom_site_label_2
_ccdc_geom_bond_type
N2    Zn1   S    
C2    H2    S    
C7    C10   A    
O6    Zn2   S    
C22   H9    S    
C14   O5    A    
C23   H19   S    
O3    Zn1   S    
C11   C13   S    
C19   C20   A    
C10   N2    A    
C24   H17   S    
C11   H7    S    
C4    C18   A    
O7    Zn1   S    
C2    C3    A    
C25   C26   S    
C13   H1    S    
C26   H20   S    
O8    Zn2   S    
C21   H13   S    
C12   O3    A    
C9    N2    A    
C22   H10   S    
C8    C23   S    
C6    H6    S    
C3    C14   S    
C11   C21   S    
C13   O10   S    
C4    C5    S    
C1    O1    A    
C24   H16   S    
C9    C25   S    
C21   H12   S    
C25   H24   S    
C5    C6    S    
C6    C18   S    
C22   H11   S    
C26   H21   S    
C6    H5    S    
C16   C17   T    
C21   C22   S    
C2    C20   A    
C3    C4    A    
C12   C16   S    
C15   O7    A    
C1    O2    A    
C23   C24   S    
C24   H15   S    
O1    Zn1   S    
C8    N1    A    
O10   H14   S    
C10   C11   S    
C25   H23   S    
C15   C17   S    
C18   C19   A    
C14   O6    A    
C5    H4    S    
C26   H22   S    
O9    H8    S    
C7    C13   S    
N1    Zn2   S    
C12   O4    A    
O5    Zn1   S    
C1    C19   S    
C20   O9    S    
O4    Zn2   S    
C15   O8    A    
C7    N1    A    
C23   H18   S    
O2    Zn2   S    
C8    C9    A    
C5    H3    S    
