data_mof_unit_49713.cif
_audit_creation_date              2012-12-11T16:04:54-0500
_audit_creation_method            fapswitch 2.2
_symmetry_space_group_name_H-M    P1
_symmetry_Int_Tables_number       1
_space_group_crystal_system       triclinic
_cell_length_a                    10.643236
_cell_length_b                    10.666806
_cell_length_c                    16.889488
_cell_angle_alpha                 98.637623
_cell_angle_beta                  98.984744
_cell_angle_gamma                 61.461852
_cell_volume                      1657.48916614

loop_
_atom_site_label
_atom_site_type_symbol
_atom_type_description
_atom_site_fract_x
_atom_site_fract_y
_atom_site_fract_z
_atom_type_partial_charge
C1    C     C_R   0.382307 0.707214 0.386771 0.551645
C2    C     C_3   0.713532 0.407230 0.260257 -0.111940
C3    C     C_3   0.834504 0.335977 0.326353 0.044828
C4    C     C_3   0.891566 0.195780 0.273012 -0.018910
C5    C     C_3   0.991180 0.240099 0.240316 -0.146135
C6    C     C_3   0.931251 0.382912 0.294704 -0.134524
C7    C     C_3   0.810061 0.455951 0.228324 -0.109892
C8    C     C_3   0.868189 0.315481 0.174921 0.051773
C9    C     C_3   0.426344 0.685425 0.186440 -0.031296
C10   C     C_3   0.307927 0.693936 0.232199 -0.130523
C11   C     C_3   0.371273 0.751142 0.307984 0.038421
C12   C     C_R   0.366787 0.343647 0.359985 0.528764
C13   C     C_3   0.492379 0.740221 0.263403 -0.140134
C14   C     C_3   0.394241 0.896396 0.242405 -0.138140
C15   C     C_3   0.275232 0.906318 0.288643 -0.099196
C16   C     C_3   0.211541 0.849711 0.212232 -0.100312
C17   C     C_3   0.331572 0.838545 0.166789 0.037188
C18   C     C_3   0.456885 0.293340 0.782579 -0.101165
C19   C     C_3   0.369421 0.427449 0.735332 -0.152039
C20   C     C_3   0.339990 0.332907 0.664026 0.032717
C21   C     C_3   0.425961 0.201490 0.711372 0.288150
C22   C     C_3   0.286840 0.229531 0.742934 -0.104011
C23   C     C_R   0.784333 0.372317 0.405287 0.526351
C24   C     C_3   0.199832 0.363911 0.695490 -0.170720
C25   C     C_3   0.228875 0.457590 0.768178 -0.125274
C26   C     C_3   0.317343 0.323532 0.813865 0.010557
C27   C     C_1   0.846951 0.328804 0.705827 -0.027832
C28   C     C_1   0.893272 0.295066 0.773169 -0.028225
C29   C     C_1   0.338332 0.812365 0.709767 -0.006634
C30   C     C_1   0.313264 0.839167 0.778548 -0.022256
C31   C     C_R   0.897569 0.307887 0.092952 0.578909
C32   C     C_R   0.292164 0.262053 0.122749 0.554162
C33   C     C_R   0.294094 0.891975 0.088750 0.548453
C34   C     C_R   0.356490 0.772015 0.627136 0.583199
C35   C     C_R   0.942486 0.275999 0.856163 0.553056
C36   C     C_R   0.308222 0.294813 0.892463 0.563002
C37   C     C_R   0.280258 0.884340 0.859105 0.545272
C38   C     C_R   0.368271 0.346010 0.585855 0.556860
C39   C     C_R   0.778889 0.377379 0.628722 0.534689
C40   C     C_1   0.325855 0.317822 0.277958 -0.064343
C41   C     C_1   0.306452 0.293283 0.207082 -0.062750
C42   C     C_3   0.772234 0.266393 0.205864 -0.112610
Cr1   Cr    Cr6+3 0.608340 0.611040 0.520430 1.084311
Cr2   Cr    Cr6+3 0.287650 0.601120 0.489350 1.048454
Cr3   Cr    Cr6+3 0.604040 0.287870 0.490280 1.095842
Cr4   Cr    Cr6+3 0.054020 0.052700 0.970850 1.044492
Cr5   Cr    Cr6+3 0.059230 0.375120 0.993390 1.037270
Cr6   Cr    Cr6+3 0.374950 0.061200 0.992340 1.052845
H1    H     H_    0.599834 0.465278 0.273205 0.107790
H2    H     H_    0.428785 0.979932 0.244143 0.133231
H3    H     H_    0.216136 0.995116 0.333518 0.140541
H4    H     H_    0.096737 0.893733 0.188479 0.153630
H5    H     H_    0.403711 0.509018 0.730301 0.123736
H6    H     H_    0.561203 0.265598 0.819423 0.158051
H7    H     H_    0.253356 0.147277 0.747900 0.122101
H8    H     H_    0.096072 0.391005 0.658211 0.137483
H9    H     H_    0.149523 0.563099 0.794190 0.155018
H10   H     H_    0.706721 0.220302 0.167865 0.148738
H11   H     H_    0.104968 0.172212 0.228136 0.095845
H12   H     H_    0.996658 0.429114 0.332688 0.134524
H13   H     H_    0.777958 0.561225 0.206551 0.136231
H14   H     H_    0.273374 0.610276 0.230030 0.131030
H15   H     H_    0.604267 0.702478 0.291100 0.136418
O1    O     O_R   0.751220 0.499230 0.435170 -0.525550
O2    O     O_R   0.297880 0.469080 0.560050 -0.512836
O3    O     O_R   0.489720 0.254590 0.564810 -0.441642
O4    O     O_R   0.725220 0.304230 0.585080 -0.472391
O5    O     O_3   0.500010 0.500010 0.500020 -0.307408
O6    O     O_R   0.171830 0.913880 0.057510 -0.523168
O7    O     O_R   0.940690 0.186050 0.054730 -0.501478
O8    O     O_R   0.920470 0.405720 0.075010 -0.512319
O9    O     O_R   0.196690 0.370460 0.084120 -0.489944
O10   O     O_R   0.412990 0.180750 0.091610 -0.501386
O11   O     O_R   0.366620 0.943130 0.065760 -0.515460
O12   O     O_R   0.477220 0.727600 0.436870 -0.474272
O13   O     O_R   0.160510 0.906330 0.879210 -0.508108
O14   O     O_R   0.930190 0.179050 0.889450 -0.473422
O15   O     O_R   0.909140 0.398170 0.896710 -0.494943
O16   O     O_R   0.186190 0.363460 0.918830 -0.513888
O17   O     O_R   0.401670 0.173200 0.913310 -0.482495
O18   O     O_R   0.356120 0.936130 0.900470 -0.477892
O19   O     O_3   0.162740 0.163010 0.985530 -0.315250
O20   O     O_R   0.258650 0.745120 0.411470 -0.481779
O21   O     O_R   0.297070 0.467240 0.395960 -0.521047
O22   O     O_R   0.488830 0.252610 0.387790 -0.495382
O23   O     O_R   0.724400 0.302390 0.420980 -0.496351
O24   O     O_R   0.752100 0.501210 0.612190 -0.517242
O25   O     O_R   0.478040 0.729440 0.600970 -0.447116
O26   O     O_R   0.259530 0.747110 0.588490 -0.506438
S1    S     S_3+6 0.557081 0.027542 0.677157 0.026695
O27   O     O_2   0.502284 0.982414 0.596348 -0.273504
O28   O     O_2   0.694302 0.031316 0.670256 -0.266082
O29   O     O_3   0.587887 0.911233 0.743709 -0.527105
H16   H     H_    0.660269 0.817511 0.721002 0.370212
C43   C     C_1   0.925463 0.059960 0.303043 0.187190
N1    N     N_1   0.950827 0.953477 0.327084 -0.272641
C44   C     C_1   0.495488 0.573779 0.122343 0.189062
N2    N     N_1   0.548094 0.486731 0.071073 -0.291333

loop_
_geom_bond_atom_site_label_1
_geom_bond_atom_site_label_2
_ccdc_geom_bond_type
O29   H16   S    
C18   C21   S    
C3    C23   S    
C2    C7    S    
C1    C11   S    
Cr5   O16   S    
Cr2   O20   S    
C42   H10   S    
Cr4   O13   S    
C44   N2    T    
C7    C8    S    
C32   O9    A    
C25   H9    S    
C12   O22   A    
Cr1   O25   S    
C8    C42   S    
C5    C6    S    
C15   C16   S    
Cr6   O18   S    
C12   O21   A    
C18   C19   S    
Cr5   O19   S    
C9    C13   S    
C7    H13   S    
Cr4   O6    S    
Cr4   O19   S    
C11   C15   S    
C31   O7    A    
C19   C20   S    
C28   C35   S    
C27   C39   S    
Cr1   O5    S    
C23   O23   A    
C18   C26   S    
Cr3   O4    S    
C32   C41   S    
C15   H3    S    
C9    C10   S    
C33   O6    A    
C19   H5    S    
C31   O8    A    
C21   C22   S    
C14   C17   S    
C37   O18   A    
Cr2   O2    S    
C10   H14   S    
C17   C33   S    
Cr1   O1    S    
C21   S1    S    
Cr1   O12   S    
C5    H11   S    
C1    O12   A    
Cr6   O11   S    
C24   C25   S    
C36   O17   A    
C32   O10   A    
C16   C17   S    
C25   C26   S    
C29   C34   S    
C35   O14   A    
C30   C37   S    
Cr3   O3    S    
C12   C40   S    
Cr3   O22   S    
C29   C30   T    
C2    H1    S    
C6    H12   S    
C5    C8    S    
C4    C43   S    
C20   C38   S    
S1    O28   D    
C13   H15   S    
C38   O2    A    
Cr3   O5    S    
C34   O25   A    
Cr5   O8    S    
C6    C7    S    
C9    C17   S    
C23   O1    A    
C37   O13   A    
C22   C24   S    
Cr2   O5    S    
C1    O20   A    
C3    C4    S    
C27   C28   T    
S1    O29   S    
C26   C36   S    
C38   O3    A    
C40   C41   T    
C9    C44   S    
C8    C31   S    
C39   O4    A    
Cr6   O10   S    
C16   H4    S    
C4    C5    S    
Cr2   O21   S    
C36   O16   A    
Cr4   O14   S    
C22   H7    S    
C24   H8    S    
C35   O15   A    
Cr1   O24   S    
Cr6   O17   S    
C2    C3    S    
C34   O26   A    
C10   C16   S    
C11   C13   S    
S1    O27   D    
C14   H2    S    
C4    C42   S    
C2    C42   S    
C39   O24   A    
Cr6   O19   S    
Cr3   O23   S    
C19   C25   S    
Cr5   O9    S    
Cr4   O7    S    
C10   C11   S    
C18   H6    S    
C33   O11   A    
C20   C21   S    
C22   C26   S    
C3    C6    S    
C43   N1    T    
C14   C15   S    
Cr5   O15   S    
C13   C14   S    
C20   C24   S    
Cr2   O26   S    
