data_mof_unit_59488.cif
_audit_creation_date              2013-03-05T15:45:42-0500
_audit_creation_method            fapswitch 2.2
_symmetry_space_group_name_H-M    P1
_symmetry_Int_Tables_number       1
_space_group_crystal_system       triclinic
_cell_length_a                    6.933459
_cell_length_b                    16.72242
_cell_length_c                    16.932068
_cell_angle_alpha                 101.344058
_cell_angle_beta                  90.300633
_cell_angle_gamma                 90.471088
_cell_volume                      1924.70987892

loop_
_atom_site_label
_atom_site_type_symbol
_atom_site_description
_atom_site_fract_x
_atom_site_fract_y
_atom_site_fract_z
_atom_type_partial_charge
O1    O     O_R   0.506340 0.439070 0.579550 -0.594002
O2    O     O_R   0.170010 0.404890 0.412100 -0.591479
O3    O     O_R   0.005010 0.560930 0.420450 -0.598378
C1    C     C_R   0.339184 0.381740 0.383269 0.951985
O4    O     O_R   0.176280 0.429360 0.578400 -0.599806
O5    O     O_R   0.011320 0.585570 0.587940 -0.602468
C2    C     C_R   0.343454 0.414996 0.606504 0.939520
O6    O     O_R   0.500030 0.414430 0.412060 -0.601515
O7    O     O_3   0.340950 0.551220 0.502940 -0.264275
V1    V     V_3+5 0.064020 0.490500 0.499460 1.182071
O8    O     O_R   0.681910 0.595110 0.587900 -0.577694
C3    C     C_R   0.851972 0.618545 0.616275 1.041823
O9    O     O_R   0.675640 0.570640 0.421600 -0.590689
C4    C     C_R   0.842630 0.586139 0.394747 0.980739
V2    V     V_3+5 0.564670 0.509500 0.500540 1.198971
O10   O     O_3   0.837610 0.448780 0.497060 -0.282304
C5    C     C_R   0.923368 0.858273 0.164782 -0.178806
C6    C     C_R   0.837701 0.637790 0.332652 -0.128186
C7    C     C_R   0.645561 0.691408 0.233859 -0.186423
C8    C     C_R   0.667249 0.638556 0.287239 -0.113616
C9    C     C_R   0.988067 0.691649 0.323095 -0.228075
C10   C     C_R   0.965503 0.746924 0.270454 0.204803
C11   C     C_R   0.792960 0.747042 0.224795 0.153190
C12   C     C_R   0.772301 0.802424 0.171352 -0.074122
C13   C     C_R   0.090803 0.857881 0.212375 -0.149962
C14   C     C_R   0.112160 0.802906 0.263827 -0.199952
H1    H     H_    0.208677 0.899992 0.209005 0.134599
H2    H     H_    0.510633 0.689137 0.200992 0.140431
H3    H     H_    0.244454 0.804178 0.298467 0.137459
H4    H     H_    0.547251 0.598544 0.293766 0.135563
H5    H     H_    0.118887 0.692753 0.358675 0.142805
C15   C     C_3   0.705534 0.779456 0.771438 -0.211283
C16   C     C_3   0.802206 0.776555 0.689283 0.436193
H6    H     H_    0.559426 0.803648 0.787963 0.174655
C17   C     C_3   0.867164 0.688722 0.686557 -0.290072
C18   C     C_3   0.772655 0.690286 0.769559 -0.246809
C19   C     C_3   0.963766 0.724552 0.809983 0.436345
C20   C     C_3   0.060456 0.721525 0.727861 -0.217390
C21   C     C_3   0.993217 0.810707 0.729807 -0.245459
C22   C     C_3   0.898758 0.812172 0.812658 -0.266444
H7    H     H_    0.683977 0.640732 0.786403 0.180925
H8    H     H_    0.206605 0.697316 0.711460 0.165098
H9    H     H_    0.081377 0.860368 0.712885 0.166393
C23   C     C_3   0.473231 0.233891 0.313446 0.131658
C24   C     C_3   0.310052 0.180818 0.266785 -0.213881
H10   H     H_    0.252368 0.123403 0.281517 0.132153
C25   C     C_3   0.409598 0.188974 0.186664 -0.244000
C26   C     C_3   0.574244 0.240933 0.233658 -0.210267
C27   C     C_3   0.455077 0.318792 0.232517 -0.063076
C28   C     C_3   0.293204 0.266703 0.186095 0.391662
C29   C     C_3   0.191796 0.259638 0.265396 -0.209969
C30   C     C_3   0.356284 0.311786 0.312379 -0.221782
H11   H     H_    0.730144 0.233204 0.220443 0.147662
H12   H     H_    0.035821 0.267789 0.278129 0.141652
C31   C     C_R   0.425506 0.138185 0.832286 -0.169834
C32   C     C_R   0.340547 0.364077 0.670159 -0.189225
C33   C     C_R   0.168871 0.314025 0.777329 -0.199084
C34   C     C_R   0.185348 0.369433 0.725486 0.037607
C35   C     C_R   0.481668 0.304340 0.671636 -0.257996
C36   C     C_R   0.465943 0.248350 0.724516 0.138671
C37   C     C_R   0.305484 0.252886 0.776835 0.163693
C38   C     C_R   0.284852 0.197337 0.829327 -0.202358
C39   C     C_R   0.584360 0.133800 0.780112 -0.169744
C40   C     C_R   0.605186 0.187436 0.726462 0.018033
H13   H     H_    0.163363 0.202196 0.870004 0.172305
H14   H     H_    0.694591 0.088459 0.781711 0.147300
H15   H     H_    0.047972 0.318642 0.818416 0.145809
H16   H     H_    0.600018 0.300134 0.629563 0.149330
O11   O     O_R   0.266070 0.085680 0.087850 -0.581855
O12   O     O_R   0.590090 0.070660 0.921580 -0.601717
O13   O     O_R   0.754780 0.914400 0.912080 -0.599473
C41   C     C_R   0.422677 0.086184 0.894492 0.996455
O14   O     O_R   0.596110 0.095130 0.087880 -0.597619
O15   O     O_R   0.760850 0.939050 0.079570 -0.603750
C42   C     C_R   0.426887 0.118518 0.116455 1.004486
O16   O     O_R   0.260010 0.061030 0.920360 -0.587307
O17   O     O_3   0.425070 0.948840 0.997010 -0.270004
V3    V     V_3+5 0.702100 0.009490 0.000550 1.200065
O18   O     O_R   0.090200 0.929250 0.078500 -0.596063
C43   C     C_R   0.922512 0.912711 0.104543 0.948716
O19   O     O_R   0.084180 0.904770 0.912200 -0.577843
C44   C     C_R   0.914147 0.881623 0.883567 0.999653
V4    V     V_3+5 0.201420 0.990350 0.999580 1.221968
O20   O     O_3   0.928580 0.051150 0.002990 -0.260441
C45   C     C_1   0.601605 0.799046 0.120920 0.103634
N1    N     N_1   0.465318 0.796022 0.080639 -0.002963
N2    N     N_R   0.055566 0.696540 0.877023 0.224321
O21   O     O_R   0.974187 0.639982 0.908554 -0.383244
O22   O     O_R   0.220951 0.727279 0.904882 -0.401101
C46   C     C_1   0.572407 0.215201 0.384306 0.034373
N3    N     N_1   0.650613 0.200617 0.440266 -0.076587
C47   C     C_1   0.534961 0.392861 0.210630 0.157694
N4    N     N_1   0.598570 0.450905 0.192793 -0.053935
N5    N     N_R   0.193259 0.288340 0.117362 0.229445
O23   O     O_R   0.091577 0.354520 0.127279 -0.395475
O24   O     O_R   0.209851 0.243655 0.045705 -0.424745
C48   C     C_1   0.773116 0.179251 0.675345 0.065575
N6    N     N_1   0.907602 0.172669 0.634425 -0.064779
C49   C     C_1   0.040795 0.432148 0.731763 0.124848
N7    N     N_1   0.924688 0.482214 0.737011 -0.069842
N8    N     N_R   0.712353 0.807932 0.623710 0.230064
O25   O     O_R   0.659900 0.883800 0.635259 -0.405976
O26   O     O_R   0.688131 0.761405 0.553161 -0.417260

loop_
_geom_bond_atom_site_label_1
_geom_bond_atom_site_label_2
_geom_bond_distance
_ccdc_geom_bond_type
O17   V3    2.159733 S    
N2    O21   1.300354 A    
N8    O25   1.300323 A    
O12   V3    1.994399 S    
C6    C9    1.402834 A    
C4    C6    1.486621 S    
O2    C1    1.305049 A    
C7    C8    1.391282 A    
C41   O16   1.307926 A    
O19   C44   1.298999 A    
C46   N3    1.157147 T    
C8    H4    1.083071 S    
C45   N1    1.157381 T    
C9    H5    1.084260 S    
C16   C21   1.541033 S    
C1    C30   1.508181 S    
V4    O20   2.150665 S    
C16   N8    1.457221 S    
C15   C18   1.560136 S    
C18   C19   1.541531 S    
C20   H8    1.110534 S    
C19   C22   1.528741 S    
O5    C3    1.290896 A    
C20   C21   1.560381 S    
C24   C29   1.562015 S    
V2    O10   2.150571 S    
C31   C38   1.402447 A    
O8    V2    2.008339 S    
C49   N7    1.157355 T    
C31   C39   1.408880 A    
C11   C12   1.423936 A    
O1    V2    1.989494 S    
C12   C45   1.449957 S    
C31   C41   1.492054 S    
C1    O6    1.288264 A    
O13   C44   1.290702 A    
C23   C30   1.543060 S    
C39   H14   1.084950 S    
C35   C36   1.421040 A    
N8    O26   1.300222 A    
O15   C43   1.305980 A    
O9    C4    1.288946 A    
O14   C42   1.304899 A    
C18   H7    1.110180 S    
N5    O23   1.300375 A    
C2    C32   1.499369 S    
C33   H15   1.085654 S    
O16   V4    1.995688 S    
O19   V4    2.008260 S    
C48   N6    1.157625 T    
C25   C28   1.537199 S    
C24   C25   1.554487 S    
C26   H11   1.108437 S    
C5    C12   1.416925 A    
C29   C30   1.547643 S    
C22   C44   1.499918 S    
C17   C20   1.553465 S    
C21   C22   1.547221 S    
O4    C2    1.292820 A    
C28   N5    1.458370 S    
C21   H9    1.110164 S    
C13   C14   1.393560 A    
C24   H10   1.110380 S    
C5    C43   1.494775 S    
O18   C43   1.292592 A    
C36   C37   1.418995 A    
C17   C18   1.549422 S    
C15   H6    1.110569 S    
C7    C11   1.405595 A    
C19   C20   1.538870 S    
O11   V4    2.004981 S    
C35   H16   1.083130 S    
C25   C26   1.547071 S    
O14   V3    1.993264 S    
C27   C30   1.543424 S    
C28   C29   1.543428 S    
C3    C17   1.500556 S    
N5    O24   1.299969 A    
C7    H2    1.082570 S    
O3    C4    1.307476 A    
C40   C48   1.445728 S    
O6    V2    2.004255 S    
O9    V2    1.989804 S    
C10   C14   1.396359 A    
C27   C47   1.466190 S    
O2    V1    1.993282 S    
C23   C46   1.467122 S    
C23   C24   1.546037 S    
O7    V1    2.159725 S    
C26   C27   1.551014 S    
C38   H13   1.084307 S    
O1    C2    1.309971 A    
C19   N2    1.455876 S    
C34   C49   1.445753 S    
O5    V1    1.995929 S    
O8    C3    1.298889 A    
C33   C37   1.398282 A    
C13   H1    1.083477 S    
C32   C35   1.407673 A    
C36   C40   1.414131 A    
C29   H12   1.108099 S    
C5    C13   1.410500 A    
C15   C16   1.539608 S    
N2    O22   1.300344 A    
O7    V2    1.703455 S    
C25   C42   1.506160 S    
O4    V1    1.994359 S    
O3    V1    1.991548 S    
V1    O10   1.709630 S    
O18   V4    1.989781 S    
C33   C34   1.400497 A    
C47   N4    1.156524 T    
C16   C17   1.531888 S    
C32   C34   1.422218 A    
O11   C42   1.288037 A    
C6    C8    1.408092 A    
C15   C22   1.552152 S    
C37   C38   1.413234 A    
C39   C40   1.403685 A    
V3    O20   1.709634 S    
C14   H3    1.083960 S    
C27   C28   1.530201 S    
O15   V3    1.991429 S    
O17   V4    1.701420 S    
C10   C11   1.421205 A    
O12   C41   1.292788 A    
C9    C10   1.413611 A    
O13   V3    1.996021 S    
C23   C26   1.549419 S    
