data_mof_unit_49637.cif
_audit_creation_date              2012-12-10T17:43:31-0500
_audit_creation_method            fapswitch 2.2
_symmetry_space_group_name_H-M    P1
_symmetry_Int_Tables_number       1
_space_group_crystal_system       triclinic
_cell_length_a                    14.999846
_cell_length_b                    10.75521
_cell_length_c                    10.056112
_cell_angle_alpha                 88.756187
_cell_angle_beta                  86.269216
_cell_angle_gamma                 93.498267
_cell_volume                      1615.32568868

loop_
_atom_site_label
_atom_site_type_symbol
_atom_type_description
_atom_site_fract_x
_atom_site_fract_y
_atom_site_fract_z
_atom_type_partial_charge
C1    C     C_R   0.497199 0.260747 0.501876 0.912486
C2    C     C_R   0.181618 0.381868 0.512243 0.014853
C3    C     C_R   0.232253 0.495098 0.509250 -0.058180
C4    C     C_R   0.327692 0.498191 0.503313 0.835615
C5    C     C_R   0.193400 0.607591 0.497111 -0.240051
C6    C     C_R   0.370424 0.110745 0.679940 -0.140438
C7    C     C_R   0.309376 0.038621 0.763809 -0.094362
C8    C     C_R   0.306847 0.909895 0.758076 -0.046634
C9    C     C_R   0.365520 0.853530 0.668703 -0.116656
C10   C     C_R   0.431135 0.925565 0.586785 0.082064
C11   C     C_R   0.433226 0.055896 0.591773 0.083830
C12   C     C_R   0.915288 0.610483 0.469770 0.047130
C13   C     C_R   0.495650 0.127354 0.504668 -0.133865
C14   C     C_R   0.553361 0.071300 0.411275 -0.064755
C15   C     C_R   0.546543 0.943520 0.400163 -0.055648
C16   C     C_R   0.497870 0.738829 0.498402 0.925692
C17   C     C_R   0.491109 0.870962 0.494451 -0.142397
C18   C     C_R   0.362964 0.365516 0.153662 0.051958
C19   C     C_R   0.278188 0.355427 0.105952 -0.261313
C20   C     C_R   0.270591 0.365314 0.969043 -0.049869
C21   C     C_R   0.348198 0.397401 0.886140 -0.231859
C22   C     C_R   0.427400 0.446370 0.938183 0.105723
C23   C     C_R   0.940371 0.271931 0.548886 -0.080954
C24   C     C_R   0.430180 0.440322 0.080540 0.113330
C25   C     C_R   0.570758 0.548362 0.062878 -0.082960
C26   C     C_R   0.569311 0.553499 0.920656 -0.021248
C27   C     C_R   0.672783 0.501268 0.496858 0.975487
C28   C     C_R   0.822371 0.610098 0.456800 -0.053583
C29   C     C_R   0.769158 0.500561 0.492944 -0.199074
C30   C     C_R   0.807310 0.394774 0.543857 -0.066824
C31   C     C_R   0.900410 0.386461 0.528166 -0.006619
C32   C     C_R   0.954510 0.497616 0.500362 0.055638
C33   C     C_2   0.780819 0.726307 0.415843 0.877690
C34   C     C_R   0.032961 0.272271 0.559265 -0.116157
C35   C     C_1   0.593054 0.890033 0.286147 0.254022
C36   C     C_1   0.653206 0.584553 0.120622 0.320920
C37   C     C_1   0.386906 0.246444 0.202704 0.227037
C38   C     C_2   0.184031 0.330376 0.913114 0.923627
C39   C     C_2   0.752764 0.306084 0.636515 0.962589
C40   C     C_2   0.642545 0.625845 0.843186 0.982625
C41   C     C_2   0.887549 0.150094 0.543401 0.930392
C42   C     C_1   0.068867 0.163965 0.619895 0.313751
C43   C     C_1   0.225894 0.268661 0.482505 0.102314
C44   C     C_2   0.111353 0.848136 0.453647 0.920250
C45   C     C_R   0.087711 0.382213 0.527014 0.071818
C46   C     C_1   0.620101 0.144760 0.325545 0.300944
C47   C     C_R   0.047699 0.496845 0.506169 0.047686
C48   C     C_R   0.101169 0.610905 0.491101 0.051404
C49   C     C_R   0.061094 0.724441 0.468665 -0.046602
C50   C     C_R   0.969233 0.722207 0.457706 -0.169109
H1    H     H_    0.364235 0.209162 0.680339 0.139587
H2    H     H_    0.057046 0.257301 0.944640 0.368044
H3    H     H_    0.651257 0.175339 0.663696 0.351632
H4    H     H_    0.682869 0.785161 0.741874 0.373124
H5    H     H_    0.798297 0.044589 0.446668 0.351977
H6    H     H_    0.124565 0.016431 0.358971 0.354259
H7    H     H_    0.261971 0.082944 0.830185 0.151316
H8    H     H_    0.257453 0.853578 0.819969 0.157045
H9    H     H_    0.356163 0.753626 0.662117 0.150973
H10   H     H_    0.223022 0.312362 0.169302 0.200398
H11   H     H_    0.345839 0.377267 0.784843 0.209858
H12   H     H_    0.237553 0.690683 0.484247 0.170778
H13   H     H_    0.940048 0.810831 0.445606 0.212420
H14   H     H_    0.787843 0.876794 0.290809 0.354634
N1    N     N_R   0.499150 0.498800 0.142780 -0.145346
N2    N     N_R   0.499120 0.498720 0.857170 -0.153503
N3    N     N_1   0.629170 0.850144 0.192946 -0.178390
N4    N     N_1   0.721525 0.612238 0.161951 -0.113499
N5    N     N_1   0.404152 0.147908 0.237034 -0.192641
N6    N     N_1   0.096805 0.078249 0.670445 -0.120928
N7    N     N_1   0.260073 0.177908 0.456961 -0.186351
N8    N     N_1   0.672974 0.203039 0.257516 -0.120059
O1    O     O_R   0.500000 0.316780 0.614690 -0.628218
O2    O     O_R   0.817871 0.796166 0.304505 -0.762746
O3    O     O_2   0.174518 0.350174 0.795295 -0.660073
O4    O     O_R   0.112433 0.276457 0.995075 -0.783276
O5    O     O_2   0.772667 0.294578 0.751988 -0.565917
O6    O     O_R   0.680893 0.234331 0.591689 -0.817679
O7    O     O_2   0.717811 0.587620 0.834956 -0.597048
O8    O     O_R   0.626736 0.741558 0.786907 -0.759697
O9    O     O_2   0.890454 0.070371 0.631367 -0.595388
O10   O     O_R   0.833333 0.128260 0.437410 -0.772138
O11   O     O_2   0.170916 0.876575 0.526651 -0.635400
O12   O     O_R   0.499990 0.316750 0.385360 -0.626239
O13   O     O_R   0.086965 0.934867 0.359058 -0.771451
O14   O     O_R   0.367850 0.499980 0.614680 -0.652519
O15   O     O_R   0.367840 0.499960 0.385350 -0.621523
O16   O     O_R   0.500010 0.683250 0.614640 -0.579501
O17   O     O_R   0.500000 0.683220 0.385310 -0.621452
O18   O     O_R   0.632160 0.500040 0.614650 -0.594571
O19   O     O_R   0.632150 0.500020 0.385320 -0.617321
O20   O     O_2   0.715806 0.761879 0.480407 -0.663593
Zn1   Zn    Zn3+2 0.500010 0.500020 0.653130 0.992480
Zn2   Zn    Zn3+2 0.499990 0.499980 0.346870 0.986224

loop_
_geom_bond_atom_site_label_1
_geom_bond_atom_site_label_2
_ccdc_geom_bond_type
C44   C49   S    
C37   N5    T    
C27   C29   S    
C19   C20   A    
C34   C42   S    
O1    Zn1   S    
C44   O11   D    
C7    C8    A    
C14   C46   S    
C4    O15   A    
C38   O4    S    
C1    O12   A    
C12   C28   A    
C18   C24   A    
C39   O5    D    
C28   C29   A    
C18   C37   S    
C30   C31   A    
C4    O14   A    
C10   C17   A    
O15   Zn2   S    
C42   N6    T    
C27   O18   A    
C18   C19   A    
O17   Zn2   S    
C22   N2    A    
C8    H8    S    
C31   C32   A    
C8    C9    A    
C30   C39   S    
C40   O8    S    
C27   O19   A    
C6    H1    S    
C9    C10   A    
C21   H11   S    
C16   O17   A    
C13   C14   A    
C12   C32   A    
C50   H13   S    
C15   C35   S    
H4    O8    S    
C38   O3    D    
C45   C47   A    
C2    C45   A    
C5    C48   A    
C26   N2    A    
C39   O6    S    
C25   N1    A    
C33   O20   D    
C6    C11   A    
C16   C17   S    
H2    O4    S    
C25   C26   A    
C9    H9    S    
C23   C31   A    
C29   C30   A    
O14   Zn1   S    
C20   C38   S    
C47   C48   A    
C35   N3    T    
C2    C43   S    
C23   C34   A    
C41   O9    D    
C40   O7    D    
C34   C45   A    
O12   Zn2   S    
H5    O10   S    
C24   N1    A    
N2    Zn1   S    
C48   C49   A    
C28   C33   S    
C32   C47   A    
C22   C24   A    
C1    C13   S    
C3    C4    S    
O18   Zn1   S    
C15   C17   A    
O16   Zn1   S    
N1    Zn2   S    
C43   N7    T    
C46   N8    T    
C3    C5    A    
C12   C50   A    
C36   N4    T    
C6    C7    A    
C19   H10   S    
C23   C41   S    
C1    O1    A    
C2    C3    A    
O19   Zn2   S    
C11   C13   A    
C26   C40   S    
H6    O13   S    
C41   O10   S    
C5    H12   S    
H3    O6    S    
C10   C11   A    
C25   C36   S    
C33   O2    S    
C20   C21   A    
C49   C50   A    
C16   O16   A    
H14   O2    S    
C14   C15   A    
C21   C22   A    
C7    H7    S    
C44   O13   S    
