data_mof_unit_8809.cif
_audit_creation_date              2012-10-26T19:15:58-0400
_audit_creation_method            fapswitch 2.2
_symmetry_space_group_name_H-M    P1
_symmetry_Int_Tables_number       1
_space_group_crystal_system       triclinic
_cell_length_a                    7.810882
_cell_length_b                    9.096962
_cell_length_c                    17.069711
_cell_angle_alpha                 89.614982
_cell_angle_beta                  94.626046
_cell_angle_gamma                 89.549722
_cell_volume                      1208.87192413

loop_
_atom_site_label
_atom_site_type_symbol
_atom_type_description
_atom_site_fract_x
_atom_site_fract_y
_atom_site_fract_z
_atom_type_partial_charge
C1    C     C_R   0.500227 0.220138 0.499159 0.539370
C2    C     C_R   0.609560 0.435741 0.144764 0.120043
C3    C     C_R   0.577201 0.468823 0.904027 0.227621
C4    C     C_R   0.455728 0.440902 0.097133 0.238992
C5    C     C_R   0.667095 0.369669 0.859993 0.110707
C6    C     C_R   0.301652 0.455697 0.132737 0.107397
C7    C     C_R   0.659175 0.383067 0.777395 -0.034744
C8    C     C_R   0.304985 0.452124 0.215908 -0.032122
C9    C     C_1   0.500346 0.065391 0.499104 -0.066508
C10   C     C_1   0.499297 0.934629 0.499304 -0.064127
C11   C     C_3   0.763159 0.594754 0.245022 -0.267488
C12   C     C_R   0.499542 0.779888 0.499616 0.544460
C13   C     C_3   0.707389 0.754207 0.256245 -0.397674
C14   C     C_3   0.314816 0.692946 0.746004 -0.248631
C15   C     C_3   0.402486 0.828487 0.715756 -0.415538
C16   C     C_3   0.771364 0.281533 0.731918 -0.247775
C17   C     C_3   0.670239 0.150323 0.699061 -0.414575
C18   C     C_3   0.146143 0.403702 0.253885 -0.253691
C19   C     C_3   0.169211 0.249972 0.290255 -0.383711
C20   C     C_R   0.522734 0.495276 0.651657 0.547623
C21   C     C_R   0.477416 0.499202 0.347968 0.545420
C22   C     C_R   0.541265 0.486495 0.738737 -0.010343
C23   C     C_R   0.462942 0.485681 0.260566 -0.006215
C24   C     C_R   0.445274 0.583487 0.784144 -0.032688
C25   C     C_R   0.612205 0.498174 0.219071 -0.023072
C26   C     C_R   0.476003 0.581428 0.866668 0.108773
Cu1   Cu    Cu3+1 0.669080 0.500010 0.500000 0.987446
Cu2   Cu    Cu3+1 0.330920 0.499990 0.500000 0.982892
H1    H     H_    0.638337 0.797531 0.201342 0.190241
H2    H     H_    0.221743 0.728786 0.787784 0.180034
H3    H     H_    0.635931 0.080250 0.748523 0.168515
H4    H     H_    0.550935 0.186285 0.664396 0.156486
H5    H     H_    0.750074 0.084763 0.660936 0.146137
H6    H     H_    0.833808 0.339429 0.685077 0.180680
H7    H     H_    0.884180 0.239964 0.769096 0.172418
H8    H     H_    0.187583 0.168223 0.243535 0.177704
H9    H     H_    0.281523 0.243594 0.334185 0.170487
H10   H     H_    0.052438 0.220415 0.319715 0.155726
H11   H     H_    0.108070 0.485165 0.296914 0.165641
H12   H     H_    0.622521 0.763634 0.305080 0.158464
H13   H     H_    0.035529 0.396813 0.210324 0.184657
H14   H     H_    0.822508 0.822802 0.270587 0.156350
H15   H     H_    0.833238 0.552047 0.299255 0.173543
H16   H     H_    0.856091 0.596555 0.199141 0.171723
H17   H     H_    0.470381 0.885394 0.766170 0.177493
H18   H     H_    0.496115 0.798197 0.672961 0.155797
H19   H     H_    0.304973 0.904614 0.686630 0.145630
H20   H     H_    0.230623 0.642533 0.698670 0.177804
I1    I     I_    0.747793 0.235600 0.139673 -0.310967
I2    I     I_    0.388779 0.757690 0.937245 -0.252814
I3    I     I_    0.803352 0.192411 0.921052 -0.217347
I4    I     I_    0.072687 0.490329 0.057601 -0.242855
N1    N     N_1   0.076820 0.499970 0.500010 -0.092053
N2    N     N_1   0.923180 0.500030 0.499990 -0.093208
N3    N     N_2   0.593063 0.457879 0.986961 -0.149344
N4    N     N_2   0.451507 0.435999 0.013839 -0.157589
O1    O     O_R   0.642760 0.288400 0.500000 -0.493182
O2    O     O_R   0.357240 0.711600 0.500000 -0.492511
O3    O     O_R   0.357190 0.288380 0.500000 -0.500101
O4    O     O_R   0.642810 0.711620 0.500000 -0.494561
O5    O     O_R   0.658410 0.498660 0.613920 -0.509255
O6    O     O_R   0.341590 0.501340 0.386080 -0.511335
O7    O     O_R   0.372840 0.498650 0.613930 -0.506856
O8    O     O_R   0.627160 0.501350 0.386070 -0.503401

loop_
_geom_bond_atom_site_label_1
_geom_bond_atom_site_label_2
_ccdc_geom_bond_type
C2    C4    A    
N3    N4    D    
C11   H15   S    
C16   H6    S    
C19   H10   S    
C1    O1    A    
C8    C18   S    
C7    C22   A    
Cu1   O5    S    
C9    C10   T    
C15   H19   S    
Cu2   N1    S    
C12   O2    A    
C20   O7    A    
C23   C25   A    
Cu1   N2    S    
C11   H16   S    
C16   H7    S    
N1    N2    T    
C4    N4    S    
C11   C13   S    
C21   O6    A    
C17   H5    S    
C14   H2    S    
C14   H20   S    
C10   C12   S    
C17   H4    S    
C13   H1    S    
C13   H14   S    
C2    I1    S    
C1    O3    A    
C20   C22   S    
C2    C25   A    
Cu2   O2    S    
Cu1   O4    S    
C26   I2    S    
C21   C23   S    
C17   H3    S    
C22   C24   A    
Cu2   O3    S    
Cu1   O8    S    
C15   H17   S    
C12   O4    A    
Cu2   O7    S    
C3    C5    A    
C20   O5    A    
C8    C23   A    
C1    C9    S    
C4    C6    A    
C18   C19   S    
Cu1   O1    S    
C18   H13   S    
C14   C24   S    
Cu1   Cu2   S    
C5    C7    A    
C18   H11   S    
C11   C25   S    
C14   C15   S    
C7    C16   S    
C13   H12   S    
C6    C8    A    
C19   H9    S    
C15   H18   S    
C6    I4    S    
C19   H8    S    
C3    N3    S    
C3    C26   A    
C5    I3    S    
C24   C26   A    
C16   C17   S    
C21   O8    A    
Cu2   O6    S    
