data_mof_unit_20845.cif
_audit_creation_date              2013-03-05T16:10:38-0500
_audit_creation_method            fapswitch 2.2
_symmetry_space_group_name_H-M    P1
_symmetry_Int_Tables_number       1
_space_group_crystal_system       triclinic
_cell_length_a                    8.233825
_cell_length_b                    15.097831
_cell_length_c                    18.816343
_cell_angle_alpha                 102.114477
_cell_angle_beta                  91.801876
_cell_angle_gamma                 98.665089
_cell_volume                      2256.10121425

loop_
_atom_site_label
_atom_site_type_symbol
_atom_site_description
_atom_site_fract_x
_atom_site_fract_y
_atom_site_fract_z
_atom_type_partial_charge
P1    P     P_3+3 0.039430 0.410940 0.333230 0.551460
O1    O     O_2   0.871960 0.437280 0.322960 -0.304217
O2    O     O_3   0.121410 0.444460 0.412450 -0.359555
O3    O     O_3   0.661450 0.607570 0.372550 -0.275558
O4    O     O_2   0.779949 0.541031 0.248029 -0.321809
O5    O     O_3   0.994098 0.290479 0.312154 -0.562378
O6    O     O_3   0.715833 0.704929 0.261422 -0.480833
H1    H     H_    0.564776 0.788545 0.317651 0.089408
C1    C     C_3   0.636538 0.829412 0.217461 -0.046650
H2    H     H_    0.707185 0.891061 0.254764 0.150319
P2    P     P_3+3 0.676770 0.715000 0.563590 0.487862
P3    P     P_3+3 0.131477 0.776038 0.418220 0.493024
O7    O     O_2   0.852310 0.726980 0.542430 -0.371951
O8    O     O_3   0.084010 0.657370 0.410280 -0.315812
O9    O     O_2   0.034791 0.819742 0.481238 -0.390791
O10   O     O_3   0.696931 0.748569 0.658316 -0.552017
O11   O     O_3   0.038010 0.808090 0.344329 -0.534352
C2    C     C_3   0.143023 0.808739 0.286709 0.895436
C3    C     C_3   0.114698 0.888024 0.250945 -0.873782
H3    H     H_    0.981772 0.885722 0.238827 0.238600
C4    C     C_3   0.244921 0.742227 0.627716 0.434107
H4    H     H_    0.146698 0.723100 0.583051 0.125911
C5    C     C_3   0.285091 0.846471 0.649336 -0.896634
H5    H     H_    0.388315 0.867494 0.691895 0.278398
H6    H     H_    0.320975 0.875302 0.601627 0.198169
H7    H     H_    0.175467 0.875187 0.670764 0.283259
Ba1   Ba    Ba6+2 0.853520 0.540910 0.466490 1.703143
C6    C     C_3   0.947295 0.257510 0.373888 0.226104
H8    H     H_    0.837203 0.285313 0.394154 0.109032
H9    H     H_    0.047509 0.278389 0.417635 0.096225
C7    C     C_3   0.910742 0.152157 0.354385 -0.144914
C8    C     C_3   0.742952 0.677488 0.687327 0.167007
C9    C     C_3   0.772081 0.711371 0.769401 -0.059464
H10   H     H_    0.781354 0.652610 0.795351 0.074249
H11   H     H_    0.664813 0.742768 0.789944 0.194359
P4    P     P_3+3 0.150290 0.589140 0.666780 0.481074
O12   O     O_2   0.317750 0.562750 0.677090 -0.377144
O13   O     O_3   0.068300 0.555620 0.587560 -0.416285
O14   O     O_3   0.528270 0.392500 0.627460 -0.378823
O15   O     O_3   0.193114 0.709250 0.688732 -0.523576
P5    P     P_3+3 0.068633 0.226261 0.591005 0.446392
O16   O     O_3   0.609290 0.386840 0.459690 -0.297028
O17   O     O_3   0.105700 0.342700 0.589730 -0.352567
O18   O     O_2   0.197041 0.181577 0.543959 -0.410997
O19   O     O_3   0.123957 0.217302 0.679415 -0.490125
Ba2   Ba    Ba6+2 0.336320 0.459170 0.533520 1.618420
P6    P     P_3+3 0.645042 0.596399 0.278076 0.592128
C10   C     C_3   0.585885 0.755510 0.260844 0.091742
O20   O     O_3   0.580430 0.613240 0.540320 -0.358630
C11   C     C_3   0.354529 0.218857 0.308426 0.355774
H12   H     H_    0.277430 0.170517 0.334370 -0.039408
H13   H     H_    0.301979 0.283124 0.314380 0.103730
C12   C     C_3   0.349249 0.172196 0.228046 -0.048504
H14   H     H_    0.219190 0.154859 0.205459 0.096946
P7    P     P_3+3 0.519559 0.270583 0.434919 0.506445
O21   O     O_2   0.337390 0.273050 0.457610 -0.407878
O22   O     O_3   0.516917 0.237220 0.339267 -0.505672
C13   C     C_3   0.003617 0.247856 0.725557 0.390820
C14   C     C_3   0.072302 0.267809 0.804269 -0.853638
H15   H     H_    0.178451 0.324746 0.813580 0.271599
H16   H     H_    0.975665 0.288218 0.841334 0.207262
H17   H     H_    0.113319 0.205693 0.816862 0.269977
P8    P     P_3+3 0.547897 0.402926 0.721118 0.448070
C15   C     C_3   0.535993 0.228212 0.684020 0.524953
H18   H     H_    0.668844 0.246438 0.676132 -0.040505
O23   O     O_2   0.418319 0.460495 0.754755 -0.398450
O24   O     O_3   0.483349 0.294226 0.738891 -0.509595
H19   H     H_    0.463892 0.221762 0.631842 0.146670
H20   H     H_    0.548038 0.082684 0.662058 0.216216
C16   C     C_3   0.508163 0.135600 0.705322 -0.947784
H21   H     H_    0.375463 0.114991 0.712526 0.289757
H22   H     H_    0.580400 0.139657 0.757075 0.263395
C17   C     C_R   0.992290 0.457088 0.045445 0.020574
C18   C     C_R   0.888741 0.414642 0.091140 0.076266
C19   C     C_R   0.724417 0.379287 0.066785 -0.109511
C20   C     C_R   0.664375 0.383537 0.997482 -0.186706
C21   C     C_R   0.767772 0.423202 0.950800 0.110809
C22   C     C_R   0.931951 0.461153 0.974848 0.026320
C23   C     C_R   0.709132 0.424651 0.880439 -0.242384
C24   C     C_R   0.812943 0.461703 0.831974 -0.016442
C25   C     C_R   0.976171 0.504241 0.856899 0.017594
C26   C     C_R   0.034678 0.503962 0.928777 0.024128
C27   C     C_R   0.758962 0.456100 0.758960 0.163836
C28   C     C_R   0.868073 0.489834 0.711447 -0.547357
C29   C     C_R   0.026240 0.537595 0.735482 0.259027
C30   C     C_R   0.080793 0.546664 0.810281 -0.030768
C31   C     C_R   0.155526 0.495389 0.070196 0.024093
C32   C     C_R   0.215539 0.492420 0.141354 0.103111
C33   C     C_R   0.109658 0.451659 0.188703 0.005605
C34   C     C_R   0.949049 0.409515 0.160844 -0.080983
H23   H     H_    0.641510 0.349225 0.101692 0.211849
H24   H     H_    0.536839 0.355364 0.980283 0.153188
H25   H     H_    0.826169 0.482434 0.655124 0.177363
C35   C     C_R   0.235590 0.596469 0.840349 0.001246
C36   C     C_R   0.293872 0.597447 0.912224 -0.062386
C37   C     C_R   0.195663 0.546404 0.954871 -0.005740
C38   C     C_R   0.256738 0.540316 0.024844 0.043731
C39   C     C_R   0.449756 0.646941 0.942657 0.333192
C40   C     C_R   0.514263 0.632502 0.008507 -0.213570
C41   C     C_R   0.418907 0.580362 0.049839 0.093098
C42   C     C_R   0.380112 0.532956 0.165498 -0.037678
C43   C     C_R   0.481239 0.573320 0.118086 -0.189986
C44   C     C_R   0.438135 0.534098 0.237048 0.056237
C45   C     C_R   0.334891 0.491263 0.282315 0.067035
C46   C     C_R   0.168377 0.455539 0.262135 0.124558
H26   H     H_    0.314023 0.632109 0.807083 0.177065
H27   H     H_    0.608232 0.602652 0.134603 0.174560
C47   C     C_R   0.856943 0.173851 0.553052 0.142951
C48   C     C_R   0.790907 0.079969 0.546458 -0.025147
C49   C     C_R   0.654912 0.890761 0.529612 -0.043501
C50   C     C_R   0.803711 0.929062 0.571445 -0.046678
C51   C     C_R   0.872439 0.021134 0.578076 -0.195225
C52   C     C_R   0.586517 0.796133 0.518625 0.251480
H28   H     H_    0.870194 0.888823 0.599466 0.184586
C53   C     C_R   0.438310 0.762922 0.476737 -0.471232
C54   C     C_R   0.614836 0.195619 0.484605 0.179135
C55   C     C_R   0.546908 0.102774 0.478350 0.021778
C56   C     C_R   0.635970 0.044282 0.508026 0.025470
C57   C     C_R   0.390574 0.066944 0.444019 -0.047991
C58   C     C_R   0.324051 0.976040 0.436778 -0.194024
C59   C     C_R   0.413612 0.915230 0.460749 0.005321
C60   C     C_R   0.569515 0.949686 0.498592 0.026591
C61   C     C_R   0.348603 0.821540 0.449926 0.101135
C62   C     C_R   0.765353 0.230593 0.524072 -0.536212
H29   H     H_    0.313323 0.108486 0.424222 0.142568
H30   H     H_    0.383965 0.691973 0.471011 0.199034
N1    N     N_R   0.770410 0.118584 0.301532 0.292601
O25   O     O_R   0.782645 0.128720 0.234870 -0.272417
O26   O     O_R   0.643410 0.065653 0.317436 -0.405374
H31   H     H_    0.886849 0.125865 0.404386 0.084480
H32   H     H_    0.018006 0.123336 0.331367 0.092260
H33   H     H_    0.856757 0.657189 0.664107 0.101656
H34   H     H_    0.642521 0.617338 0.676205 0.101293
N2    N     N_R   0.920919 0.779721 0.788348 0.299128
O27   O     O_R   0.038684 0.766251 0.830570 -0.304454
O28   O     O_R   0.929593 0.858294 0.769419 -0.334942
H35   H     H_    0.469107 0.712439 0.235515 0.100509
N3    N     N_R   0.494609 0.854224 0.182652 0.244269
O29   O     O_R   0.478369 0.940146 0.191804 -0.334739
O30   O     O_R   0.403280 0.793777 0.131878 -0.366240
H36   H     H_    0.399773 0.107115 0.222764 0.201814
N4    N     N_R   0.442632 0.231540 0.186737 0.279608
O31   O     O_R   0.391843 0.306432 0.178391 -0.461613
O32   O     O_R   0.564770 0.204208 0.150711 -0.315806
H37   H     H_    0.717576 0.803918 0.174144 0.166209
H38   H     H_    0.175691 0.883935 0.199073 0.298719
H39   H     H_    0.966648 0.312166 0.715146 0.070932
H40   H     H_    0.894548 0.192937 0.718395 0.055871
N5    N     N_R   0.105604 0.720348 0.234894 0.242571
O33   O     O_R   0.126301 0.646656 0.256734 -0.444951
O34   O     O_R   0.043871 0.712930 0.168930 -0.368616
H41   H     H_    0.582330 0.395094 0.863908 0.184885
H42   H     H_    0.868086 0.373375 0.193140 0.189001
N6    N     N_R   0.536784 0.718577 0.912152 0.215711
O35   O     O_R   0.454921 0.773447 0.886277 -0.341333
O36   O     O_R   0.694269 0.744299 0.927804 -0.372262
H43   H     H_    0.635419 0.668077 0.030595 0.191882
H44   H     H_    0.275645 0.821108 0.305239 -0.128236
N7    N     N_R   0.407473 0.473705 0.346189 0.228534
O37   O     O_R   0.399947 0.530130 0.407914 -0.351070
O38   O     O_R   0.523458 0.423657 0.338537 -0.329765
H45   H     H_    0.988708 0.045916 0.609453 0.173631
H46   H     H_    0.200559 0.955062 0.412411 0.159957
H47   H     H_    0.816248 0.302037 0.528428 0.172230
H48   H     H_    0.164078 0.955055 0.287630 0.198270
H49   H     H_    0.356253 0.714363 0.608757 0.074673

loop_
_geom_bond_atom_site_label_1
_geom_bond_atom_site_label_2
_geom_bond_distance
_ccdc_geom_bond_type
P7    O21   1.576055 D    
C39   N6    1.437215 S    
C42   C43   1.408054 A    
P5    C47   1.855584 S    
C17   C18   1.410538 A    
C36   C37   1.415741 A    
C7    N1    1.456272 S    
C31   C32   1.424485 A    
O3    Ba1   2.772876 S    
H1    C10   1.111566 S    
C25   C26   1.422426 A    
C36   C39   1.420878 A    
C21   C22   1.407055 A    
C54   C55   1.407820 A    
O4    P6    1.540532 D    
Ba2   O20   2.813766 S    
C53   H30   1.078592 S    
C10   H35   1.107802 S    
C27   C28   1.403398 A    
P2    O20   1.584277 S    
C15   H19   1.109786 S    
P4    O12   1.509545 D    
C12   N4    1.456166 S    
C7    H31   1.107383 S    
C55   C57   1.399322 A    
C56   C60   1.422209 A    
C8    H34   1.111482 S    
C13   H40   1.110526 S    
P7    C54   1.853646 S    
Ba1   O13   2.789703 S    
C47   C48   1.417672 A    
C59   C61   1.404604 A    
O11   C2    1.408567 S    
P1    O1    1.509183 D    
O16   Ba2   2.910880 S    
C5    H7    1.110273 S    
C1    H37   1.112477 S    
C49   C50   1.410635 A    
C17   C31   1.403983 A    
C7    H32   1.103492 S    
C30   C35   1.413277 A    
C58   H46   1.075700 S    
C9    N2    1.459761 S    
O5    C6    1.399523 S    
C3    H3    1.104826 S    
P3    C61   1.847938 S    
P3    O11   1.756946 S    
C11   H13   1.106866 S    
C17   C22   1.420244 A    
N7    O38   1.297733 A    
P4    Ba2   3.400894 S    
C16   H21   1.110675 S    
C15   C16   1.520767 S    
O8    Ba1   2.777280 S    
C2    N5    1.462016 S    
C1    H2    1.111013 S    
N6    O36   1.302014 A    
C25   C30   1.427884 A    
C19   H23   1.078608 S    
P8    O23   1.544458 D    
C14   H15   1.111001 S    
C42   C44   1.410102 A    
C4    H4    1.108517 S    
P5    O17   1.743760 S    
N5    O34   1.302434 A    
H20   C16   1.109795 S    
C47   C62   1.401730 A    
C24   C27   1.411980 A    
C45   C46   1.404754 A    
C48   C56   1.418463 A    
C32   C42   1.418400 A    
C21   C23   1.400567 A    
C4    C5    1.522455 S    
P8    O24   1.751091 S    
O19   C13   1.404326 S    
C14   H16   1.110429 S    
C3    H38   1.106155 S    
C53   C61   1.394360 A    
C18   C19   1.402248 A    
P1    O5    1.757178 S    
C11   C12   1.524834 S    
C15   O24   1.404875 S    
P4    O15   1.751327 S    
P6    C44   1.874238 S    
C26   C37   1.407045 A    
C20   C21   1.403269 A    
C48   C51   1.403588 A    
C13   H39   1.113062 S    
C2    C3    1.533790 S    
N2    O28   1.301020 A    
C13   C14   1.520813 S    
C12   H14   1.111823 S    
C4    H49   1.103779 S    
P8    C27   1.852991 S    
P1    O2    1.565533 S    
O6    P6    1.749884 S    
C19   C20   1.397554 A    
N1    O26   1.299977 A    
C2    H44   1.111824 S    
O16   P7    1.757306 S    
P2    O10   1.743047 S    
C22   C26   1.414656 A    
N7    O37   1.297553 A    
P3    O9    1.537675 D    
P2    Ba1   3.415950 S    
C5    H5    1.110694 S    
C37   C38   1.420535 A    
C41   C43   1.398583 A    
C11   H12   1.096995 S    
N6    O35   1.301760 A    
C43   H27   1.080897 S    
P7    O22   1.762742 S    
C28   C29   1.401303 A    
C34   H42   1.080033 S    
C49   C52   1.423831 A    
C59   C60   1.418200 A    
O1    Ba1   2.844047 S    
N3    O30   1.301227 A    
C20   H24   1.083811 S    
O14   Ba2   2.772368 S    
C57   H29   1.067747 S    
Ba1   Ba2   4.553345 S    
P3    O8    1.748717 S    
C40   H43   1.084053 S    
P5    O18   1.542637 D    
N4    O32   1.300631 A    
C45   N7    1.417127 S    
Ba2   O21   2.874019 S    
N1    O25   1.300313 A    
C8    H33   1.104070 S    
C38   C41   1.402713 A    
C51   H45   1.081140 S    
C58   C59   1.395374 A    
C6    H8    1.101147 S    
C14   H17   1.110585 S    
C54   C62   1.395210 A    
C50   C51   1.397817 A    
C52   C53   1.396806 A    
C11   O22   1.404775 S    
C6    C7    1.535933 S    
C24   C25   1.418652 A    
C29   C30   1.436050 A    
C57   C58   1.375690 A    
N2    O27   1.300593 A    
P4    C29   1.893621 S    
O10   C8    1.395940 S    
O14   P8    1.736265 S    
O2    Ba2   2.790339 S    
C40   C41   1.396475 A    
C1    N3    1.456618 S    
O6    C10   1.406089 S    
C18   C34   1.409265 A    
O2    Ba1   2.916707 S    
O12   Ba2   2.844586 S    
C6    H9    1.108069 S    
C55   C56   1.416264 A    
C8    C9    1.520636 S    
P2    O7    1.505977 D    
Ba1   O16   2.814347 S    
C4    O15   1.398095 S    
C15   H18   1.109482 S    
P4    O13   1.565559 S    
C9    H11   1.106764 S    
C9    H10   1.109593 S    
C50   H28   1.078531 S    
C12   H36   1.110484 S    
C28   H25   1.081846 S    
C5    H6    1.106615 S    
C35   C36   1.417134 A    
P2    C52   1.854258 S    
O17   Ba2   2.778015 S    
O13   Ba2   2.917611 S    
C35   H26   1.077250 S    
N3    O29   1.300127 A    
C23   C24   1.412171 A    
C32   C33   1.431723 A    
C1    C10   1.532548 S    
C39   C40   1.404198 A    
C33   C46   1.435902 A    
C44   C45   1.406229 A    
P1    Ba1   3.400340 S    
P5    O19   1.748877 S    
N4    O31   1.300362 A    
O7    Ba1   2.873718 S    
C16   H22   1.110571 S    
C3    H48   1.109559 S    
C62   H47   1.081821 S    
C33   C34   1.411147 A    
N5    O33   1.296312 A    
C49   C60   1.416749 A    
Ba1   O20   2.911718 S    
P1    C46   1.903219 S    
C23   H41   1.080222 S    
C31   C38   1.414279 A    
O3    P6    1.748980 S    
