data_mof_unit_56552.cif
_audit_creation_date              2012-12-11T16:26:07-0500
_audit_creation_method            fapswitch 2.2
_symmetry_space_group_name_H-M    P1
_symmetry_Int_Tables_number       1
_space_group_crystal_system       monoclinic
_cell_length_a                    13.987794
_cell_length_b                    13.987795
_cell_length_c                    32.049613
_cell_angle_alpha                 90.0
_cell_angle_beta                  90.0
_cell_angle_gamma                 120.000236
_cell_volume                      5430.63826348

loop_
_atom_site_label
_atom_site_type_symbol
_atom_type_description
_atom_site_fract_x
_atom_site_fract_y
_atom_site_fract_z
_atom_type_partial_charge
C1    C     C_R   0.567558 0.443960 0.810607 0.534117
C2    C     C_R   0.443960 0.567558 0.189392 0.534118
C3    C     C_1   0.916417 0.641713 0.646583 0.231659
C4    C     C_1   0.725295 0.083582 0.853417 0.231658
C5    C     C_1   0.358287 0.274703 0.646583 0.231659
C6    C     C_1   0.641713 0.916418 0.353417 0.231658
C7    C     C_1   0.083582 0.725295 0.146583 0.231659
C8    C     C_1   0.274705 0.358286 0.353417 0.231658
C9    C     C_1   0.641713 0.916418 0.146583 0.231658
C10   C     C_1   0.083581 0.725294 0.353417 0.231658
C11   C     C_1   0.274704 0.358286 0.146583 0.231658
C12   C     C_1   0.982194 0.324081 0.064407 0.211806
C13   C     C_R   0.432442 0.876402 0.310607 0.534116
C14   C     C_1   0.341883 0.017799 0.435594 0.211806
C15   C     C_1   0.675919 0.658114 0.064406 0.211806
C16   C     C_1   0.982201 0.324084 0.435594 0.211806
C17   C     C_1   0.341887 0.017805 0.064407 0.211807
C18   C     C_1   0.675917 0.658117 0.435594 0.211806
C19   C     C_1   0.324077 0.982185 0.564408 0.211808
C20   C     C_1   0.017805 0.341887 0.935593 0.211807
C21   C     C_1   0.658110 0.675921 0.564407 0.211807
C22   C     C_1   0.324081 0.982195 0.935593 0.211806
C23   C     C_1   0.017812 0.341891 0.564407 0.211807
C24   C     C_R   0.123598 0.556040 0.189392 0.534116
C25   C     C_1   0.658113 0.675919 0.935593 0.211807
C26   C     C_1   0.003201 0.512511 0.018663 0.003876
C27   C     C_1   0.509306 0.996792 0.481337 0.003876
C28   C     C_1   0.487488 0.490690 0.018663 0.003876
C29   C     C_1   0.003206 0.512514 0.481337 0.003876
C30   C     C_1   0.509310 0.996798 0.018663 0.003876
C31   C     C_1   0.487486 0.490692 0.481337 0.003876
C32   C     C_1   0.512508 0.003196 0.518664 0.003876
C33   C     C_R   0.876402 0.432442 0.689393 0.534116
C34   C     C_1   0.996797 0.509309 0.981337 0.003876
C35   C     C_1   0.490688 0.487490 0.518664 0.003876
C36   C     C_1   0.512511 0.003202 0.981337 0.003876
C37   C     C_1   0.996802 0.509312 0.518664 0.003876
C38   C     C_1   0.490690 0.487488 0.981337 0.003876
C39   C     C_R   0.931726 0.469992 0.851702 -0.013472
C40   C     C_R   0.538265 0.068273 0.648298 -0.013472
C41   C     C_R   0.530008 0.461734 0.851702 -0.013472
C42   C     C_R   0.931727 0.469993 0.648298 -0.013472
C43   C     C_R   0.538266 0.068274 0.851702 -0.013472
C44   C     C_R   0.556040 0.123598 0.810607 0.534116
C45   C     C_R   0.530007 0.461734 0.648298 -0.013472
C46   C     C_R   0.469991 0.931724 0.351702 -0.013472
C47   C     C_R   0.068274 0.538266 0.148298 -0.013472
C48   C     C_R   0.461733 0.530009 0.351702 -0.013472
C49   C     C_R   0.469992 0.931726 0.148298 -0.013472
C50   C     C_R   0.068275 0.538266 0.351702 -0.013472
C51   C     C_R   0.461734 0.530008 0.148298 -0.013472
C52   C     C_R   0.938789 0.562143 0.873185 -0.027998
C53   C     C_R   0.623353 0.061210 0.626815 -0.027998
C54   C     C_R   0.437857 0.376646 0.873185 -0.027998
C55   C     C_R   0.567558 0.443960 0.689392 0.534117
C56   C     C_R   0.938790 0.562144 0.626815 -0.027998
C57   C     C_R   0.623353 0.061211 0.873185 -0.027998
C58   C     C_R   0.437856 0.376646 0.626815 -0.027998
C59   C     C_R   0.562142 0.938787 0.373185 -0.027998
C60   C     C_R   0.061210 0.623353 0.126815 -0.027998
C61   C     C_R   0.376646 0.437857 0.373185 -0.027998
C62   C     C_R   0.562143 0.938789 0.126815 -0.027998
C63   C     C_R   0.061211 0.623354 0.373185 -0.027998
C64   C     C_R   0.376646 0.437857 0.126815 -0.027998
C65   C     C_R   0.965237 0.576437 0.915627 -0.122013
C66   C     C_R   0.876402 0.432442 0.810607 0.534116
C67   C     C_R   0.611198 0.034760 0.584373 -0.122013
C68   C     C_R   0.423563 0.388800 0.915627 -0.122013
C69   C     C_R   0.965239 0.576438 0.584373 -0.122013
C70   C     C_R   0.611200 0.034763 0.915627 -0.122013
C71   C     C_R   0.423562 0.388800 0.584373 -0.122013
C72   C     C_R   0.576435 0.965233 0.415627 -0.122013
C73   C     C_R   0.034762 0.611199 0.084373 -0.122013
C74   C     C_R   0.388799 0.423564 0.415627 -0.122013
C75   C     C_R   0.576437 0.965237 0.084373 -0.122013
C76   C     C_R   0.034765 0.611200 0.415627 -0.122013
C77   C     C_R   0.556040 0.123597 0.689393 0.534117
C78   C     C_R   0.388800 0.423563 0.084373 -0.122013
C79   C     C_R   0.986790 0.502062 0.936813 0.008779
C80   C     C_R   0.515269 0.013204 0.563187 0.008779
C81   C     C_R   0.497938 0.484728 0.936813 0.008779
C82   C     C_R   0.986794 0.502064 0.563187 0.008779
C83   C     C_R   0.515272 0.013210 0.936813 0.008779
C84   C     C_R   0.497936 0.484729 0.563187 0.008779
C85   C     C_R   0.502059 0.986785 0.436814 0.008779
C86   C     C_R   0.013209 0.515271 0.063187 0.008779
C87   C     C_R   0.484726 0.497940 0.436814 0.008779
C88   C     C_R   0.443960 0.567558 0.310607 0.534117
C89   C     C_R   0.502062 0.986790 0.063187 0.008779
C90   C     C_R   0.013214 0.515273 0.436814 0.008779
C91   C     C_R   0.484728 0.497938 0.063187 0.008779
C92   C     C_R   0.990889 0.417258 0.914953 -0.009164
C93   C     C_R   0.426366 0.009104 0.585048 -0.009163
C94   C     C_R   0.582742 0.573631 0.914953 -0.009164
C95   C     C_R   0.990894 0.417261 0.585048 -0.009163
C96   C     C_R   0.426368 0.009111 0.914953 -0.009164
C97   C     C_R   0.582740 0.573633 0.585048 -0.009163
C98   C     C_R   0.417255 0.990884 0.414953 -0.009164
C99   C     C_R   0.432442 0.876402 0.189392 0.534116
C100  C     C_R   0.009110 0.426368 0.085047 -0.009163
C101  C     C_R   0.573630 0.582744 0.414953 -0.009164
C102  C     C_R   0.417258 0.990889 0.085047 -0.009163
C103  C     C_R   0.009115 0.426370 0.414953 -0.009164
C104  C     C_R   0.573631 0.582742 0.085047 -0.009164
C105  C     C_R   0.963895 0.402067 0.872663 -0.135828
C106  C     C_R   0.438169 0.036100 0.627338 -0.135828
C107  C     C_R   0.597933 0.561829 0.872663 -0.135828
C108  C     C_R   0.963899 0.402069 0.627338 -0.135828
C109  C     C_R   0.438171 0.036104 0.872663 -0.135828
C110  C     C_R   0.123598 0.556040 0.310607 0.534116
C111  C     C_R   0.597932 0.561830 0.627338 -0.135828
C112  C     C_R   0.402065 0.963893 0.372663 -0.135828
C113  C     C_R   0.036104 0.438170 0.127337 -0.135828
C114  C     C_R   0.561828 0.597935 0.372663 -0.135828
C115  C     C_R   0.402067 0.963896 0.127337 -0.135828
C116  C     C_R   0.036107 0.438171 0.372663 -0.135828
C117  C     C_R   0.561829 0.597934 0.127337 -0.135828
C118  C     C_1   0.916418 0.641713 0.853417 0.231658
C119  C     C_1   0.725296 0.083584 0.646583 0.231659
C120  C     C_1   0.358286 0.274704 0.853417 0.231658
Cr1   Cr    Cr6+3 0.504240 0.249200 0.750000 1.080420
Cr2   Cr    Cr6+3 0.744960 0.495760 0.750000 1.080420
Cr3   Cr    Cr6+3 0.750800 0.255040 0.750000 1.080420
Cr4   Cr    Cr6+3 0.249200 0.504240 0.250000 1.080421
Cr5   Cr    Cr6+3 0.495760 0.744960 0.250000 1.080421
Cr6   Cr    Cr6+3 0.255040 0.750800 0.250000 1.080420
H1    H     H_    0.034834 0.678377 0.067386 0.143092
H2    H     H_    0.678377 0.034834 0.932614 0.143092
H3    H     H_    0.965167 0.643543 0.567386 0.143093
H4    H     H_    0.356457 0.321622 0.932614 0.143092
H5    H     H_    0.037573 0.370578 0.143282 0.166836
H6    H     H_    0.333004 0.962423 0.356718 0.166836
H7    H     H_    0.629421 0.666995 0.143282 0.166836
H8    H     H_    0.037577 0.370580 0.356718 0.166836
H9    H     H_    0.333006 0.962426 0.143283 0.166836
H10   H     H_    0.629420 0.666997 0.356718 0.166836
H11   H     H_    0.370577 0.037569 0.643283 0.166836
H12   H     H_    0.643540 0.965161 0.432614 0.143092
H13   H     H_    0.962426 0.333005 0.856718 0.166836
H14   H     H_    0.666993 0.629422 0.643283 0.166836
H15   H     H_    0.370579 0.037574 0.856718 0.166836
H16   H     H_    0.962430 0.333008 0.643283 0.166836
H17   H     H_    0.666995 0.629421 0.856718 0.166836
H18   H     H_    0.321622 0.356457 0.067386 0.143092
H19   H     H_    0.034837 0.678378 0.432614 0.143092
H20   H     H_    0.643542 0.965165 0.067386 0.143092
H21   H     H_    0.321621 0.356458 0.432614 0.143092
H22   H     H_    0.678376 0.034833 0.567386 0.143092
H23   H     H_    0.965165 0.643542 0.932614 0.143092
H24   H     H_    0.356456 0.321623 0.567386 0.143093
N1    N     N_1   0.898815 0.705823 0.837692 -0.258823
N2    N     N_1   0.705823 0.898815 0.162308 -0.258823
N3    N     N_1   0.101182 0.807006 0.337691 -0.258822
N4    N     N_1   0.192991 0.294177 0.162308 -0.258822
N5    N     N_1   0.960481 0.241990 0.047984 -0.244862
N6    N     N_1   0.281505 0.039511 0.452017 -0.244862
N7    N     N_1   0.758010 0.718492 0.047984 -0.244862
N8    N     N_1   0.960489 0.241993 0.452017 -0.244861
N9    N     N_1   0.281509 0.039518 0.047984 -0.244862
N10   N     N_1   0.758007 0.718496 0.452017 -0.244861
N11   N     N_1   0.241985 0.960468 0.547985 -0.244864
N12   N     N_1   0.807009 0.101189 0.662308 -0.258823
N13   N     N_1   0.039517 0.281509 0.952016 -0.244862
N14   N     N_1   0.718488 0.758013 0.547985 -0.244862
N15   N     N_1   0.241990 0.960481 0.952016 -0.244862
N16   N     N_1   0.039527 0.281514 0.547985 -0.244863
N17   N     N_1   0.718491 0.758010 0.952016 -0.244862
N18   N     N_1   0.294177 0.192991 0.837692 -0.258823
N19   N     N_1   0.898813 0.705821 0.662308 -0.258823
N20   N     N_1   0.807007 0.101185 0.837692 -0.258823
N21   N     N_1   0.294178 0.192990 0.662308 -0.258823
N22   N     N_1   0.705823 0.898816 0.337692 -0.258823
N23   N     N_1   0.101185 0.807007 0.162308 -0.258822
N24   N     N_1   0.192993 0.294176 0.337691 -0.258823
O1    O     O_R   0.480350 0.140770 0.796330 -0.499486
O2    O     O_R   0.140770 0.480350 0.203670 -0.499486
O3    O     O_R   0.519650 0.660420 0.296330 -0.499487
O4    O     O_R   0.339580 0.859230 0.203670 -0.499486
O5    O     O_R   0.514930 0.348530 0.793250 -0.485512
O6    O     O_R   0.833600 0.485070 0.706750 -0.485513
O7    O     O_R   0.651470 0.166400 0.793250 -0.485512
O8    O     O_R   0.514930 0.348530 0.706750 -0.485512
O9    O     O_R   0.833600 0.485070 0.793250 -0.485513
O10   O     O_R   0.651470 0.166400 0.706750 -0.485512
O11   O     O_R   0.348530 0.514930 0.293250 -0.485512
O12   O     O_R   0.660420 0.519650 0.703670 -0.499486
O13   O     O_R   0.485070 0.833600 0.206750 -0.485513
O14   O     O_R   0.166400 0.651470 0.293250 -0.485512
O15   O     O_R   0.348530 0.514930 0.206750 -0.485512
O16   O     O_R   0.485070 0.833600 0.293250 -0.485513
O17   O     O_R   0.166400 0.651470 0.206750 -0.485512
O18   O     O_3   0.666667 0.333333 0.750000 -0.259301
O19   O     O_3   0.333333 0.666667 0.250000 -0.259302
O20   O     O_R   0.859230 0.339580 0.796330 -0.499486
O21   O     O_R   0.480350 0.140770 0.703670 -0.499486
O22   O     O_R   0.660420 0.519650 0.796330 -0.499486
O23   O     O_R   0.859230 0.339580 0.703670 -0.499485
O24   O     O_R   0.140770 0.480350 0.296330 -0.499487
O25   O     O_R   0.519650 0.660420 0.203670 -0.499486
O26   O     O_R   0.339580 0.859230 0.296330 -0.499486

loop_
_geom_bond_atom_site_label_1
_geom_bond_atom_site_label_2
_ccdc_geom_bond_type
C66   O9    A    
C9    N2    T    
C65   C79   A    
C13   O26   A    
C46   C112  A    
C46   C59   A    
C110  O24   A    
C10   C63   S    
C44   O1    A    
C91   C104  A    
C17   C102  S    
C117  H7    S    
Cr1   O18   S    
C99   O13   A    
C72   C85   A    
C88   O3    A    
Cr1   O5    S    
C6    N22   T    
C25   N17   T    
Cr2   O6    S    
C20   C92   S    
C110  O14   A    
C4    N20   T    
C5    C58   S    
C68   C81   A    
C49   C62   A    
C48   C114  A    
C51   C64   A    
C15   N7    T    
C54   C120  S    
Cr4   O11   S    
C34   C79   S    
C8    N24   T    
C58   C71   A    
Cr2   O12   S    
C71   H24   S    
C32   C80   S    
C63   C76   A    
C102  C115  A    
C36   C83   S    
C70   H2    S    
Cr4   O24   S    
C60   C73   A    
C50   C110  S    
C77   O10   A    
C119  N12   T    
C47   C113  A    
C19   N11   T    
C55   O12   A    
C27   C85   S    
Cr4   O15   S    
C85   C98   A    
C11   N4    T    
C42   C56   A    
C47   C60   A    
C87   C101  A    
C22   N15   T    
C26   C34   T    
Cr4   O19   S    
C48   C88   S    
Cr3   O20   S    
Cr5   O16   S    
C69   C82   A    
C59   C72   A    
C33   O23   A    
C15   C104  S    
C24   O17   A    
C86   C100  A    
C19   C93   S    
C8    C61   S    
C72   H12   S    
C39   C52   A    
C25   C94   S    
C21   N14   T    
C33   O6    A    
C101  C114  A    
C118  N1    T    
C22   C96   S    
C30   C89   S    
C17   N9    T    
C10   N3    T    
C108  H16   S    
C29   C90   S    
C66   O20   A    
C111  H14   S    
C14   C98   S    
C50   C63   A    
C75   H20   S    
C62   C75   A    
C45   C58   A    
C94   C107  A    
C31   C87   S    
C100  C113  A    
C16   N8    T    
C2    O25   A    
C74   H21   S    
C1    O22   A    
C98   C112  A    
C99   O4    A    
C11   C64   S    
C2    C51   S    
C49   C99   S    
C75   C89   A    
C3    N19   T    
C106  H11   S    
C73   H1    S    
C20   N13   T    
C13   O16   A    
C9    C62   S    
C18   C101  S    
C4    C57   S    
C43   C44   S    
Cr3   O10   S    
C2    O15   A    
C78   H18   S    
C93   C106  A    
C105  H13   S    
C23   N16   T    
C21   C97   S    
C3    C56   S    
C16   C103  S    
Cr5   O19   S    
C26   C86   S    
C54   C68   A    
C89   C102  A    
C53   C119  S    
C5    N21   T    
C112  H6    S    
C78   C91   A    
C68   H4    S    
C70   C83   A    
Cr5   O25   S    
C79   C92   A    
C80   C93   A    
C1    C41   S    
Cr2   O9    S    
C49   C115  A    
C76   H19   S    
C56   C69   A    
C38   C81   S    
Cr5   O3    S    
C74   C87   A    
C39   C66   S    
C31   C35   T    
C37   C82   S    
C84   C97   A    
C12   N5    T    
C107  H17   S    
C24   O2    A    
C7    C60   S    
C120  N18   T    
C40   C106  A    
C71   C84   A    
Cr6   O26   S    
C13   C46   S    
C39   C105  A    
C33   C42   S    
C88   O11   A    
C82   C95   A    
C113  H5    S    
C14   N6    T    
C27   C32   T    
C24   C47   S    
C64   C78   A    
C6    C59   S    
Cr3   O23   S    
C67   C80   A    
Cr2   O22   S    
C35   C84   S    
C45   C111  A    
Cr2   O18   S    
Cr4   O2    S    
C61   C74   A    
C96   C109  A    
C104  C117  A    
C30   C36   T    
Cr5   O13   S    
Cr6   O14   S    
C103  C116  A    
C77   O21   A    
Cr3   O7    S    
C81   C94   A    
C1    O5    A    
Cr6   O19   S    
C48   C61   A    
Cr1   O1    S    
C115  H9    S    
Cr3   O18   S    
C97   C111  A    
C83   C96   A    
C7    N23   T    
C51   C117  A    
C55   O8    A    
C23   C95   S    
Cr6   O4    S    
C28   C91   S    
C50   C116  A    
C41   C54   A    
C65   H23   S    
Cr6   O17   S    
C53   C67   A    
C90   C103  A    
C12   C100  S    
C18   N10   T    
C95   C108  A    
C43   C57   A    
C57   C70   A    
C41   C107  A    
C92   C105  A    
C116  H8    S    
C45   C55   S    
C69   H3    S    
C40   C53   A    
C29   C37   T    
C67   H22   S    
C114  H10   S    
C40   C77   S    
C109  H15   S    
C73   C86   A    
C43   C109  A    
C28   C38   T    
C42   C108  A    
C44   O7    A    
Cr1   O21   S    
C52   C65   A    
C76   C90   A    
Cr1   O8    S    
C52   C118  S    
