data_mof_unit_39317.cif
_audit_creation_date              2012-12-11T15:34:01-0500
_audit_creation_method            fapswitch 2.2
_symmetry_space_group_name_H-M    P1
_symmetry_Int_Tables_number       1
_space_group_crystal_system       triclinic
_cell_length_a                    15.064239
_cell_length_b                    15.073168
_cell_length_c                    34.912013
_cell_angle_alpha                 90.617453
_cell_angle_beta                  89.96489
_cell_angle_gamma                 60.090378
_cell_volume                      6870.94509713

loop_
_atom_site_label
_atom_site_type_symbol
_atom_type_description
_atom_site_fract_x
_atom_site_fract_y
_atom_site_fract_z
_atom_type_partial_charge
C1    C     C_R   0.303014 0.608024 0.555931 0.541863
C2    C     C_R   0.237349 0.710162 0.386468 -0.125336
C3    C     C_R   0.751797 0.149631 0.265956 -0.118276
C4    C     C_R   0.757580 0.142905 0.226128 -0.114825
C5    C     C_R   0.670186 0.202494 0.203943 0.028185
C6    C     C_R   0.723205 0.228003 0.348548 -0.122983
C7    C     C_R   0.707711 0.245960 0.387881 -0.127586
C8    C     C_R   0.551344 0.237698 0.383446 -0.125799
C9    C     C_R   0.713314 0.547151 0.655324 -0.131148
C10   C     C_R   0.566663 0.220258 0.344135 -0.122376
C11   C     C_R   0.650474 0.219362 0.326233 0.031228
C12   C     C_R   0.619217 0.255478 0.405382 0.021922
C13   C     C_R   0.215751 0.712399 0.347697 -0.123040
C14   C     C_R   0.088090 0.704341 0.093391 0.025860
C15   C     C_R   0.083789 0.623212 0.111288 -0.141421
C16   C     C_R   0.120145 0.594023 0.148110 -0.133781
C17   C     C_R   0.161357 0.645415 0.168218 0.018319
C18   C     C_R   0.175396 0.719486 0.149552 -0.105738
C19   C     C_R   0.140987 0.748916 0.111962 -0.003418
C20   C     C_R   0.263156 0.631329 0.226594 -0.122282
C21   C     C_3   0.592415 0.058495 0.788882 -0.254434
C22   C     C_3   0.542168 0.014070 0.762490 -0.313683
C23   C     C_3   0.495113 0.962837 0.785751 -0.436078
C24   C     C_R   0.203319 0.634287 0.331161 0.029545
C25   C     C_R   0.483521 0.800519 0.592242 0.052639
C26   C     C_R   0.513095 0.834918 0.559970 -0.067994
C27   C     C_R   0.440758 0.920462 0.540001 -0.111901
C28   C     C_R   0.338651 0.972892 0.552231 -0.105899
C29   C     C_R   0.308810 0.940141 0.584553 -0.115281
C30   C     C_R   0.380920 0.854690 0.604588 -0.094924
C31   C     C_3   0.195518 0.808349 0.677888 -0.259280
C32   C     C_3   0.289128 0.775590 0.703673 -0.284345
C33   C     C_3   0.286231 0.868106 0.723162 -0.455568
C34   C     C_3   0.162078 0.827398 0.093509 -0.243701
C35   C     C_R   0.565414 0.717063 0.653603 -0.132715
C36   C     C_3   0.237316 0.780319 0.059722 -0.281311
C37   C     C_3   0.257327 0.859620 0.040887 -0.449029
C38   C     C_R   0.248511 0.628637 0.409024 0.023373
C39   C     C_R   0.735540 0.026863 0.943873 0.541625
C40   C     C_R   0.745452 0.722071 0.945372 0.544394
C41   C     C_R   0.038424 0.733910 0.948349 0.536809
C42   C     C_R   0.723000 0.038833 0.052827 0.543307
C43   C     C_R   0.733325 0.734459 0.054679 0.542384
C44   C     C_R   0.639497 0.634672 0.674820 0.018760
C45   C     C_R   0.028655 0.744195 0.057717 0.535836
C46   C     C_R   0.560232 0.709620 0.613460 -0.021193
C47   C     C_R   0.648128 0.645496 0.794808 0.347668
C48   C     C_R   0.640959 0.638519 0.717122 0.349480
C49   C     C_R   0.750791 0.582959 0.854468 -0.123379
C50   C     C_R   0.774727 0.602045 0.891005 -0.130173
C51   C     C_R   0.615886 0.764003 0.893438 -0.135910
C52   C     C_R   0.591213 0.744119 0.856938 -0.134429
C53   C     C_R   0.661152 0.655983 0.836279 0.032297
C54   C     C_R   0.610375 0.587881 0.555711 0.535971
C55   C     C_R   0.271510 0.631151 0.266273 -0.119272
C56   C     C_R   0.709843 0.694827 0.910142 0.022193
C57   C     C_R   0.720707 0.081576 0.907857 0.024594
C58   C     C_R   0.621981 0.152016 0.895280 -0.130441
C59   C     C_R   0.607537 0.189473 0.858074 -0.126134
C60   C     C_R   0.691186 0.153520 0.832811 0.022377
C61   C     C_R   0.790452 0.089565 0.846254 -0.126815
C62   C     C_R   0.805297 0.054419 0.883708 -0.129512
C63   C     C_R   0.711922 0.228863 0.773365 -0.126425
C64   C     C_R   0.706425 0.239579 0.733736 -0.119965
C65   C     C_R   0.667166 0.189417 0.711345 0.011325
C66   C     C_R   0.196909 0.628400 0.289492 0.026173
C67   C     C_R   0.589537 0.301620 0.553819 0.543009
C68   C     C_R   0.633064 0.128963 0.729260 -0.097680
C69   C     C_R   0.633707 0.120692 0.769307 0.013358
C70   C     C_R   0.675443 0.170552 0.791383 0.022079
C71   C     C_R   0.568192 0.213525 0.651412 -0.122002
C72   C     C_R   0.551747 0.235907 0.612732 -0.123704
C73   C     C_R   0.711368 0.237827 0.608715 -0.128741
C74   C     C_R   0.728758 0.213569 0.647486 -0.120446
C75   C     C_R   0.655726 0.204214 0.669452 0.032613
C76   C     C_R   0.621086 0.252197 0.591322 0.022433
C77   C     C_R   0.116084 0.621748 0.272774 -0.118626
C78   C     C_R   0.092981 0.696652 0.911410 0.020248
C79   C     C_R   0.300270 0.610197 0.446107 0.542404
C80   C     C_R   0.114068 0.761837 0.889524 -0.131483
C81   C     C_R   0.139471 0.740688 0.850889 -0.124857
C82   C     C_R   0.146263 0.653160 0.833719 0.028432
C83   C     C_R   0.134738 0.582922 0.856083 -0.119988
C84   C     C_R   0.107721 0.604756 0.894769 -0.128556
C85   C     C_R   0.240925 0.561355 0.774323 -0.117968
C86   C     C_R   0.251586 0.558353 0.734514 -0.125740
C87   C     C_R   0.175352 0.635711 0.712119 0.024489
C88   C     C_R   0.106920 0.623239 0.233099 -0.114156
C89   C     C_R   0.085573 0.712162 0.729629 -0.115560
C90   C     C_R   0.075747 0.716207 0.769367 -0.113678
C91   C     C_R   0.607896 0.589571 0.445233 0.539737
C92   C     C_R   0.154264 0.642085 0.791898 0.026185
C93   C     C_R   0.203958 0.718906 0.654507 0.008247
C94   C     C_R   0.230539 0.711974 0.615611 -0.119069
C95   C     C_R   0.235541 0.549475 0.609457 -0.135495
C96   C     C_R   0.206780 0.556225 0.647759 -0.135542
C97   C     C_R   0.193021 0.638940 0.670797 0.038301
C98   C     C_R   0.250704 0.625785 0.593342 0.007618
C99   C     C_R   0.179397 0.629916 0.209691 0.029037
C100  C     C_R   0.690974 0.718170 0.090304 0.020485
C101  C     C_R   0.604167 0.799539 0.107925 -0.130798
C102  C     C_R   0.576626 0.790036 0.145213 -0.125167
C103  C     C_R   0.587741 0.303138 0.443663 0.542907
C104  C     C_R   0.635217 0.698989 0.165407 0.031421
C105  C     C_R   0.717246 0.615289 0.146679 -0.120801
C106  C     C_R   0.744757 0.624731 0.109495 -0.128133
C107  C     C_R   0.631415 0.603660 0.223051 -0.121843
C108  C     C_R   0.631570 0.593790 0.262697 -0.119656
C109  C     C_R   0.618641 0.674374 0.286946 0.026747
C110  C     C_R   0.204580 0.558239 0.354229 -0.122746
C111  C     C_R   0.601048 0.766640 0.270960 -0.117710
C112  C     C_R   0.601637 0.776312 0.231261 -0.114729
C113  C     C_R   0.618977 0.694101 0.206942 0.027914
C114  C     C_R   0.549240 0.734839 0.353007 -0.122818
C115  C     C_R   0.629112 0.616001 0.594604 0.010514
C116  C     C_R   0.548325 0.715406 0.391971 -0.128524
C117  C     C_R   0.703741 0.551797 0.383504 -0.125472
C118  C     C_R   0.704055 0.570903 0.344566 -0.122441
C119  C     C_R   0.624901 0.660888 0.328805 0.030425
C120  C     C_R   0.623491 0.621951 0.407297 0.021521
C121  C     C_R   0.227491 0.555145 0.393020 -0.127416
C122  C     C_R   0.699088 0.102328 0.087776 0.022065
C123  C     C_R   0.772831 0.122813 0.103623 -0.128454
C124  C     C_R   0.759991 0.162976 0.140642 -0.124800
C125  C     C_R   0.673344 0.183154 0.162347 0.031616
C126  C     C_R   0.595479 0.171301 0.145244 -0.120287
C127  C     C_R   0.708456 0.538125 0.615928 -0.140955
C128  C     C_R   0.608147 0.131386 0.108202 -0.128036
C129  C     C_R   0.577864 0.271723 0.222239 -0.121778
C130  C     C_R   0.572020 0.278106 0.262077 -0.119119
C131  C     C_R   0.658431 0.215530 0.284192 0.027372
Cr1   Cr    Cr6+3 0.421670 0.426920 0.499620 1.007179
Cr2   Cr    Cr6+3 0.427030 0.651190 0.500980 1.026279
Cr3   Cr    Cr6+3 0.651280 0.421870 0.499380 1.006511
Cr4   Cr    Cr6+3 0.910810 0.908010 0.001130 0.999948
Cr5   Cr    Cr6+3 0.682800 0.909890 0.998370 1.008073
Cr6   Cr    Cr6+3 0.908370 0.682300 0.002180 1.005779
H1    H     H_    0.763769 0.466194 0.602630 0.135139
H2    H     H_    0.855730 0.061740 0.827052 0.106788
H3    H     H_    0.766123 0.250069 0.592892 0.119765
H4    H     H_    0.103759 0.833042 0.901431 0.124890
H5    H     H_    0.092136 0.553032 0.910922 0.121832
H6    H     H_    0.198868 0.494662 0.659920 0.111432
H7    H     H_    0.321008 0.498248 0.721271 0.115248
H8    H     H_    0.301738 0.503412 0.791444 0.111017
H9    H     H_    0.149060 0.795107 0.833892 0.106988
H10   H     H_    0.024697 0.770398 0.712625 0.105923
H11   H     H_    0.007615 0.778066 0.782668 0.111531
H12   H     H_    0.882228 0.000077 0.892798 0.126595
H13   H     H_    0.847070 0.546301 0.903299 0.130130
H14   H     H_    0.241955 0.771135 0.603279 0.127489
H15   H     H_    0.140031 0.514872 0.843064 0.108605
H16   H     H_    0.250606 0.482002 0.593002 0.126761
H17   H     H_    0.560815 0.872364 0.093767 0.123011
H18   H     H_    0.811711 0.560470 0.096630 0.124987
H19   H     H_    0.764315 0.513732 0.326461 0.103142
H20   H     H_    0.642777 0.522739 0.274477 0.110949
H21   H     H_    0.643233 0.539756 0.204987 0.104940
H22   H     H_    0.511974 0.855151 0.158794 0.098821
H23   H     H_    0.797889 0.204824 0.660466 0.099199
H24   H     H_    0.590872 0.829705 0.289178 0.104208
H25   H     H_    0.773014 0.483081 0.670635 0.130884
H26   H     H_    0.593352 0.846392 0.219687 0.105463
H27   H     H_    0.487647 0.804949 0.341421 0.100752
H28   H     H_    0.485469 0.770936 0.409585 0.120066
H29   H     H_    0.764420 0.544401 0.161579 0.101934
H30   H     H_    0.762750 0.479092 0.394372 0.125553
H31   H     H_    0.843167 0.102409 0.088329 0.119577
H32   H     H_    0.549736 0.116995 0.096645 0.124735
H33   H     H_    0.510928 0.211346 0.327453 0.102993
H34   H     H_    0.731837 0.288026 0.720711 0.118462
H35   H     H_    0.499773 0.331378 0.275660 0.110604
H36   H     H_    0.509819 0.319283 0.205741 0.105461
H37   H     H_    0.511451 0.787296 0.668297 0.121898
H38   H     H_    0.820147 0.173380 0.153016 0.098935
H39   H     H_    0.819240 0.100701 0.282521 0.103908
H40   H     H_    0.829279 0.087536 0.212767 0.105490
H41   H     H_    0.788636 0.227141 0.335268 0.099986
H42   H     H_    0.761462 0.259198 0.404043 0.122537
H43   H     H_    0.528129 0.185695 0.161426 0.102387
H44   H     H_    0.482725 0.244047 0.396108 0.126151
H45   H     H_    0.744452 0.266438 0.790147 0.121560
H46   H     H_    0.046980 0.585160 0.097700 0.134096
H47   H     H_    0.213146 0.772612 0.330218 0.105946
H48   H     H_    0.805569 0.513245 0.839744 0.130222
H49   H     H_    0.335625 0.634190 0.278927 0.113215
H50   H     H_    0.320927 0.634654 0.209182 0.104098
H51   H     H_    0.111530 0.534290 0.161558 0.104166
H52   H     H_    0.058110 0.619467 0.290432 0.106746
H53   H     H_    0.040655 0.623739 0.220848 0.107250
H54   H     H_    0.194428 0.497785 0.341766 0.102718
H55   H     H_    0.235190 0.491725 0.409825 0.120884
H56   H     H_    0.530636 0.241054 0.848206 0.103801
H57   H     H_    0.209080 0.758022 0.164999 0.097547
H58   H     H_    0.252713 0.768118 0.398005 0.127788
H59   H     H_    0.563442 0.835285 0.907843 0.123458
H60   H     H_    0.519719 0.800123 0.844254 0.118503
H61   H     H_    0.555964 0.174847 0.913678 0.119314
H62   H     H_    0.555817 0.899636 0.802461 0.177156
H63   H     H_    0.435385 0.018850 0.805647 0.138120
H64   H     H_    0.459081 0.931635 0.766162 0.172530
H65   H     H_    0.480175 0.076315 0.745655 0.155004
H66   H     H_    0.600444 0.956100 0.742626 0.172166
H67   H     H_    0.606655 0.087999 0.711424 0.100066
H68   H     H_    0.655925 0.994909 0.804706 0.158226
H69   H     H_    0.532961 0.109139 0.809911 0.146042
H70   H     H_    0.592066 0.795430 0.550274 0.094655
H71   H     H_    0.463914 0.946176 0.515066 0.100269
H72   H     H_    0.282740 0.039065 0.536734 0.102401
H73   H     H_    0.229779 0.980912 0.594100 0.096224
H74   H     H_    0.356646 0.830226 0.629494 0.094563
H75   H     H_    0.290506 0.919191 0.701439 0.143264
H76   H     H_    0.214674 0.911547 0.740262 0.148061
H77   H     H_    0.352459 0.842092 0.742698 0.177836
H78   H     H_    0.509344 0.208727 0.667532 0.097949
H79   H     H_    0.291190 0.723348 0.726216 0.185659
H80   H     H_    0.360672 0.734201 0.686382 0.170881
H81   H     H_    0.189198 0.869189 0.658443 0.124810
H82   H     H_    0.124165 0.844600 0.695227 0.140889
H83   H     H_    0.184859 0.923476 0.029605 0.153182
H84   H     H_    0.290798 0.890461 0.061877 0.145691
H85   H     H_    0.312154 0.823347 0.016699 0.143590
H86   H     H_    0.311131 0.716475 0.070172 0.158727
H87   H     H_    0.206963 0.748757 0.037770 0.179055
H88   H     H_    0.089722 0.895708 0.084802 0.171278
H89   H     H_    0.481040 0.247138 0.600320 0.128840
H90   H     H_    0.196759 0.856833 0.114624 0.119718
N1    N     N_R   0.722146 0.565134 0.774640 -0.240768
N2    N     N_R   0.718371 0.561498 0.736667 -0.240986
N3    N     N_R   0.565566 0.717945 0.737265 -0.262733
N4    N     N_R   0.569238 0.721408 0.775354 -0.265916
O1    O     O_R   0.502070 0.323090 0.541280 -0.522324
O2    O     O_R   0.831550 0.656950 0.958960 -0.521330
O3    O     O_R   0.998590 0.685540 0.963930 -0.501032
O4    O     O_R   0.338340 0.520690 0.539540 -0.503487
O5    O     O_R   0.008220 0.831200 0.045060 -0.524156
O6    O     O_R   0.813270 0.997930 0.038810 -0.502565
O7    O     O_R   0.657500 0.016560 0.039940 -0.522640
O8    O     O_R   0.685680 0.820940 0.038120 -0.502938
O9    O     O_R   0.822130 0.666070 0.043610 -0.521743
O10   O     O_R   0.989860 0.694000 0.042400 -0.504858
O11   O     O_3   0.833990 0.833400 0.000560 -0.231548
O12   O     O_R   0.520720 0.641670 0.461580 -0.502198
O13   O     O_R   0.324760 0.674070 0.543580 -0.511509
O14   O     O_R   0.522400 0.640310 0.540110 -0.483762
O15   O     O_R   0.675940 0.500630 0.542210 -0.524634
O16   O     O_R   0.641790 0.337020 0.538150 -0.502693
O17   O     O_R   0.500260 0.324550 0.456580 -0.520470
O18   O     O_R   0.336660 0.522040 0.461020 -0.503048
O19   O     O_R   0.322940 0.675540 0.458880 -0.520879
O20   O     O_R   0.674120 0.502090 0.457500 -0.521289
O21   O     O_R   0.640110 0.338380 0.459630 -0.503047
O22   O     O_3   0.499990 0.499990 0.499990 -0.236524
O23   O     O_R   0.017640 0.822070 0.960410 -0.525937
O24   O     O_R   0.822000 0.989470 0.960340 -0.503384
O25   O     O_R   0.666920 0.007430 0.955290 -0.516521
O26   O     O_R   0.694410 0.812480 0.959650 -0.500709

loop_
_geom_bond_atom_site_label_1
_geom_bond_atom_site_label_2
_ccdc_geom_bond_type
C8    H44   S    
C44   C48   S    
Cr4   O5    S    
C83   H15   S    
C93   C94   A    
C62   H12   S    
Cr5   O7    S    
C68   H67   S    
C49   H48   S    
C73   C74   A    
C95   C96   A    
C111  H24   S    
C45   O5    A    
Cr3   O21   S    
C4    H40   S    
C72   C76   A    
C107  H21   S    
C121  H55   S    
C81   C82   A    
C42   O7    A    
C95   C98   A    
C86   H7    S    
C29   H73   S    
C124  H38   S    
C91   O20   A    
C85   C86   A    
C59   H56   S    
C88   H53   S    
C20   C99   A    
C109  C119  S    
C26   C27   A    
C9    C127  A    
C20   H50   S    
C46   C115  A    
C23   H64   S    
C3    C131  A    
C103  O21   A    
Cr4   O11   S    
C36   C37   S    
C85   H8    S    
C37   H85   S    
C18   C19   A    
C51   H59   S    
C109  C111  A    
C110  C121  A    
C80   C81   A    
C33   H75   S    
C78   C80   A    
C55   H49   S    
C18   H57   S    
C38   C79   S    
C94   C98   A    
C15   C16   A    
C39   C57   S    
C64   H34   S    
C23   H62   S    
C110  H54   S    
C82   C92   S    
C108  C109  A    
C2    H58   S    
C54   O14   A    
C21   H68   S    
C66   C77   A    
C2    C13   A    
C50   H13   S    
C118  C119  A    
N1    N2    A    
C90   H11   S    
C67   O16   A    
C42   O6    A    
C107  C113  A    
C47   N1    A    
C26   H70   S    
C77   C88   A    
C130  H35   S    
C68   C69   A    
C40   C56   S    
C15   H46   S    
C107  C108  A    
C118  H19   S    
C127  H1    S    
C84   H5    S    
C79   O19   A    
C116  C120  A    
C36   H87   S    
C34   C36   S    
C32   H80   S    
C24   C66   S    
C47   C53   S    
C31   H81   S    
Cr6   O10   S    
C65   C68   A    
C5    C129  A    
C105  H29   S    
C115  C127  A    
C59   C60   A    
C63   H45   S    
C72   H89   S    
C21   C22   S    
C96   C97   A    
C79   O18   A    
C129  H36   S    
N3    N4    A    
Cr3   O20   S    
C91   C120  S    
C20   C55   A    
Cr1   O1    S    
C104  C105  A    
C25   C26   A    
C85   C92   A    
Cr1   O18   S    
C14   C45   S    
C31   H82   S    
C7    C12   A    
C74   C75   A    
C22   H65   S    
C51   C52   A    
C38   C121  A    
C101  C102  A    
C123  C124  A    
C34   H88   S    
C24   C110  A    
C43   C100  S    
C25   C46   S    
C12   C103  S    
C16   H51   S    
C117  C120  A    
Cr2   O22   S    
C6    C11   A    
Cr1   O17   S    
C33   H76   S    
C86   C87   A    
C61   H2    S    
C87   C97   S    
C108  H20   S    
C39   O24   A    
C57   C62   A    
C28   H72   S    
C31   C93   S    
C45   O10   A    
C41   O23   A    
C50   C56   A    
Cr4   O6    S    
C13   C24   A    
C21   C69   S    
C60   C61   A    
C95   H16   S    
C21   H69   S    
C102  H22   S    
C29   C30   A    
C1    O13   A    
Cr6   O11   S    
C2    C38   A    
C114  H27   S    
C83   C84   A    
C63   C70   A    
C60   C70   S    
C8    C12   A    
C13   H47   S    
C54   C115  S    
C52   H60   S    
C71   H78   S    
C17   C18   A    
C7    H42   S    
C81   H9    S    
C102  C104  A    
C35   C44   A    
C17   C99   S    
C36   H86   S    
C43   O8    A    
Cr1   O22   S    
C48   N2    A    
C22   H66   S    
C91   O12   A    
C67   O1    A    
C80   H4    S    
C87   C89   A    
C125  C126  A    
C1    O4    A    
C73   C76   A    
C116  H28   S    
C58   C59   A    
C123  H31   S    
Cr6   O2    S    
C3    C4    A    
C28   C29   A    
C93   C97   A    
Cr3   O16   S    
C41   C78   S    
C55   C66   A    
C52   C53   A    
C42   C122  S    
C129  C130  A    
C25   C30   A    
C89   H10   S    
C112  H26   S    
C58   H61   S    
C9    C44   A    
C126  C128  A    
C111  C112  A    
C22   C23   S    
C35   H37   S    
C14   C19   A    
Cr5   O25   S    
C31   C32   S    
C27   H71   S    
C51   C56   A    
Cr3   O22   S    
C40   O2    A    
C19   C34   S    
C11   C131  S    
C1    C98   S    
C61   C62   A    
C114  C116  A    
C33   H77   S    
C6    C7    A    
C39   O25   A    
C73   H3    S    
Cr5   O11   S    
C10   H33   S    
C105  C106  A    
C100  C106  A    
C103  O17   A    
C65   C75   S    
C74   H23   S    
C77   H52   S    
C32   C33   S    
Cr6   O9    S    
C49   C50   A    
C34   H90   S    
C94   H14   S    
Cr6   O3    S    
C48   N3    A    
C71   C72   A    
Cr2   O13   S    
C117  C118  A    
C64   C65   A    
C96   H6    S    
C71   C75   A    
C57   C58   A    
C16   C17   A    
C114  C119  A    
C101  H17   S    
C117  H30   S    
C30   H74   S    
C49   C53   A    
C4    C5    A    
C23   H63   S    
C104  C113  S    
C90   C92   A    
C106  H18   S    
C130  C131  A    
C112  C113  A    
C54   O15   A    
Cr4   O23   S    
C122  C128  A    
C9    H25   S    
Cr1   O4    S    
C69   C70   A    
C88   C99   A    
C43   O9    A    
C10   C11   A    
C37   H84   S    
C63   C64   A    
C32   H79   S    
C78   C84   A    
C3    H39   S    
C128  H32   S    
C47   N4    A    
C126  H43   S    
C8    C10   A    
C82   C83   A    
C41   O3    A    
Cr5   O8    S    
C5    C125  S    
Cr5   O26   S    
C122  C123  A    
C14   C15   A    
C40   O26   A    
C100  C101  A    
C67   C76   S    
C37   H83   S    
Cr4   O24   S    
C89   C90   A    
C35   C46   A    
Cr2   O19   S    
Cr3   O15   S    
Cr2   O12   S    
C6    H41   S    
Cr2   O14   S    
C124  C125  A    
C27   C28   A    
