data_mof_unit_67040.cif
_audit_creation_date              2013-03-05T15:58:15-0500
_audit_creation_method            fapswitch 2.2
_symmetry_space_group_name_H-M    P1
_symmetry_Int_Tables_number       1
_space_group_crystal_system       triclinic
_cell_length_a                    8.266531
_cell_length_b                    12.735262
_cell_length_c                    14.229652
_cell_angle_alpha                 93.279695
_cell_angle_beta                  89.939075
_cell_angle_gamma                 99.192417
_cell_volume                      1476.33665266

loop_
_atom_site_label
_atom_site_type_symbol
_atom_site_description
_atom_site_fract_x
_atom_site_fract_y
_atom_site_fract_z
_atom_type_partial_charge
P1    P     P_3+3 0.054400 0.427280 0.286870 0.485803
O1    O     O_2   0.887370 0.460630 0.272300 -0.364481
O2    O     O_3   0.129410 0.451380 0.388510 -0.374897
O3    O     O_3   0.670210 0.653170 0.329170 -0.342903
O4    O     O_2   0.794141 0.589072 0.165579 -0.398732
O5    O     O_3   0.006720 0.288910 0.265750 -0.559051
O6    O     O_3   0.715259 0.777806 0.169316 -0.523715
H1    H     H_    0.734382 0.879060 0.288527 0.131345
C1    C     C_3   0.612629 0.942513 0.175539 -1.055306
H2    H     H_    0.556717 0.998969 0.222746 0.250325
H3    H     H_    0.728416 0.984361 0.146406 0.280480
P2    P     P_3+3 0.668300 0.742890 0.573060 0.486275
P3    P     P_3+3 0.137207 0.843258 0.376379 0.473510
O7    O     O_2   0.845380 0.761330 0.544970 -0.382369
O8    O     O_3   0.088930 0.704860 0.376040 -0.342310
O9    O     O_2   0.008270 0.889777 0.437699 -0.378518
O10   O     O_3   0.678089 0.764222 0.695757 -0.577906
O11   O     O_3   0.106754 0.884251 0.263240 -0.529447
C2    C     C_3   0.142612 0.805267 0.196942 0.476896
H4    H     H_    0.051919 0.731415 0.201155 0.149854
H5    H     H_    0.267496 0.786661 0.208130 0.020661
C3    C     C_3   0.133670 0.844752 0.098486 -0.971048
H6    H     H_    0.008442 0.861265 0.084010 0.292128
H7    H     H_    0.222810 0.919036 0.092023 0.257396
C4    C     C_3   0.219259 0.762106 0.654242 0.404574
H8    H     H_    0.336377 0.741228 0.627920 0.101845
H9    H     H_    0.122907 0.740464 0.599359 0.153054
C5    C     C_3   0.238153 0.881520 0.675986 -0.956721
H10   H     H_    0.341140 0.906615 0.726062 0.258005
H11   H     H_    0.263869 0.924503 0.610928 0.242037
H12   H     H_    0.123617 0.902568 0.707404 0.276467
Ba1   Ba    Ba6+2 0.855630 0.555280 0.454520 1.585346
C6    C     C_3   0.969414 0.240262 0.350554 0.392270
H13   H     H_    0.862586 0.269296 0.383472 0.098868
H14   H     H_    0.074473 0.256766 0.400075 0.140752
C7    C     C_3   0.930656 0.120528 0.329913 -0.928070
H15   H     H_    0.818494 0.101159 0.285793 0.264206
H16   H     H_    0.910326 0.079099 0.396178 0.241324
H17   H     H_    0.034360 0.091838 0.292146 0.283139
C8    C     C_3   0.717196 0.674094 0.736715 0.429170
H18   H     H_    0.835546 0.655754 0.709468 0.087029
H19   H     H_    0.619349 0.604404 0.722543 0.125068
C9    C     C_3   0.732196 0.697791 0.842710 -0.992807
H20   H     H_    0.835213 0.763727 0.859063 0.268066
H21   H     H_    0.755185 0.626435 0.878315 0.226628
H22   H     H_    0.616797 0.721400 0.870458 0.261416
P4    P     P_3+3 0.135310 0.572810 0.713130 0.466815
O12   O     O_2   0.302330 0.539400 0.727760 -0.360918
O13   O     O_3   0.060300 0.548700 0.611500 -0.403411
O14   O     O_3   0.519500 0.346920 0.670840 -0.382501
O15   O     O_3   0.177480 0.710851 0.737271 -0.577020
P5    P     P_3+3 0.057646 0.156585 0.627120 0.466275
O16   O     O_3   0.614310 0.373510 0.452640 -0.368482
O17   O     O_3   0.100780 0.295230 0.623970 -0.352743
O18   O     O_2   0.178594 0.111515 0.559245 -0.378528
O19   O     O_3   0.116365 0.122451 0.737854 -0.483637
Ba2   Ba    Ba6+2 0.334200 0.444810 0.545490 1.577265
P6    P     P_3+3 0.657973 0.648260 0.205556 0.470914
C10   C     C_3   0.646445 0.849264 0.230329 0.468149
H23   H     H_    0.528640 0.813313 0.261259 0.042468
H24   H     H_    0.526266 0.913379 0.116555 0.267592
O20   O     O_3   0.575400 0.626570 0.547370 -0.343893
C11   C     C_3   0.467289 0.268790 0.254667 0.283873
H25   H     H_    0.335826 0.266470 0.272319 0.114922
H26   H     H_    0.534573 0.351655 0.263487 0.106020
C12   C     C_3   0.481152 0.227238 0.152722 -0.224646
H27   H     H_    0.427917 0.141358 0.145251 0.187834
H28   H     H_    0.612160 0.236552 0.132168 0.165902
P7    P     P_3+3 0.529315 0.239504 0.430005 0.432067
O21   O     O_2   0.344320 0.238700 0.455090 -0.382707
O22   O     O_3   0.538179 0.201120 0.310402 -0.616421
H29   H     H_    0.163146 0.783213 0.045589 0.220822
C13   C     C_3   0.990082 0.135434 0.801181 0.360662
H30   H     H_    0.962750 0.218384 0.802852 0.085764
H31   H     H_    0.878865 0.077277 0.781570 0.048741
C14   C     C_3   0.042618 0.113195 0.899411 -0.836991
H32   H     H_    0.155289 0.168972 0.920696 0.317260
H33   H     H_    0.944003 0.124234 0.950352 0.208709
H34   H     H_    0.067480 0.030083 0.900561 0.243238
P8    P     P_3+3 0.532193 0.348963 0.793839 0.510004
C15   C     C_3   0.538132 0.146892 0.780926 0.525289
H35   H     H_    0.666234 0.179638 0.762362 -0.040124
O23   O     O_2   0.408343 0.417737 0.834774 -0.338329
O24   O     O_3   0.456908 0.221736 0.830043 -0.462415
H36   H     H_    0.469123 0.117502 0.715110 0.117244
H37   H     H_    0.620172 0.081480 0.906388 0.261832
C16   C     C_3   0.543753 0.053996 0.842826 -1.029494
H38   H     H_    0.597613 0.990361 0.803345 0.232247
H39   H     H_    0.418145 0.020996 0.865472 0.285104
C17   C     C_R   0.982643 0.445233 0.060957 -0.073306
C18   C     C_R   0.185558 0.491088 0.192773 0.241290
C19   C     C_R   0.347871 0.528388 0.218196 -0.409504
C20   C     C_R   0.455449 0.586221 0.158190 0.276284
C21   C     C_R   0.404752 0.600614 0.066541 -0.290814
C22   C     C_R   0.246798 0.553669 0.034181 0.089340
C23   C     C_R   0.135451 0.497119 0.097090 0.021311
H40   H     H_    0.392215 0.510559 0.285749 0.184565
C24   C     C_R   0.050844 0.505252 0.902347 0.008795
C25   C     C_R   0.939103 0.449840 0.965541 0.059173
C26   C     C_R   0.006838 0.502152 0.804594 0.265360
C27   C     C_R   0.854111 0.447827 0.774369 -0.515604
C28   C     C_R   0.739968 0.401974 0.837915 0.220662
C29   C     C_R   0.783121 0.400363 0.932785 -0.293903
C30   C     C_R   0.201833 0.559955 0.939115 -0.125838
H41   H     H_    0.489668 0.645700 0.020104 0.154218
H42   H     H_    0.694792 0.361537 0.980977 0.189909
H43   H     H_    0.819626 0.446628 0.700922 0.166481
H44   H     H_    0.897235 0.398550 0.105823 0.157982
H45   H     H_    0.287949 0.605706 0.894007 0.162319
C31   C     C_R   0.754839 0.178135 0.551562 -0.496097
C32   C     C_R   0.438313 0.813518 0.456117 -0.070604
C33   C     C_R   0.403899 0.995289 0.438324 -0.245377
C34   C     C_R   0.344991 0.887478 0.425433 0.123392
C35   C     C_R   0.577999 0.846448 0.513127 0.213122
C36   C     C_R   0.636904 0.957593 0.529378 -0.091217
C37   C     C_R   0.550067 0.032395 0.489045 -0.060426
C38   C     C_R   0.611222 0.142669 0.500274 0.306182
C39   C     C_R   0.845575 0.105879 0.587138 0.150040
C40   C     C_R   0.784250 0.996621 0.579677 -0.188760
H46   H     H_    0.330970 0.048754 0.409357 0.209446
H47   H     H_    0.857400 0.943752 0.609475 0.182293
H48   H     H_    0.804048 0.262309 0.556209 0.162709
Br1   Br    Br    0.365063 0.300715 0.066837 -0.585872
Br2   Br    Br    0.376711 0.667200 0.416525 -0.447963

loop_
_geom_bond_atom_site_label_1
_geom_bond_atom_site_label_2
_geom_bond_distance
_ccdc_geom_bond_type
C27   H43   1.082220 S    
C12   H28   1.111182 S    
C16   H38   1.110527 S    
C11   H26   1.111865 S    
C21   H41   1.082913 S    
C20   C21   1.401101 A    
C13   H30   1.113988 S    
C17   C25   1.411854 A    
C25   C29   1.408901 A    
C22   C23   1.423877 A    
C14   H34   1.111008 S    
P8    O24   1.746613 S    
O16   P7    1.750533 S    
C31   C39   1.392936 A    
C35   C36   1.427120 A    
Ba2   O20   2.802290 S    
P4    O13   1.568571 S    
C4    C5    1.517642 S    
C27   C28   1.389792 A    
O4    P6    1.542552 D    
C1    H24   1.110328 S    
C5    H10   1.105889 S    
C2    H5    1.109091 S    
P6    C20   1.843970 S    
C14   H33   1.110604 S    
O11   C2    1.405617 S    
O14   P8    1.751944 S    
P7    O21   1.568574 D    
H1    C10   1.111493 S    
C30   H45   1.080536 S    
C36   C37   1.426213 A    
C6    C7    1.518860 S    
O13   Ba2   2.927424 S    
C37   C38   1.414574 A    
O1    Ba1   2.826141 S    
P1    O1    1.525752 D    
C3    H29   1.110528 S    
P7    O22   1.748363 S    
C39   C40   1.400779 A    
C19   C20   1.386884 A    
C18   C23   1.433381 A    
C8    C9    1.522402 S    
C2    H4    1.109643 S    
P2    O10   1.751465 S    
Ba2   O21   2.869708 S    
C29   H42   1.081801 S    
C1    H2    1.109975 S    
O6    P6    1.749074 S    
P5    O18   1.542671 D    
C8    H19   1.110454 S    
C12   H27   1.110937 S    
C11   C12   1.526002 S    
C10   H23   1.109681 S    
P1    C18   1.862423 S    
P2    Ba1   3.415748 S    
C13   H31   1.109511 S    
C21   C22   1.412365 A    
Ba1   Ba2   4.615547 S    
P8    O23   1.543197 D    
C31   C38   1.392449 A    
O6    C10   1.406925 S    
C33   C34   1.383354 A    
P5    O17   1.747756 S    
C19   H40   1.078078 S    
C15   H35   1.111752 S    
P2    C35   1.862383 S    
C40   H47   1.077998 S    
C5    H12   1.111151 S    
P1    O5    1.751764 S    
O12   Ba2   2.826649 S    
C2    C3    1.521124 S    
C14   H32   1.108335 S    
C18   C19   1.390893 A    
C33   H46   1.077393 S    
O16   Ba2   2.908583 S    
H37   C16   1.110848 S    
P4    O15   1.750825 S    
C4    H8    1.103806 S    
P1    Ba1   3.383896 S    
P4    C26   1.859372 S    
P8    C28   1.839181 S    
C1    C10   1.519449 S    
O10   C8    1.398985 S    
C9    H20   1.110888 S    
C4    O15   1.398779 S    
P4    Ba2   3.384358 S    
P2    O20   1.578925 S    
P4    O12   1.526133 D    
C6    H13   1.104364 S    
O2    Ba1   2.926655 S    
C32   C34   1.397455 A    
O3    Ba1   2.820614 S    
C9    H21   1.107550 S    
C15   C16   1.521347 S    
P3    O11   1.751233 S    
C8    H18   1.106280 S    
P2    O7    1.502465 D    
C24   C26   1.434901 A    
C1    H3    1.110628 S    
C13   C14   1.519371 S    
C3    H7    1.110634 S    
O2    Ba2   2.817328 S    
Ba1   O16   2.802955 S    
C33   C37   1.408759 A    
C15   O24   1.405379 S    
C22   C30   1.413328 A    
C7    H15   1.106847 S    
O19   C13   1.401870 S    
C32   Br2   1.904280 S    
C12   Br1   1.926234 S    
O14   Ba2   2.820004 S    
C7    H17   1.110792 S    
O7    Ba1   2.869496 S    
O8    Ba1   2.767738 S    
C17   C23   1.411548 A    
C4    H9    1.107625 S    
C36   C40   1.417983 A    
O5    C6    1.399597 S    
P3    O8    1.743594 S    
C17   H44   1.080686 S    
C5    H11   1.105542 S    
C31   H48   1.082407 S    
P7    C38   1.840770 S    
C24   C30   1.413796 A    
C7    H16   1.106351 S    
C26   C27   1.394858 A    
C6    H14   1.104997 S    
C32   C35   1.405590 A    
C28   C29   1.398783 A    
C9    H22   1.110672 S    
C15   H36   1.111504 S    
Ba1   O13   2.816748 S    
Ba1   O20   2.909369 S    
C11   H25   1.111299 S    
C24   C25   1.422121 A    
P3    O9    1.545638 D    
O3    P6    1.758957 S    
C16   H39   1.110838 S    
C3    H6    1.110522 S    
P1    O2    1.568690 S    
C11   O22   1.398448 S    
P3    C34   1.844781 S    
P5    O19   1.747802 S    
O17   Ba2   2.768320 S    
P5    C39   1.847267 S    
