data_mof_unit_61090.cif
_audit_creation_date              2013-03-05T15:54:32-0500
_audit_creation_method            fapswitch 2.2
_symmetry_space_group_name_H-M    P1
_symmetry_Int_Tables_number       1
_space_group_crystal_system       triclinic
_cell_length_a                    18.70493
_cell_length_b                    18.813318
_cell_length_c                    18.87276
_cell_angle_alpha                 109.2762
_cell_angle_beta                  109.464376
_cell_angle_gamma                 109.31815
_cell_volume                      5134.78111983

loop_
_atom_site_label
_atom_site_type_symbol
_atom_site_description
_atom_site_fract_x
_atom_site_fract_y
_atom_site_fract_z
_atom_type_partial_charge
O1    O     O_R   0.537990 0.090490 0.948120 -0.588359
O2    O     O_R   0.642370 0.089850 0.051860 -0.581138
C1    C     C_R   0.619015 0.118991 0.000126 0.779060
O3    O     O_R   0.447800 0.089920 0.037730 -0.586178
O4    O     O_R   0.552180 0.089280 0.141460 -0.578360
C2    C     C_R   0.497787 0.116387 0.117877 0.845248
Cu1   Cu    Cu3+1 0.438200 0.000380 0.938580 0.964178
Cu2   Cu    Cu3+1 0.561800 0.999620 0.061420 0.957743
O5    O     O_R   0.357630 0.910150 0.948140 -0.581731
O6    O     O_R   0.462010 0.909510 0.051880 -0.591991
O7    O     O_R   0.447820 0.910720 0.858540 -0.582322
O8    O     O_R   0.552200 0.910080 0.962270 -0.587402
C3    C     C_R   0.380959 0.880814 0.999700 0.804355
C4    C     C_R   0.500088 0.881807 0.881937 0.779177
C5    C     C_2   0.494267 0.245001 0.319418 -0.150348
C6    C     C_2   0.508923 0.321551 0.324059 -0.310698
H1    H     H_    0.477846 0.228846 0.364156 0.160437
H2    H     H_    0.534671 0.341867 0.286109 0.156228
C7    C     C_2   0.506576 0.183930 0.258372 -0.148885
C8    C     C_2   0.491037 0.178996 0.181783 -0.310979
H3    H     H_    0.523762 0.139430 0.274616 0.161473
H4    H     H_    0.464580 0.216707 0.161513 0.153734
C9    C     C_R   0.758773 0.179469 0.001581 -0.173762
H5    H     H_    0.765567 0.124564 0.001929 0.141733
C10   C     C_R   0.822097 0.242874 0.000134 -0.170118
H6    H     H_    0.877681 0.236810 0.000005 0.142026
C11   C     C_R   0.814371 0.314556 0.000632 -0.007749
C12   C     C_R   0.742515 0.322039 0.001204 -0.176285
H7    H     H_    0.735925 0.377137 0.001230 0.139212
C13   C     C_R   0.677666 0.257118 0.999614 -0.171646
H8    H     H_    0.621769 0.262871 0.999113 0.139667
C14   C     C_R   0.686079 0.186113 0.000492 -0.010195
C15   C     C_R   0.501122 0.744146 0.823470 -0.168506
H9    H     H_    0.501662 0.737978 0.878708 0.142323
C16   C     C_R   0.499311 0.679519 0.758823 -0.171003
H10   H     H_    0.499265 0.624216 0.764902 0.141179
C17   C     C_R   0.499609 0.687533 0.687746 -0.009898
C18   C     C_R   0.500187 0.759435 0.680610 -0.174335
H11   H     H_    0.500121 0.765866 0.625615 0.140481
C19   C     C_R   0.498997 0.822550 0.743756 -0.172655
H12   H     H_    0.498588 0.877611 0.737408 0.141086
C20   C     C_R   0.500230 0.815327 0.815590 -0.009763
C21   C     C_R   0.325989 0.811772 0.075316 -0.166055
H13   H     H_    0.385703 0.860273 0.135934 0.152017
C22   C     C_R   0.260392 0.748672 0.074489 -0.232026
H14   H     H_    0.270635 0.748319 0.134354 0.153339
C23   C     C_R   0.182795 0.685386 0.996777 -0.129148
C24   C     C_R   0.169907 0.685813 0.918761 0.337381
C25   C     C_R   0.236050 0.750413 0.920823 -0.229097
H15   H     H_    0.226812 0.752163 0.861724 0.184847
C26   C     C_R   0.313627 0.813176 0.998650 -0.078128
O9    O     O_R   0.538000 0.450530 0.592770 -0.592036
O10   O     O_R   0.642390 0.554900 0.592760 -0.576156
C27   C     C_R   0.619007 0.502612 0.621340 0.778796
O11   O     O_R   0.447840 0.361480 0.413570 -0.580911
O12   O     O_R   0.552220 0.465860 0.413560 -0.582344
C28   C     C_R   0.502204 0.385424 0.386721 0.841696
Cu3   Cu    Cu3+1 0.438220 0.441470 0.503160 0.960450
Cu4   Cu    Cu3+1 0.561830 0.565070 0.503150 0.962941
O13   O     O_R   0.357660 0.451630 0.413550 -0.579902
O14   O     O_R   0.462040 0.556010 0.413540 -0.586187
O15   O     O_R   0.447820 0.540680 0.592750 -0.582454
O16   O     O_R   0.552200 0.645050 0.592740 -0.586339
C29   C     C_R   0.381248 0.502832 0.384069 0.794903
C30   C     C_R   0.499871 0.621284 0.621304 0.775073
O17   O     O_R   0.909730 0.448730 0.858460 -0.555185
O18   O     O_R   0.909750 0.552440 0.962210 -0.599969
C31   C     C_R   0.880623 0.500549 0.881858 0.830321
O19   O     O_R   0.909720 0.357980 0.948050 -0.591290
O20   O     O_R   0.909750 0.461690 0.051790 -0.586940
C32   C     C_R   0.881029 0.381200 0.000132 0.768840
Cu5   Cu    Cu3+1 0.999900 0.438590 0.938490 0.997807
Cu6   Cu    Cu3+1 0.999930 0.561410 0.061340 0.960375
O21   O     O_R   0.090070 0.447560 0.037620 -0.594428
O22   O     O_R   0.090100 0.551270 0.141360 -0.590792
O23   O     O_R   0.090070 0.538310 0.948030 -0.555500
O24   O     O_R   0.090100 0.642020 0.051770 -0.588321
C33   C     C_R   0.118742 0.498899 0.118166 0.784802
C34   C     C_R   0.117731 0.618708 0.998735 0.859450
C35   C     C_R   0.757417 0.580707 0.759028 -0.173178
H16   H     H_    0.763440 0.642056 0.765285 0.142215
C36   C     C_R   0.820478 0.580174 0.823621 -0.115397
H17   H     H_    0.875226 0.641138 0.878940 0.151162
C37   C     C_R   0.813739 0.501185 0.815552 0.003599
C38   C     C_R   0.743076 0.422737 0.743528 -0.177948
H18   H     H_    0.737296 0.361372 0.736966 0.138888
C39   C     C_R   0.678468 0.423232 0.680452 -0.165449
H19   H     H_    0.623509 0.362254 0.625337 0.138264
C40   C     C_R   0.685963 0.502217 0.687779 -0.011453
C41   C     C_R   0.306695 0.471361 0.232024 0.175509
C42   C     C_R   0.241212 0.470011 0.167309 -0.166463
H20   H     H_    0.234559 0.448374 0.103493 0.151276
C43   C     C_R   0.185374 0.498085 0.185110 -0.067328
C44   C     C_R   0.193791 0.526125 0.267528 -0.168897
H21   H     H_    0.150660 0.547307 0.282099 0.161677
C45   C     C_R   0.257507 0.526240 0.331757 -0.226149
H22   H     H_    0.263293 0.547930 0.395230 0.144408
C46   C     C_R   0.314471 0.500077 0.314760 -0.008117
N1    N     N_R   0.089888 0.623676 0.838226 0.122540
O25   O     O_R   0.015156 0.599544 0.836047 -0.382310
O26   O     O_R   0.090634 0.600292 0.765544 -0.349108
C47   C     C_3   0.366055 0.440683 0.211756 -0.872144
H23   H     H_    0.348335 0.417128 0.142815 0.228407
H24   H     H_    0.434545 0.494717 0.252189 0.247205
H25   H     H_    0.361420 0.386568 0.225123 0.223922

loop_
_geom_bond_atom_site_label_1
_geom_bond_atom_site_label_2
_geom_bond_distance
_ccdc_geom_bond_type
Cu3   O15   1.966487 S    
O17   C31   1.291890 A    
C39   H19   1.083532 S    
O16   C30   1.292222 A    
C43   C44   1.400943 A    
O14   C29   1.290789 A    
C7    C8    1.340133 D    
O23   C34   1.291452 A    
C23   C34   1.451422 S    
Cu5   O23   1.969216 S    
O10   Cu4   1.968099 S    
Cu1   Cu2   2.681722 S    
C22   H14   1.083871 S    
C5    C7    1.475886 S    
C15   C20   1.400115 A    
C12   H7    1.083481 S    
C16   C17   1.400044 A    
O4    C2    1.297946 A    
O7    C4    1.292063 A    
C33   C43   1.458031 S    
Cu3   O13   1.967980 S    
C5    C6    1.340298 D    
O12   C28   1.289655 A    
C47   H25   1.110590 S    
C5    H1    1.086320 S    
C22   C23   1.400115 A    
C35   C40   1.400169 A    
O19   C32   1.291564 A    
O5    C3    1.293389 A    
C41   C47   1.507813 S    
C3    C26   1.453339 S    
O17   Cu5   1.966659 S    
C23   C24   1.413713 A    
C25   C26   1.399322 A    
C17   C30   1.449848 S    
C9    H5    1.083483 S    
O20   C32   1.292342 A    
O18   Cu6   1.968243 S    
C13   C14   1.400522 A    
C44   C45   1.386914 A    
C29   C46   1.448247 S    
Cu6   O22   1.966563 S    
C47   H23   1.110772 S    
O3    Cu1   1.966258 S    
O9    C27   1.292716 A    
O24   C34   1.290812 A    
C18   H11   1.083535 S    
Cu4   O14   1.966889 S    
C38   C39   1.390565 A    
O18   C31   1.292119 A    
C31   C37   1.451791 S    
C37   C38   1.400121 A    
C27   C40   1.451392 S    
Cu5   O21   1.968150 S    
C42   H20   1.083801 S    
Cu5   Cu6   2.678767 S    
C10   H6    1.083498 S    
C38   H18   1.083490 S    
C45   C46   1.396791 A    
O1    C1    1.292786 A    
C16   H10   1.083491 S    
O19   Cu5   1.966912 S    
Cu1   O7    1.964474 S    
C21   H13   1.083431 S    
C17   C18   1.399870 A    
C42   C43   1.401550 A    
C19   C20   1.399943 A    
N1    O25   1.300498 A    
Cu2   O8    1.966259 S    
C45   H22   1.083910 S    
O20   Cu6   1.969215 S    
C15   H9    1.083488 S    
C1    C14   1.452142 S    
C47   H24   1.109778 S    
C21   C22   1.387909 A    
O9    Cu3   1.966771 S    
C35   C36   1.391084 A    
C19   H12   1.083523 S    
N1    O26   1.301432 A    
C8    H4    1.086252 S    
C36   H17   1.083475 S    
C36   C37   1.400446 A    
O11   C28   1.297982 A    
O3    C2    1.289287 A    
C11   C32   1.451903 S    
Cu1   O5    1.968801 S    
C24   N1    1.438791 S    
C24   C25   1.396807 A    
O15   C30   1.293000 A    
C7    H3    1.086303 S    
O1    Cu1   1.967565 S    
Cu2   O6    1.967566 S    
O2    Cu2   1.968799 S    
O8    C4    1.292781 A    
C35   H16   1.083471 S    
O6    C3    1.293111 A    
O4    Cu2   1.964474 S    
O10   C27   1.293376 A    
C10   C11   1.400405 A    
C2    C8    1.456000 S    
Cu4   O16   1.964158 S    
O12   Cu4   1.966392 S    
C4    C20   1.450028 S    
O13   C29   1.291667 A    
C9    C14   1.400157 A    
C39   C40   1.400154 A    
O2    C1    1.293173 A    
Cu3   Cu4   2.682615 S    
C18   C19   1.389805 A    
C21   C26   1.397858 A    
C41   C42   1.398065 A    
C13   H8    1.083474 S    
C12   C13   1.391168 A    
C15   C16   1.390614 A    
C6    C28   1.455691 S    
C9    C10   1.390991 A    
C44   H21   1.083272 S    
O22   C33   1.292345 A    
C6    H2    1.086203 S    
C25   H15   1.083762 S    
O21   C33   1.294547 A    
O11   Cu3   1.964135 S    
C11   C12   1.400100 A    
Cu6   O24   1.966914 S    
C41   C46   1.410973 A    
