data_mof_unit_52594.cif
_audit_creation_date              2012-12-11T16:22:25-0500
_audit_creation_method            fapswitch 2.2
_symmetry_space_group_name_H-M    P1
_symmetry_Int_Tables_number       1
_space_group_crystal_system       triclinic
_cell_length_a                    19.617193
_cell_length_b                    6.928594
_cell_length_c                    17.791681
_cell_angle_alpha                 90.009083
_cell_angle_beta                  108.124254
_cell_angle_gamma                 89.988044
_cell_volume                      2298.25454167

loop_
_atom_site_label
_atom_site_type_symbol
_atom_type_description
_atom_site_fract_x
_atom_site_fract_y
_atom_site_fract_z
_atom_type_partial_charge
O1    O     O_R   0.561700 0.369960 0.440190 -0.540593
O2    O     O_R   0.061700 0.630040 0.940190 -0.540992
O3    O     O_R   0.413790 0.033680 0.407460 -0.538629
O4    O     O_R   0.913790 0.966320 0.907460 -0.538751
O5    O     O_R   0.438300 0.869760 0.559810 -0.539957
O6    O     O_R   0.938300 0.130240 0.059810 -0.540005
C1    C     C_R   0.386654 0.203842 0.384782 0.744881
C2    C     C_R   0.886660 0.796163 0.884774 0.743906
O7    O     O_R   0.559630 0.039830 0.430710 -0.544675
O8    O     O_R   0.059630 0.960170 0.930710 -0.543999
O9    O     O_R   0.585190 0.875950 0.583220 -0.537151
O10   O     O_R   0.085190 0.124050 0.083220 -0.537083
C3    C     C_R   0.581043 0.208943 0.415431 0.710756
C4    C     C_R   0.081030 0.791011 0.915420 0.711050
O11   O     O_R   0.414810 0.363770 0.416780 -0.542503
O12   O     O_R   0.914810 0.636230 0.916780 -0.542695
O13   O     O_3   0.508210 0.205480 0.550010 -0.371272
O14   O     O_3   0.008210 0.794520 0.050010 -0.371141
V1    V     V_3+5 0.498480 0.928140 0.490720 1.401141
V2    V     V_3+5 0.998480 0.071860 0.990720 1.401402
O15   O     O_R   0.586210 0.546600 0.592540 -0.544814
O16   O     O_R   0.086210 0.453400 0.092540 -0.544682
C5    C     C_R   0.613519 0.715989 0.615418 0.744655
C6    C     C_R   0.113511 0.284001 0.115429 0.745107
O17   O     O_R   0.440370 0.540460 0.569290 -0.542622
O18   O     O_R   0.940370 0.459540 0.069290 -0.542476
C7    C     C_R   0.419166 0.709287 0.584709 0.691556
C8    C     C_R   0.919126 0.290767 0.084664 0.690947
V3    V     V_3+5 0.501520 0.428910 0.509280 1.398696
V4    V     V_3+5 0.001520 0.571090 0.009280 1.398664
O19   O     O_3   0.491790 0.701440 0.449990 -0.370765
O20   O     O_3   0.991790 0.298560 0.949990 -0.370794
C9    C     C_R   0.323392 0.898920 0.725307 -0.097942
C10   C     C_R   0.822835 0.101508 0.224787 -0.104680
H1    H     H_    0.325681 0.026775 0.760934 0.147440
H2    H     H_    0.825175 0.973957 0.260581 0.146374
C11   C     C_R   0.369404 0.886874 0.679059 -0.195254
C12   C     C_R   0.869162 0.113602 0.178907 -0.189684
H3    H     H_    0.404688 0.007170 0.679155 0.126502
H4    H     H_    0.904684 0.993576 0.179380 0.126183
C13   C     C_R   0.370890 0.720345 0.634440 -0.046033
C14   C     C_R   0.870649 0.279854 0.134167 -0.046614
C15   C     C_R   0.325125 0.566225 0.637001 -0.163330
C16   C     C_R   0.824572 0.433662 0.136245 -0.165413
H5    H     H_    0.324753 0.436261 0.603020 0.118984
H6    H     H_    0.824202 0.563392 0.102149 0.118837
C17   C     C_R   0.277755 0.580336 0.681648 -0.170819
C18   C     C_R   0.776883 0.419483 0.180523 -0.162360
H7    H     H_    0.241839 0.461160 0.680371 0.137798
H8    H     H_    0.740752 0.538407 0.178904 0.135446
C19   C     C_R   0.275833 0.747342 0.726143 0.100019
C20   C     C_R   0.774991 0.252782 0.225171 0.099649
C21   C     C_R   0.212461 0.599153 0.814956 -0.213453
C22   C     C_R   0.711200 0.401820 0.313517 -0.212005
H9    H     H_    0.240420 0.464929 0.813907 0.163397
H10   H     H_    0.738464 0.536728 0.311687 0.167628
C23   C     C_R   0.165279 0.607955 0.859834 -0.164479
C24   C     C_R   0.664280 0.392778 0.358696 -0.165528
H11   H     H_    0.157756 0.479691 0.891136 0.137244
H12   H     H_    0.656173 0.521639 0.389322 0.138161
C25   C     C_R   0.129690 0.780625 0.865785 -0.105650
C26   C     C_R   0.629649 0.219237 0.365734 -0.113122
C27   C     C_R   0.141570 0.943422 0.824428 -0.251663
C28   C     C_R   0.642312 0.055631 0.325268 -0.226770
H13   H     H_    0.114976 0.078626 0.827949 0.134166
H14   H     H_    0.616430 0.919853 0.329573 0.133437
C29   C     C_R   0.186981 0.934109 0.776817 0.432366
C30   C     C_R   0.687334 0.065108 0.277472 0.428786
C31   C     C_R   0.224725 0.761601 0.773402 -0.000619
C32   C     C_R   0.723978 0.238836 0.272575 -0.019158
C33   C     C_2   0.712869 0.897102 0.710487 -0.123492
C34   C     C_2   0.212822 0.102871 0.210570 -0.122992
C35   C     C_2   0.680401 0.726833 0.683382 -0.316012
C36   C     C_2   0.180380 0.273151 0.183412 -0.315385
H15   H     H_    0.688788 0.030098 0.682056 0.138355
H16   H     H_    0.188722 0.969859 0.182178 0.138448
H17   H     H_    0.702313 0.591426 0.710735 0.125481
H18   H     H_    0.202303 0.408571 0.210738 0.125754
C37   C     C_2   0.780261 0.921149 0.778154 -0.143109
C38   C     C_2   0.280210 0.078847 0.278242 -0.141857
C39   C     C_2   0.820289 0.773709 0.817208 -0.310100
C40   C     C_2   0.320278 0.226294 0.317222 -0.308608
H19   H     H_    0.797366 0.067946 0.795742 0.133086
H20   H     H_    0.297287 0.932056 0.295889 0.133254
H21   H     H_    0.804325 0.626470 0.800065 0.132318
H22   H     H_    0.304342 0.373527 0.300026 0.132395
O21   O     O_3   0.197017 0.097689 0.736950 -0.595158
C41   C     C_3   0.136302 0.131430 0.670148 0.035341
H23   H     H_    0.125051 0.288891 0.667377 0.144285
H24   H     H_    0.086236 0.058306 0.672432 0.110288
C42   C     C_3   0.152954 0.070952 0.594988 -0.297118
H25   H     H_    0.203195 0.142299 0.593248 0.200786
H26   H     H_    0.161027 0.912155 0.595494 0.196813
C43   C     C_3   0.092167 0.125930 0.520883 -0.837621
H27   H     H_    0.041525 0.054246 0.520866 0.232132
H28   H     H_    0.105728 0.078856 0.467590 0.233519
H29   H     H_    0.084249 0.284879 0.518050 0.231158
O22   O     O_3   0.696510 0.900883 0.237571 -0.596365
C44   C     C_3   0.648772 0.903772 0.159325 0.049848
H30   H     H_    0.679082 0.854769 0.119451 0.141974
H31   H     H_    0.627215 0.050052 0.137939 0.112500
C45   C     C_3   0.586831 0.763429 0.152186 -0.312186
H32   H     H_    0.608637 0.618315 0.173360 0.204541
H33   H     H_    0.554551 0.814411 0.189689 0.188796
C46   C     C_3   0.538206 0.747081 0.066835 -0.831034
H34   H     H_    0.514924 0.890135 0.044708 0.232843
H35   H     H_    0.493752 0.645156 0.063772 0.232948
H36   H     H_    0.568951 0.691866 0.028401 0.229173

loop_
_geom_bond_atom_site_label_1
_geom_bond_atom_site_label_2
_ccdc_geom_bond_type
C24   C26   A    
C12   H4    S    
O21   C41   S    
C27   H13   S    
O13   V3    S    
C34   H16   S    
V1    O19   S    
C33   C37   S    
C17   H7    S    
C46   H35   S    
O9    V1    S    
C28   C30   A    
C12   C14   A    
O3    C1    A    
C22   C24   A    
C23   H11   S    
C24   H12   S    
C45   C46   S    
O9    C5    A    
C25   C27   A    
O7    C3    A    
C26   C28   A    
C10   C20   A    
O13   V1    S    
O5    C7    A    
O7    V1    S    
O6    C8    A    
C3    C26   S    
O8    V2    S    
C37   H19   S    
O3    V1    S    
O14   V4    S    
C10   H2    S    
O4    C2    A    
C18   H8    S    
C21   C31   A    
C2    O12   A    
C13   C15   A    
C43   H27   S    
C14   C16   A    
C5    C35   S    
C16   H6    S    
O11   V3    S    
C22   H10   S    
C21   H9    S    
O17   V3    S    
C46   H36   S    
C27   C29   A    
C33   H15   S    
C38   H20   S    
C34   C36   D    
O8    C4    A    
C42   H25   S    
C37   C39   D    
C21   C23   A    
C17   C19   A    
C1    O11   A    
C43   H29   S    
C40   H22   S    
C4    C25   S    
O15   V3    S    
C9    C11   A    
C9    C19   A    
C2    C39   S    
C29   C31   A    
C28   H14   S    
C43   H28   S    
C42   H26   S    
C7    C13   S    
C44   H30   S    
C22   C32   A    
C41   C42   S    
V3    O19   S    
O10   V2    S    
O1    V3    S    
C45   H33   S    
C15   H5    S    
C38   C40   D    
C44   H31   S    
C41   H24   S    
O18   V4    S    
O15   C5    A    
O16   C6    A    
O1    C3    A    
C1    C40   S    
O12   V4    S    
C33   C35   D    
V2    O20   S    
O16   V4    S    
C10   C12   A    
O18   C8    A    
C23   C25   A    
O5    V1    S    
O17   C7    A    
O6    V2    S    
C46   H34   S    
O10   C6    A    
C29   O21   S    
O2    V4    S    
C11   H3    S    
C42   C43   S    
V4    O20   S    
C6    C36   S    
C8    C14   S    
C9    H1    S    
O14   V2    S    
C11   C13   A    
C45   H32   S    
O2    C4    A    
C30   O22   S    
C20   C32   S    
O4    V2    S    
C18   C20   A    
C44   C45   S    
C41   H23   S    
C34   C38   S    
O22   C44   S    
C36   H18   S    
C30   C32   A    
C35   H17   S    
C19   C31   S    
C15   C17   A    
C39   H21   S    
C16   C18   A    
