data_mof_unit_67019.cif
_audit_creation_date              2013-03-05T15:58:14-0500
_audit_creation_method            fapswitch 2.2
_symmetry_space_group_name_H-M    P1
_symmetry_Int_Tables_number       1
_space_group_crystal_system       triclinic
_cell_length_a                    8.320163
_cell_length_b                    12.765349
_cell_length_c                    14.380676
_cell_angle_alpha                 93.579855
_cell_angle_beta                  90.877428
_cell_angle_gamma                 98.085064
_cell_volume                      1508.7875631

loop_
_atom_site_label
_atom_site_type_symbol
_atom_site_description
_atom_site_fract_x
_atom_site_fract_y
_atom_site_fract_z
_atom_type_partial_charge
P1    P     P_3+3 0.054400 0.427280 0.286870 0.475683
O1    O     O_2   0.887370 0.460630 0.272300 -0.372395
O2    O     O_3   0.129410 0.451380 0.388510 -0.402175
O3    O     O_3   0.670210 0.653170 0.329170 -0.386601
O4    O     O_2   0.790113 0.587827 0.166236 -0.392645
O5    O     O_3   0.009877 0.290391 0.261463 -0.553956
O6    O     O_3   0.687969 0.770487 0.165215 -0.521453
H1    H     H_    0.741772 0.835965 0.301497 0.053161
C1    C     C_3   0.753606 0.954638 0.203865 -0.800912
H2    H     H_    0.741465 0.020252 0.256778 0.218150
H3    H     H_    0.881925 0.948762 0.195456 0.248970
P2    P     P_3+3 0.668300 0.742890 0.573060 0.516202
P3    P     P_3+3 0.129980 0.842784 0.384221 0.504850
O7    O     O_2   0.845380 0.761330 0.544970 -0.398414
O8    O     O_3   0.088930 0.704860 0.376040 -0.369237
O9    O     O_2   0.985827 0.886434 0.432106 -0.429853
O10   O     O_3   0.691991 0.765270 0.693233 -0.530749
O11   O     O_3   0.131184 0.890727 0.271971 -0.516276
C2    C     C_3   0.101677 0.807613 0.201474 0.207956
H4    H     H_    0.970116 0.784284 0.192832 0.129583
H5    H     H_    0.151000 0.734473 0.218043 0.092665
C3    C     C_3   0.174655 0.842609 0.107825 0.598910
C4    C     C_3   0.211464 0.768986 0.671410 0.915129
H6    H     H_    0.177826 0.728595 0.601790 0.069556
C5    C     C_3   0.129381 0.868241 0.677866 -0.902417
H7    H     H_    0.179693 0.921883 0.737208 0.286319
H8    H     H_    0.146297 0.910702 0.613087 0.228515
H9    H     H_    0.998461 0.846250 0.690195 0.249792
Ba1   Ba    Ba6+2 0.855630 0.555280 0.454520 1.580968
C6    C     C_3   0.981795 0.233904 0.341473 0.340553
H10   H     H_    0.849155 0.212091 0.347681 0.080759
H11   H     H_    0.032299 0.275639 0.407613 0.137994
C7    C     C_3   0.058273 0.133634 0.327043 -0.832158
H12   H     H_    0.016020 0.092916 0.259726 0.279048
H13   H     H_    0.027874 0.081282 0.384789 0.237096
H14   H     H_    0.190982 0.153343 0.321289 0.278168
C8    C     C_3   0.726147 0.673541 0.733291 0.260234
H15   H     H_    0.840309 0.650255 0.705277 0.030797
H16   H     H_    0.623343 0.607939 0.719763 0.125429
C9    C     C_3   0.746668 0.699271 0.838459 0.081807
H17   H     H_    0.868789 0.746854 0.855742 0.164099
H18   H     H_    0.739218 0.624989 0.875138 0.123688
P4    P     P_3+3 0.135310 0.572810 0.713130 0.464648
O12   O     O_2   0.302330 0.539400 0.727760 -0.352155
O13   O     O_3   0.060300 0.548700 0.611500 -0.415629
O14   O     O_3   0.519500 0.346920 0.670840 -0.410200
O15   O     O_3   0.160509 0.708151 0.745614 -0.616491
P5    P     P_3+3 0.057767 0.156974 0.620931 0.441804
O16   O     O_3   0.614310 0.373510 0.452640 -0.401415
O17   O     O_3   0.100780 0.295230 0.623970 -0.366139
O18   O     O_2   0.190038 0.112575 0.562720 -0.426907
O19   O     O_3   0.091674 0.117867 0.733451 -0.586684
Ba2   Ba    Ba6+2 0.334200 0.444810 0.545490 1.578852
P6    P     P_3+3 0.651103 0.643248 0.207223 0.531666
C10   C     C_3   0.675090 0.849287 0.236721 0.741119
H19   H     H_    0.699589 0.970953 0.135940 0.302950
O20   O     O_3   0.575400 0.626570 0.547370 -0.382113
C11   C     C_3   0.485870 0.306915 0.260711 0.395125
H20   H     H_    0.364198 0.326542 0.280066 0.082810
H21   H     H_    0.581139 0.374950 0.281290 0.118225
C12   C     C_3   0.489570 0.287393 0.155136 -0.874485
H22   H     H_    0.391608 0.222515 0.131640 0.292669
H23   H     H_    0.470328 0.359881 0.120086 0.189817
H24   H     H_    0.609318 0.265254 0.134587 0.262761
P7    P     P_3+3 0.525541 0.240855 0.423773 0.426233
O21   O     O_2   0.344320 0.238700 0.455090 -0.385504
O22   O     O_3   0.515384 0.214860 0.302701 -0.538582
H25   H     H_    0.296773 0.815596 0.101994 -0.000535
C13   C     C_3   0.038974 0.191008 0.800324 0.700538
H26   H     H_    0.112485 0.270527 0.796891 0.103860
C14   C     C_3   0.061072 0.153705 0.898546 0.486598
H27   H     H_    0.987711 0.197602 0.947845 0.019939
P8    P     P_3+3 0.539989 0.350012 0.792010 0.487862
C15   C     C_3   0.492257 0.151226 0.745455 0.509126
H28   H     H_    0.600042 0.169636 0.701883 0.061685
O23   O     O_2   0.404436 0.407222 0.835183 -0.386090
O24   O     O_3   0.496346 0.220232 0.825453 -0.458971
H29   H     H_    0.383373 0.156553 0.702315 0.159225
H30   H     H_    0.596244 0.028900 0.814480 0.285890
C16   C     C_3   0.486033 0.038890 0.773907 -0.938977
H31   H     H_    0.477652 0.985871 0.709493 0.231247
H32   H     H_    0.380365 0.018758 0.818545 0.317427
C17   C     C_R   0.984063 0.442952 0.059031 -0.064980
C18   C     C_R   0.181906 0.491106 0.194346 0.244727
C19   C     C_R   0.339162 0.534238 0.223765 -0.550410
C20   C     C_R   0.450980 0.579155 0.161945 0.257796
C21   C     C_R   0.403851 0.589087 0.069660 0.335856
C22   C     C_R   0.248397 0.542717 0.034946 -0.142768
C23   C     C_R   0.136215 0.490974 0.096980 -0.049481
H33   H     H_    0.376053 0.532596 0.296121 0.193470
C24   C     C_R   0.054672 0.499162 0.901100 -0.021333
C25   C     C_R   0.942012 0.448345 0.963533 0.042990
C26   C     C_R   0.010486 0.499111 0.803332 0.212674
C27   C     C_R   0.856360 0.449888 0.773234 -0.487607
C28   C     C_R   0.742897 0.407738 0.836042 0.317023
C29   C     C_R   0.785897 0.404810 0.930075 -0.245007
C30   C     C_R   0.206043 0.547218 0.939144 -0.094826
H34   H     H_    0.697175 0.368394 0.977038 0.157897
H35   H     H_    0.820939 0.448912 0.700426 0.168927
H36   H     H_    0.896304 0.401208 0.103301 0.155955
H37   H     H_    0.292880 0.588077 0.894052 0.204735
C31   C     C_R   0.766157 0.175576 0.530755 -0.491620
C32   C     C_R   0.416601 0.816818 0.480090 -0.368743
C33   C     C_R   0.392882 0.996274 0.446408 -0.100052
C34   C     C_R   0.325240 0.890156 0.446134 0.288882
C35   C     C_R   0.571511 0.848365 0.519899 0.342824
C36   C     C_R   0.637403 0.958435 0.526316 -0.097186
C37   C     C_R   0.548217 0.032501 0.485760 -0.091666
C38   C     C_R   0.616776 0.140955 0.486293 0.251984
C39   C     C_R   0.854287 0.104907 0.570897 0.266177
C40   C     C_R   0.789275 0.997299 0.570448 -0.197378
H38   H     H_    0.324059 0.048646 0.412572 0.190781
H39   H     H_    0.858398 0.945531 0.604509 0.181994
H40   H     H_    0.817205 0.258432 0.531341 0.165734
H41   H     H_    0.366044 0.733733 0.475396 0.165441
O25   O     O_3   0.620238 0.754707 0.868752 -0.666671
H42   H     H_    0.663806 0.831708 0.871801 0.389854
N1    N     N_R   0.505646 0.854014 0.256830 0.190213
O26   O     O_R   0.446400 0.943031 0.255632 -0.393463
O27   O     O_R   0.416849 0.770836 0.284851 -0.508124
O28   O     O_3   0.875139 0.200528 0.785653 -0.828035
H43   H     H_    0.819483 0.127151 0.772053 0.319076
O29   O     O_3   0.225249 0.176407 0.926189 -0.707077
H44   H     H_    0.229315 0.172854 0.994818 0.355866
N2    N     N_R   0.005280 0.039651 0.899752 0.269508
O30   O     O_R   0.110045 0.972504 0.900045 -0.320319
O31   O     O_R   0.850667 0.005053 0.906265 -0.428358
O32   O     O_3   0.508212 0.650622 0.015915 -0.665067
H45   H     H_    0.445002 0.705341 0.994323 0.346040
O33   O     O_3   0.071547 0.795570 0.033796 -0.705946
H46   H     H_    0.110255 0.727798 0.013194 0.286611
N3    N     N_R   0.197257 0.958364 0.102219 0.300557
O34   O     O_R   0.072056 0.007165 0.088373 -0.371223
O35   O     O_R   0.343215 0.011103 0.096944 -0.346340
O36   O     O_3   0.379230 0.796881 0.678757 -0.788973
H47   H     H_    0.408615 0.813643 0.745816 0.371017

loop_
_geom_bond_atom_site_label_1
_geom_bond_atom_site_label_2
_geom_bond_distance
_ccdc_geom_bond_type
P5    C39   1.847195 S    
C21   C22   1.414372 A    
C26   C27   1.396056 A    
P2    Ba1   3.419407 S    
C28   C29   1.397577 A    
O6    C10   1.408995 S    
O32   H45   0.993142 S    
O36   H47   0.993895 S    
C40   H39   1.070551 S    
Ba1   O16   2.845375 S    
C19   C20   1.386933 A    
C37   C38   1.420764 A    
C5    H9    1.105845 S    
C17   C25   1.420230 A    
O16   P7    1.770992 S    
P3    O11   1.761398 S    
O1    Ba1   2.848138 S    
C14   O29   1.401981 S    
C2    H5    1.108810 S    
O11   C2    1.413686 S    
C8    C9    1.529254 S    
C13   H26   1.113315 S    
C6    H10   1.105936 S    
C35   C36   1.431400 A    
C11   H21   1.112321 S    
C25   C29   1.404257 A    
C7    H14   1.102982 S    
O25   H42   0.996697 S    
C12   H23   1.110573 S    
P1    O1    1.524827 D    
C13   C14   1.535048 S    
N1    O26   1.301639 A    
C33   C34   1.391619 A    
O19   C13   1.415898 S    
C7    H13   1.108328 S    
C39   C40   1.403324 A    
O12   Ba2   2.848669 S    
P4    Ba2   3.407472 S    
P5    O18   1.541927 D    
C2    H4    1.096277 S    
N3    O34   1.305570 A    
P7    O22   1.750465 S    
C15   O24   1.401574 S    
C29   H34   1.084003 S    
P2    O10   1.737562 S    
C36   C37   1.427458 A    
C1    C10   1.516665 S    
C1    H2    1.112350 S    
O3    Ba1   2.815904 S    
C3    N3    1.470548 S    
P2    C35   1.860244 S    
C11   C12   1.524614 S    
P5    O17   1.748441 S    
O13   Ba2   2.934690 S    
C15   C16   1.509801 S    
C3    O33   1.406118 S    
C27   C28   1.393010 A    
H1    C10   1.111298 S    
C21   O32   1.368525 S    
O8    Ba1   2.825099 S    
P1    C18   1.869535 S    
C17   C23   1.412441 A    
O17   Ba2   2.825696 S    
C4    O15   1.395082 S    
C15   H28   1.108328 S    
P1    O5    1.748797 S    
O4    P6    1.544211 D    
O29   H44   0.991074 S    
C2    C3    1.551071 S    
C18   C19   1.394768 A    
C16   H32   1.106976 S    
C24   C25   1.425824 A    
P6    C20   1.839257 S    
Ba2   O20   2.844695 S    
C20   C21   1.396472 A    
C5    H7    1.099009 S    
Ba1   O13   2.819444 S    
P1    O2    1.575585 S    
C12   H24   1.112492 S    
C32   H41   1.082160 S    
P4    O12   1.525188 D    
C8    H15   1.108627 S    
C31   H40   1.082389 S    
C24   C26   1.447720 A    
P4    O13   1.575464 S    
C13   O28   1.399429 S    
C4    H6    1.110357 S    
P7    C38   1.845379 S    
P1    Ba1   3.407008 S    
C7    H12   1.098296 S    
C32   C34   1.392335 A    
C1    H19   1.112560 S    
O10   C8    1.398772 S    
C24   C30   1.407650 A    
Ba2   O21   2.873701 S    
C1    H3    1.088779 S    
C3    H25   1.120643 S    
O28   H43   0.991156 S    
P2    O20   1.593319 S    
P3    C34   1.846575 S    
C9    H17   1.123802 S    
O5    C6    1.401025 S    
P2    O7    1.523763 D    
C17   H36   1.081456 S    
P3    O8    1.741871 S    
N2    O30   1.305761 A    
P8    O23   1.545084 D    
C31   C39   1.386671 A    
C18   C23   1.445078 A    
P8    C28   1.831152 S    
O7    Ba1   2.873483 S    
C33   C37   1.407569 A    
C33   H38   1.073024 S    
C6    C7    1.512035 S    
O3    P6    1.753503 S    
C36   C40   1.416113 A    
C22   C30   1.423463 A    
Ba1   O20   2.930473 S    
C16   H31   1.107898 S    
C19   H33   1.082624 S    
C5    H8    1.107704 S    
C4    O36   1.391869 S    
O33   H46   0.994606 S    
C11   H20   1.111901 S    
C14   H27   1.117599 S    
C8    H16   1.115270 S    
C6    H11   1.107515 S    
O2    Ba2   2.820019 S    
O2    Ba1   2.933915 S    
C9    O25   1.407854 S    
Ba1   Ba2   4.604878 S    
C27   H35   1.082200 S    
O16   Ba2   2.929678 S    
O14   Ba2   2.815304 S    
C9    H18   1.108212 S    
P4    C26   1.888161 S    
C32   C35   1.397752 A    
C4    C5    1.520211 S    
C12   H22   1.109565 S    
N1    O27   1.295186 A    
H30   C16   1.106042 S    
C11   O22   1.403937 S    
P5    O19   1.753179 S    
C22   C23   1.424421 A    
N3    O35   1.308812 A    
P7    O21   1.577241 D    
C15   H29   1.102538 S    
P3    O9    1.545499 D    
N2    O31   1.306799 A    
P8    O24   1.744537 S    
C14   N2    1.465894 S    
C31   C38   1.390952 A    
O6    P6    1.756489 S    
P4    O15   1.743950 S    
O14   P8    1.745677 S    
C30   H37   1.079399 S    
C10   N1    1.452255 S    
