data_mof_unit_26978.cif
_audit_creation_date              2012-12-10T18:13:30-0500
_audit_creation_method            fapswitch 2.2
_symmetry_space_group_name_H-M    P1
_symmetry_Int_Tables_number       1
_space_group_crystal_system       triclinic
_cell_length_a                    12.590083
_cell_length_b                    13.169422
_cell_length_c                    16.733793
_cell_angle_alpha                 90.969645
_cell_angle_beta                  97.952563
_cell_angle_gamma                 97.631961
_cell_volume                      2721.74610066

loop_
_atom_site_label
_atom_site_type_symbol
_atom_type_description
_atom_site_fract_x
_atom_site_fract_y
_atom_site_fract_z
_atom_type_partial_charge
C1    C     C_R   0.560032 0.691249 0.512678 0.859525
C2    C     C_R   0.601948 0.448691 0.232837 -0.188971
C3    C     C_R   0.542111 0.436374 0.867997 -0.190019
C4    C     C_R   0.558573 0.465107 0.790931 -0.200988
C5    C     C_R   0.366185 0.471823 0.756181 -0.253434
C6    C     C_R   0.348785 0.441658 0.833217 0.116004
C7    C     C_R   0.437052 0.422589 0.889350 0.197288
C8    C     C_2   0.489243 0.354976 0.023205 -0.257678
C9    C     C_2   0.420489 0.401364 0.972659 -0.190538
C10   C     C_R   0.470708 0.482225 0.734399 -0.050324
C11   C     C_R   0.285417 0.059189 0.544533 -0.303898
C12   C     C_R   0.511482 0.492038 0.349157 0.855126
C13   C     C_R   0.403179 0.198845 0.497093 -0.093469
C14   C     C_R   0.702365 0.838053 0.507160 -0.188734
C15   C     C_R   0.733233 0.942735 0.502968 -0.130585
C16   C     C_R   0.658578 0.010213 0.509907 -0.174967
C17   C     C_R   0.552366 0.973617 0.525174 0.102799
C18   C     C_R   0.527951 0.869559 0.542535 0.081398
C19   C     C_R   0.468978 0.036136 0.522854 0.080185
C20   C     C_R   0.368979 0.998309 0.548654 0.128164
C21   C     C_R   0.353761 0.900183 0.578374 -0.213495
C22   C     C_R   0.432754 0.836733 0.576138 -0.197918
C23   C     C_R   0.439536 0.308329 0.491660 0.895331
C24   C     C_R   0.481270 0.134245 0.493092 -0.341390
C25   C     C_R   0.301727 0.160264 0.518776 0.448120
C26   C     C_R   0.598585 0.800717 0.524255 -0.120803
C27   C     C_R   0.901602 0.358728 0.621409 0.341804
C28   C     C_R   0.209838 0.627292 0.404659 -0.124147
C29   C     C_R   0.107192 0.657458 0.386029 0.414332
C30   C     C_R   0.023034 0.610361 0.424201 -0.213880
C31   C     C_R   0.040664 0.533377 0.480691 -0.047233
C32   C     C_R   0.146313 0.507127 0.497624 0.201835
C33   C     C_R   0.958103 0.481639 0.520846 -0.017395
C34   C     C_R   0.485536 0.500064 0.650720 0.852197
C35   C     C_R   0.983690 0.408688 0.580282 0.048948
C36   C     C_R   0.089100 0.384594 0.594701 -0.280495
C37   C     C_R   0.168211 0.432650 0.553556 -0.111907
C38   C     C_R   0.849961 0.498053 0.503114 -0.086180
C39   C     C_R   0.796204 0.377287 0.598576 -0.020155
C40   C     C_R   0.506703 0.458140 0.265362 -0.037667
C41   C     C_R   0.405731 0.420888 0.221078 -0.199235
C42   C     C_R   0.399775 0.377928 0.144250 -0.155651
C43   C     C_R   0.494606 0.374274 0.109872 0.197221
C44   C     C_R   0.595794 0.406897 0.155163 -0.158867
H1    H     H_    0.331249 0.423318 0.246194 0.166805
H2    H     H_    0.279736 0.871558 0.601686 0.151558
H3    H     H_    0.208515 0.028845 0.562932 0.139409
H4    H     H_    0.552986 0.163620 0.467837 0.175316
H5    H     H_    0.758586 0.786241 0.494760 0.158974
H6    H     H_    0.686952 0.090445 0.504733 0.142021
H7    H     H_    0.813822 0.971439 0.490748 0.152919
H8    H     H_    0.418384 0.761711 0.601053 0.171830
H9    H     H_    0.731411 0.339665 0.628298 0.162780
H10   H     H_    0.640027 0.473400 0.775584 0.166277
H11   H     H_    0.111591 0.326061 0.635792 0.166390
H12   H     H_    0.822565 0.550853 0.459043 0.140070
H13   H     H_    0.277011 0.662659 0.376337 0.146984
H14   H     H_    0.945608 0.636729 0.408907 0.159220
H15   H     H_    0.246177 0.408773 0.566038 0.235492
H16   H     H_    0.297132 0.484579 0.713161 0.158523
H17   H     H_    0.357016 0.436867 0.995469 0.173289
H18   H     H_    0.669549 0.404811 0.128967 0.132492
H19   H     H_    0.612457 0.427632 0.911028 0.141023
H20   H     H_    0.680728 0.474558 0.267021 0.155953
H21   H     H_    0.554437 0.320836 0.001789 0.155436
H22   H     H_    0.320969 0.350843 0.110591 0.140181
N1    N     N_R   0.774070 0.445420 0.541180 -0.139500
N2    N     N_R   0.226730 0.554050 0.459240 -0.146957
O1    O     O_R   0.631480 0.627510 0.519670 -0.609781
O2    O     O_R   0.455770 0.662400 0.493360 -0.613009
O3    O     O_R   0.598240 0.480510 0.398910 -0.613643
O4    O     O_R   0.422540 0.515400 0.372600 -0.616802
O5    O     O_R   0.544230 0.337600 0.506640 -0.625316
O6    O     O_R   0.368520 0.372490 0.480330 -0.577038
O7    O     O_R   0.577460 0.484600 0.627400 -0.615316
O8    O     O_R   0.401760 0.519490 0.601090 -0.651843
Zn1   Zn    Zn3+2 0.617320 0.476700 0.517570 0.939338
Zn2   Zn    Zn3+2 0.382680 0.523300 0.482430 0.943215
N3    N     N_3   0.241265 0.429341 0.854056 -0.477745
H23   H     H_    0.211055 0.499269 0.846211 0.186026
H24   H     H_    0.192908 0.375322 0.813394 0.183455
O9    O     O_3   0.221134 0.221956 0.515938 -0.780413
H25   H     H_    0.155574 0.182457 0.532561 0.332791
O10   O     O_3   0.920004 0.292146 0.682988 -0.774363
H26   H     H_    0.991442 0.316012 0.714847 0.325915
O11   O     O_3   0.086774 0.732411 0.331618 -0.760675
H27   H     H_    0.154804 0.757964 0.310441 0.328466

loop_
_geom_bond_atom_site_label_1
_geom_bond_atom_site_label_2
_ccdc_geom_bond_type
O2    Zn2   S    
C41   C42   A    
C11   H3    S    
C35   C36   A    
N1    Zn1   S    
C8    C43   S    
C39   H9    S    
C28   H13   S    
C28   C29   A    
C9    H17   S    
C36   C37   A    
C28   N2    A    
O8    Zn2   S    
C3    C7    A    
C30   C31   A    
C14   H5    S    
C11   C25   A    
C15   C16   A    
C25   O9    S    
C13   C23   S    
O4    Zn2   S    
C33   C35   A    
O1    Zn1   S    
C19   C20   A    
C2    C44   A    
C8    C9    D    
C18   C26   A    
C31   C33   A    
C15   H7    S    
C34   O7    A    
C32   N2    A    
C12   O4    A    
C8    H21   S    
C21   C22   A    
C13   C25   A    
C23   O5    A    
C2    H20   S    
N2    Zn2   S    
C11   C20   A    
C24   H4    S    
O10   H26   S    
C27   C39   A    
N3    H24   S    
O11   H27   S    
C16   C17   A    
C27   C35   A    
C1    O1    A    
C13   C24   A    
C12   C40   S    
C43   C44   A    
C29   C30   A    
C31   C32   A    
C20   C21   A    
C17   C18   A    
C10   C34   S    
C32   C37   A    
C14   C26   A    
O7    Zn1   S    
C29   O11   S    
C37   H15   S    
C40   C41   A    
C12   O3    A    
C1    C26   S    
C42   C43   A    
C23   O6    A    
C4    C10   A    
C3    C4    A    
O3    Zn1   S    
C22   H8    S    
C21   H2    S    
C7    C9    S    
C27   O10   S    
O5    Zn1   S    
C5    H16   S    
C4    H10   S    
C18   C22   A    
C39   N1    A    
C33   C38   A    
C16   H6    S    
C6    C7    A    
C3    H19   S    
C1    O2    A    
C44   H18   S    
C19   C24   A    
C5    C10   A    
C36   H11   S    
C6    N3    S    
C5    C6    A    
C30   H14   S    
C17   C19   A    
N3    H23   S    
C2    C40   A    
C38   H12   S    
C38   N1    A    
O9    H25   S    
O6    Zn2   S    
C42   H22   S    
C41   H1    S    
C14   C15   A    
C34   O8    A    
