data_mof_unit_59311.cif
_audit_creation_date              2012-10-26T18:56:26-0400
_audit_creation_method            fapswitch 2.2
_symmetry_space_group_name_H-M    P1
_symmetry_Int_Tables_number       1
_space_group_crystal_system       triclinic
_cell_length_a                    10.674418
_cell_length_b                    10.708611
_cell_length_c                    9.579512
_cell_angle_alpha                 90.451137
_cell_angle_beta                  90.595205
_cell_angle_gamma                 87.899939
_cell_volume                      1094.19140697

loop_
_atom_site_label
_atom_site_type_symbol
_atom_type_description
_atom_site_fract_x
_atom_site_fract_y
_atom_site_fract_z
_atom_type_partial_charge
C1    C     C_R   0.499741 0.260636 0.499341 0.606487
C2    C     C_3   0.389092 0.489943 0.046480 0.170335
C3    C     C_R   0.260470 0.498981 0.499962 0.595844
C4    C     C_R   0.739530 0.500996 0.500040 0.595823
C5    C     C_3   0.041192 0.489782 0.632064 -0.050147
C6    C     C_3   0.958811 0.510157 0.367951 -0.050125
C7    C     C_3   0.960595 0.394119 0.554728 -0.031507
C8    C     C_3   0.039405 0.605825 0.445289 -0.031423
C9    C     C_3   0.875862 0.502111 0.498750 -0.003391
C10   C     C_3   0.124140 0.497833 0.501262 -0.003319
C11   C     C_3   0.956178 0.597896 0.575642 -0.020018
C12   C     C_R   0.500253 0.739365 0.500659 0.606511
C13   C     C_3   0.043824 0.402043 0.424376 -0.020057
C14   C     C_3   0.595967 0.039700 0.575769 0.081433
C15   C     C_3   0.404016 0.960302 0.424226 0.081450
C16   C     C_3   0.607176 0.954274 0.446512 0.103258
C17   C     C_3   0.392808 0.045729 0.553482 0.103239
C18   C     C_3   0.500767 0.875084 0.502150 0.054962
C19   C     C_3   0.499218 0.124918 0.497845 0.054962
C20   C     C_2   0.916211 0.276771 0.619102 0.298329
C21   C     C_2   0.083756 0.723186 0.380916 0.298402
C22   C     C_2   0.082846 0.475206 0.781093 0.284070
C23   C     C_3   0.489676 0.961799 0.631454 0.070087
C24   C     C_2   0.917165 0.524716 0.218920 0.284054
C25   C     C_2   0.911451 0.709830 0.658715 0.275764
C26   C     C_2   0.088537 0.290077 0.341346 0.275740
C27   C     C_2   0.349656 0.700106 0.900274 0.263132
C28   C     C_2   0.650343 0.299894 0.099724 0.263117
C29   C     C_3   0.510308 0.038204 0.368540 0.070073
C30   C     C_3   0.542529 0.601197 0.050859 0.176983
C31   C     C_3   0.457471 0.398804 0.949141 0.176965
C32   C     C_3   0.431124 0.592185 0.949698 0.090661
C33   C     C_3   0.568878 0.407816 0.050301 0.090683
C34   C     C_3   0.610909 0.510059 0.953518 0.170353
Cu1   Cu    Cu3+1 0.500030 0.499990 0.643150 1.058445
Cu2   Cu    Cu3+1 0.499970 0.500010 0.356850 1.058515
H1    H     H_    0.856457 0.282574 0.709732 0.097378
H2    H     H_    0.294283 0.145461 0.699403 0.265879
H3    H     H_    0.748621 0.003177 0.698862 0.286549
H4    H     H_    0.664938 0.132551 0.743776 0.196292
H5    H     H_    0.251366 0.996824 0.301115 0.286502
H6    H     H_    0.335055 0.867444 0.256225 0.196296
H7    H     H_    0.473367 0.002118 0.838214 0.201915
H8    H     H_    0.563603 0.874717 0.802348 0.243210
H9    H     H_    0.526585 0.997885 0.161778 0.201898
H10   H     H_    0.436394 0.125315 0.197657 0.243264
H11   H     H_    0.350774 0.788153 0.956795 0.079154
H12   H     H_    0.143420 0.717408 0.290202 0.097334
H13   H     H_    0.649248 0.211856 0.043188 0.079146
H14   H     H_    0.637210 0.760336 0.025968 0.217337
H15   H     H_    0.518753 0.773196 0.137927 0.185682
H16   H     H_    0.362803 0.239659 0.974041 0.217356
H17   H     H_    0.481246 0.226809 0.862063 0.185696
H18   H     H_    0.739280 0.602196 0.843021 0.277212
H19   H     H_    0.766255 0.444462 0.850932 0.215920
H20   H     H_    0.233757 0.555556 0.149069 0.215918
H21   H     H_    0.260704 0.397819 0.156955 0.277347
H22   H     H_    0.063700 0.549578 0.856185 0.127572
H23   H     H_    0.936354 0.450344 0.143830 0.127573
H24   H     H_    0.976851 0.757981 0.725649 0.139480
H25   H     H_    0.023075 0.241755 0.274679 0.139689
H26   H     H_    0.776522 0.981952 0.359891 0.285492
H27   H     H_    0.705700 0.854552 0.300583 0.265855
H28   H     H_    0.223458 0.018061 0.640101 0.285550
N1    N     N_3   0.500090 0.499970 0.858290 -0.247031
N2    N     N_3   0.405786 0.285142 0.892264 -0.533632
N3    N     N_3   0.738796 0.524300 0.907383 -0.583355
N4    N     N_3   0.261201 0.475720 0.092606 -0.583363
N5    N     N_3   0.499910 0.500030 0.141710 -0.247015
N6    N     N_3   0.725733 0.905489 0.390834 -0.495216
N7    N     N_3   0.274251 0.094520 0.609155 -0.495305
N8    N     N_3   0.701309 0.082279 0.658606 -0.571157
N9    N     N_3   0.298675 0.917722 0.341388 -0.571114
N10   N     N_3   0.479518 0.921975 0.775546 -0.617520
N11   N     N_3   0.520467 0.078028 0.224449 -0.617520
N12   N     N_3   0.594214 0.714858 0.107738 -0.533630
O1    O     O_R   0.500060 0.316850 0.620870 -0.512931
O2    O     O_2   0.052086 0.825285 0.428794 -0.435084
O3    O     O_2   0.138656 0.379602 0.818399 -0.450647
O4    O     O_2   0.861307 0.620295 0.181611 -0.450628
O5    O     O_2   0.802955 0.748894 0.649332 -0.505623
O6    O     O_2   0.197095 0.251176 0.350474 -0.505869
O7    O     O_2   0.276732 0.688538 0.802803 -0.478511
O8    O     O_2   0.723236 0.311449 0.197221 -0.478526
O9    O     O_R   0.499940 0.683150 0.379130 -0.512912
O10   O     O_R   0.500000 0.316860 0.379090 -0.457727
O11   O     O_R   0.500000 0.683140 0.620910 -0.457757
O12   O     O_R   0.316880 0.499960 0.620870 -0.410458
O13   O     O_R   0.683120 0.500040 0.379130 -0.410397
O14   O     O_R   0.316830 0.499970 0.379090 -0.545014
O15   O     O_R   0.683170 0.500030 0.620910 -0.545080
O16   O     O_2   0.947956 0.174653 0.571315 -0.435161

loop_
_geom_bond_atom_site_label_1
_geom_bond_atom_site_label_2
_ccdc_geom_bond_type
Cu2   O13   S    
C31   N2    S    
C28   O8    D    
C1    O1    A    
C15   C18   S    
Cu1   Cu2   S    
C6    C9    S    
C20   O16   D    
C17   C23   S    
C12   O9    A    
C3    O14   A    
C2    C32   S    
C26   H25   S    
C22   O3    D    
C5    C11   S    
C2    N4    S    
C8    C11   S    
Cu1   N1    S    
Cu2   O14   S    
H26   N6    S    
C31   N1    S    
C28   H13   S    
H28   N7    S    
Cu1   O11   S    
C24   O4    D    
C5    C22   S    
C21   O2    D    
H3    N8    S    
C31   C33   S    
C25   H24   S    
C2    N5    S    
C33   N5    S    
C4    O15   A    
H7    N10   S    
C3    O12   A    
C26   O6    D    
C25   O5    D    
C34   N1    S    
H10   N11   S    
C15   C29   S    
C1    C19   S    
C30   C34   S    
C18   C23   S    
C16   N6    S    
H15   N12   S    
C5    C7    S    
C6    C8    S    
H18   N3    S    
Cu2   O10   S    
C16   C29   S    
H20   N4    S    
Cu1   O1    S    
C2    C31   S    
C14   C23   S    
H14   N12   S    
C30   N12   S    
Cu1   O12   S    
H27   N6    S    
C6    C24   S    
C33   C34   S    
H8    N10   S    
H17   N2    S    
C9    C11   S    
C16   C18   S    
C15   N9    S    
C28   C33   S    
C17   N7    S    
C14   C16   S    
C13   C26   S    
H21   N4    S    
C19   C29   S    
C30   N5    S    
H16   N2    S    
Cu2   N5    S    
C4    O13   A    
C27   H11   S    
C1    O10   A    
C15   C17   S    
H2    N7    S    
H6    N9    S    
H4    N8    S    
C12   O11   A    
C27   C32   S    
C14   N8    S    
C14   C19   S    
C10   C13   S    
C8    C21   S    
C34   N3    S    
C22   H22   S    
H19   N3    S    
C29   N11   S    
Cu2   O9    S    
H9    N11   S    
C21   H12   S    
C27   O7    D    
C5    C10   S    
C3    C10   S    
C6    C13   S    
C30   C32   S    
C20   H1    S    
C24   H23   S    
C17   C19   S    
H5    N9    S    
C7    C9    S    
C7    C13   S    
C8    C10   S    
C7    C20   S    
C12   C18   S    
C11   C25   S    
C23   N10   S    
C4    C9    S    
C32   N1    S    
Cu1   O15   S    
