data_mof_unit_37884.cif
_audit_creation_date              2012-12-10T18:04:50-0500
_audit_creation_method            fapswitch 2.2
_symmetry_space_group_name_H-M    P1
_symmetry_Int_Tables_number       1
_space_group_crystal_system       triclinic
_cell_length_a                    10.969899
_cell_length_b                    9.697416
_cell_length_c                    17.85866
_cell_angle_alpha                 90.297306
_cell_angle_beta                  99.800489
_cell_angle_gamma                 90.780015
_cell_volume                      1871.8458214

loop_
_atom_site_label
_atom_site_type_symbol
_atom_type_description
_atom_site_fract_x
_atom_site_fract_y
_atom_site_fract_z
_atom_type_partial_charge
C1    C     C_R   0.263222 0.497523 0.505370 0.937964
C2    C     C_R   0.736700 0.499937 0.495465 0.960264
C3    C     C_1   0.482493 0.532820 0.964290 0.273423
C4    C     C_1   0.493222 0.531970 0.032297 0.272572
C5    C     C_R   0.058732 0.362375 0.500784 0.276478
C6    C     C_R   0.940362 0.615545 0.486526 0.361820
C7    C     C_R   0.929442 0.370376 0.480308 0.302056
C8    C     C_R   0.064647 0.609919 0.520807 0.357663
C9    C     C_R   0.507991 0.500152 0.355915 0.916458
C10   C     C_R   0.489694 0.500582 0.643493 0.896073
C11   C     C_R   0.870723 0.495701 0.490731 -0.333431
C12   C     C_R   0.128729 0.488609 0.510586 -0.331653
C13   C     C_R   0.533630 0.628192 0.845881 0.311441
C14   C     C_R   0.580928 0.426298 0.153884 0.240635
C15   C     C_R   0.450369 0.624903 0.153515 0.314968
C16   C     C_R   0.397404 0.429010 0.840287 0.269610
C17   C     C_R   0.502770 0.634483 0.766462 0.185716
C18   C     C_R   0.562326 0.395460 0.228758 0.294475
C19   C     C_R   0.487748 0.632172 0.232684 0.170056
C20   C     C_R   0.420230 0.398193 0.766141 0.279205
C21   C     C_R   0.471091 0.507821 0.725295 -0.328732
C22   C     C_R   0.520053 0.506170 0.272717 -0.323674
C23   C     C_R   0.413776 0.074424 0.448207 0.356734
C24   C     C_R   0.590409 0.927423 0.549767 0.320344
C25   C     C_R   0.587488 0.078148 0.551285 0.374352
C26   C     C_R   0.410473 0.923852 0.449754 0.315082
C27   C     C_R   0.471170 0.530387 0.883025 -0.244135
C28   C     C_R   0.507459 0.527551 0.113654 -0.248524
Cu1   Cu    Cu3+1 0.500000 0.640660 0.500000 1.187132
Cu2   Cu    Cu3+1 0.500000 0.359340 0.500000 1.201109
N1    N     N_R   0.500000 0.852070 0.500000 -0.295496
N2    N     N_R   0.500000 0.147930 0.500000 -0.296257
O1    O     O_R   0.319640 0.618740 0.499990 -0.495119
O2    O     O_R   0.680360 0.381260 0.500010 -0.508946
O3    O     O_R   0.680360 0.618740 0.500010 -0.501324
O4    O     O_R   0.319640 0.381260 0.499990 -0.502622
O5    O     O_R   0.500000 0.618830 0.391250 -0.523819
O6    O     O_R   0.500000 0.381170 0.608750 -0.488258
O7    O     O_R   0.500000 0.618830 0.608750 -0.524462
O8    O     O_R   0.500000 0.381170 0.391250 -0.489670
S1    S     S_3+6 0.638096 0.751324 0.897441 0.116039
O9    O     O_2   0.566642 0.871955 0.919198 -0.189284
O10   O     O_2   0.708113 0.688444 0.968370 -0.225173
O11   O     O_3   0.741111 0.805572 0.843839 -0.461584
H1    H     H_    0.782786 0.887029 0.871148 0.409483
S2    S     S_3+6 0.699851 0.346687 0.112394 0.096960
O12   O     O_2   0.654269 0.210099 0.077554 -0.227632
O13   O     O_2   0.738271 0.436250 0.051843 -0.232853
O14   O     O_3   0.825146 0.323725 0.179688 -0.420777
H2    H     H_    0.882904 0.270128 0.154315 0.400344
S3    S     S_3+6 0.345051 0.746600 0.105249 0.116524
O15   O     O_2   0.416044 0.869778 0.083946 -0.177491
O16   O     O_2   0.271607 0.683706 0.034329 -0.227530
O17   O     O_3   0.245507 0.796579 0.161692 -0.465155
H3    H     H_    0.204028 0.878281 0.136493 0.410041
S4    S     S_3+6 0.272411 0.350264 0.877569 0.092295
O18   O     O_2   0.310729 0.212684 0.911331 -0.238674
O19   O     O_2   0.233526 0.439709 0.938024 -0.234334
O20   O     O_3   0.149782 0.329801 0.807549 -0.425036
H4    H     H_    0.087686 0.277724 0.830832 0.401723
S5    S     S_3+6 0.455227 0.801527 0.731334 0.138934
O21   O     O_2   0.566846 0.891659 0.731396 -0.145077
O22   O     O_2   0.378638 0.804163 0.653394 -0.220216
O23   O     O_3   0.370441 0.870619 0.791675 -0.411557
H5    H     H_    0.297091 0.808805 0.788613 0.375241
S6    S     S_3+6 0.562258 0.213829 0.248884 0.184727
O24   O     O_2   0.677565 0.147142 0.232508 -0.123184
O25   O     O_2   0.552022 0.175545 0.328398 -0.205841
O26   O     O_3   0.441251 0.143393 0.189908 -0.409051
H6    H     H_    0.461993 0.151269 0.138312 0.385199
S7    S     S_3+6 0.539971 0.800395 0.267111 0.139509
O27   O     O_2   0.430504 0.890011 0.267937 -0.138124
O28   O     O_2   0.618950 0.807502 0.344325 -0.229954
O29   O     O_3   0.623440 0.866799 0.204907 -0.394796
H7    H     H_    0.695180 0.805081 0.207182 0.371020
S8    S     S_3+6 0.415363 0.217007 0.744122 0.171707
O30   O     O_2   0.293232 0.152893 0.752597 -0.136442
O31   O     O_2   0.438580 0.176592 0.667293 -0.202907
O32   O     O_3   0.526572 0.145529 0.808160 -0.414467
H8    H     H_    0.486674 0.120185 0.851883 0.411223
S9    S     S_3+6 0.296153 0.162027 0.379809 0.166010
O33   O     O_2   0.307333 0.112706 0.301706 -0.149652
O34   O     O_2   0.173596 0.116506 0.397979 -0.179723
O35   O     O_3   0.282854 0.332688 0.367824 -0.518225
H9    H     H_    0.204117 0.345706 0.332269 0.376611
S10   S     S_3+6 0.728204 0.841846 0.602604 0.168433
O36   O     O_2   0.820653 0.843419 0.549671 -0.182898
O37   O     O_2   0.790520 0.911930 0.674138 -0.168711
O38   O     O_3   0.714926 0.679439 0.632539 -0.497025
H10   H     H_    0.718221 0.684158 0.688294 0.374205
S11   S     S_3+6 0.703565 0.170733 0.621420 0.168316
O39   O     O_2   0.686862 0.122841 0.698816 -0.157906
O40   O     O_2   0.828840 0.129843 0.606683 -0.167114
O41   O     O_3   0.716679 0.342183 0.633119 -0.519473
H11   H     H_    0.791111 0.358121 0.672357 0.377906
S12   S     S_3+6 0.271965 0.833700 0.397600 0.164239
O42   O     O_2   0.182163 0.833412 0.452175 -0.196721
O43   O     O_2   0.206511 0.900218 0.326829 -0.164558
O44   O     O_3   0.284893 0.671356 0.367095 -0.497441
H12   H     H_    0.280069 0.675364 0.311250 0.373098
S13   S     S_3+6 0.106776 0.213210 0.555517 0.167156
O45   O     O_2   0.096580 0.245590 0.636520 -0.181753
O46   O     O_2   0.021752 0.093471 0.528940 -0.126464
O47   O     O_3   0.251126 0.162590 0.553273 -0.472233
H13   H     H_    0.253435 0.065033 0.569565 0.401045
S14   S     S_3+6 0.913366 0.691542 0.395636 0.108485
O48   O     O_2   0.795642 0.635190 0.349919 -0.287129
O49   O     O_2   0.906417 0.845481 0.402985 -0.148269
O50   O     O_3   0.028785 0.651359 0.349040 -0.481884
H14   H     H_    0.005218 0.691937 0.297923 0.405442
S15   S     S_3+6 0.854040 0.255739 0.409472 0.151879
O51   O     O_2   0.770342 0.340163 0.353194 -0.257222
O52   O     O_2   0.944999 0.185974 0.368668 -0.164088
O53   O     O_3   0.771097 0.135579 0.446865 -0.459346
H15   H     H_    0.752498 0.062747 0.407363 0.415489
S16   S     S_3+6 0.097788 0.682191 0.612900 0.099948
O54   O     O_2   0.206328 0.611639 0.658868 -0.311785
O55   O     O_2   0.124207 0.833915 0.607980 -0.159979
O56   O     O_3   0.975393 0.658980 0.656774 -0.476216
H16   H     H_    0.999456 0.703960 0.707146 0.404212

loop_
_geom_bond_atom_site_label_1
_geom_bond_atom_site_label_2
_ccdc_geom_bond_type
C2    O3    A    
S6    O25   D    
S13   O45   D    
S1    O9    D    
C14   C18   A    
C19   S7    S    
S15   O51   D    
S8    O32   S    
C13   S1    S    
O53   H15   S    
C1    O1    A    
C14   S2    S    
S4    O18   D    
C15   C19   A    
S2    O14   S    
C20   S8    S    
S8    O31   D    
S10   O37   D    
C9    C22   S    
S6    O26   S    
S14   O48   D    
S12   O44   S    
Cu1   O1    S    
S16   O54   D    
Cu2   O6    S    
C23   C26   A    
S5    O22   D    
C4    C28   S    
S2    O12   D    
C7    S15   S    
S12   O43   D    
C15   S3    S    
C8    C12   A    
C17   S5    S    
C2    O2    A    
C16   C27   A    
S6    O24   D    
O20   H4    S    
S13   O46   D    
S1    O10   D    
O26   H6    S    
C1    C12   S    
C2    C11   S    
O47   H13   S    
S9    O34   D    
S9    O33   D    
C5    S13   S    
S8    O30   D    
C10   C21   S    
C26   S12   S    
S2    O13   D    
C25   S11   S    
O29   H7    S    
Cu2   O2    S    
S3    O15   D    
C19   C22   A    
C24   C25   A    
C5    C12   A    
C6    C11   A    
C5    C7    A    
S10   O36   D    
C6    C8    A    
C9    O8    A    
C17   C21   A    
C10   O7    A    
S3    O16   D    
S5    O23   S    
C7    C11   A    
C16   S4    S    
Cu1   Cu2   S    
S11   O40   D    
O44   H12   S    
C16   C20   A    
S12   O42   D    
Cu1   O7    S    
C9    O5    A    
C6    S14   S    
Cu2   O8    S    
O41   H11   S    
S15   O52   D    
O35   H9    S    
S16   O55   D    
S13   O47   S    
S1    O11   S    
C3    C4    T    
S11   O39   D    
S9    O35   S    
O11   H1    S    
S7    O28   D    
O17   H3    S    
C23   S9    S    
C18   C22   A    
S10   O38   S    
S7    O29   S    
O56   H16   S    
S16   O56   S    
Cu2   O4    S    
C18   S6    S    
Cu1   O3    S    
S4    O20   S    
C13   C17   A    
C10   O6    A    
S3    O17   S    
C23   N2    A    
C3    C27   S    
C24   N1    A    
S7    O27   D    
Cu1   N1    S    
O50   H14   S    
O23   H5    S    
S11   O41   S    
Cu2   N2    S    
C15   C28   A    
S14   O49   D    
C25   N2    A    
S4    O19   D    
S15   O53   S    
S5    O21   D    
C8    S16   S    
O32   H8    S    
C26   N1    A    
C20   C21   A    
O14   H2    S    
Cu1   O5    S    
C13   C27   A    
C14   C28   A    
O38   H10   S    
C24   S10   S    
C1    O4    A    
S14   O50   S    
