data_mof_unit_38968.cif
_audit_creation_date              2012-12-10T16:51:11-0500
_audit_creation_method            fapswitch 2.2
_symmetry_space_group_name_H-M    P1
_symmetry_Int_Tables_number       1
_space_group_crystal_system       triclinic
_cell_length_a                    27.876386
_cell_length_b                    8.731502
_cell_length_c                    7.433916
_cell_angle_alpha                 103.344985
_cell_angle_beta                  94.257991
_cell_angle_gamma                 93.197019
_cell_volume                      1750.75433757

loop_
_atom_site_label
_atom_site_type_symbol
_atom_type_description
_atom_site_fract_x
_atom_site_fract_y
_atom_site_fract_z
_atom_type_partial_charge
C1    C     C_R   0.498483 0.199812 0.453173 0.770959
C2    C     C_R   0.501517 0.800188 0.546827 0.770959
C3    C     C_R   0.101272 0.491854 0.495210 -0.130751
C4    C     C_R   0.898728 0.508137 0.504730 -0.130743
C5    C     C_R   0.122816 0.347199 0.460477 -0.228827
C6    C     C_R   0.877184 0.652792 0.539481 -0.228825
C7    C     C_R   0.093441 0.206634 0.398199 0.625607
C8    C     C_R   0.906560 0.793357 0.601753 0.625606
C9    C     C_R   0.130662 0.633516 0.525413 -0.029050
C10   C     C_R   0.869337 0.366472 0.474515 -0.029042
C11   C     C_R   0.354005 0.494144 0.507161 -0.372531
C12   C     C_R   0.645996 0.505848 0.492835 -0.372579
C13   C     C_R   0.970483 0.356999 0.467739 0.121238
C14   C     C_R   0.029517 0.642991 0.532190 0.121237
C15   C     C_R   0.979104 0.648827 0.548845 -0.105061
C16   C     C_R   0.020896 0.351164 0.451089 -0.105058
C17   C     C_R   0.949626 0.504859 0.504762 0.043400
C18   C     C_R   0.050374 0.495131 0.495173 0.043403
C19   C     C_R   0.940390 0.220613 0.463587 -0.061418
C20   C     C_R   0.059610 0.779376 0.536335 -0.061421
C21   C     C_R   0.890690 0.224029 0.459091 -0.036104
C22   C     C_R   0.109309 0.775958 0.540828 -0.036094
C23   C     C_R   0.407300 0.498602 0.502239 0.891586
C24   C     C_R   0.592700 0.501396 0.497760 0.891561
C25   C     C_R   0.043281 0.208692 0.381740 0.256308
C26   C     C_R   0.956720 0.791299 0.618198 0.256311
C27   C     C_2   0.497520 0.032437 0.426713 0.342735
C28   C     C_2   0.502480 0.967562 0.573288 0.342733
C29   C     C_R   0.173491 0.348186 0.475901 0.752140
C30   C     C_R   0.826509 0.651807 0.524076 0.752131
C31   C     C_R   0.180844 0.628681 0.529293 0.678336
C32   C     C_R   0.819156 0.371306 0.470635 0.678335
C33   C     C_R   0.282438 0.550623 0.676667 0.351365
C34   C     C_R   0.717562 0.449419 0.323293 0.351380
C35   C     C_R   0.332845 0.559241 0.673970 0.300960
C36   C     C_R   0.667154 0.440802 0.325995 0.300989
C37   C     C_R   0.323190 0.423137 0.344818 0.259293
C38   C     C_R   0.676814 0.576798 0.655202 0.259330
C39   C     C_R   0.273302 0.423282 0.348431 0.633734
C40   C     C_R   0.726702 0.576655 0.651574 0.633723
C41   C     C_R   0.252806 0.485938 0.512736 -0.030788
C42   C     C_R   0.747195 0.514053 0.487240 -0.030816
Cu1   Cu    Cu3+1 0.505380 0.517380 0.684380 1.276133
Cu2   Cu    Cu3+1 0.494620 0.482620 0.315620 1.276131
H1    H     H_    0.869086 0.114614 0.447101 0.242646
H2    H     H_    0.130914 0.885372 0.552814 0.242659
H3    H     H_    0.954573 0.110359 0.472207 0.213812
H4    H     H_    0.045427 0.889628 0.527710 0.213815
N1    N     N_R   0.201273 0.487749 0.509925 -0.432330
N2    N     N_R   0.798728 0.512242 0.490035 -0.432322
N3    N     N_2   0.486510 0.456430 0.038510 0.275734
N4    N     N_2   0.513490 0.543570 0.961490 0.275741
O1    O     O_R   0.503500 0.286120 0.619780 -0.539812
O2    O     O_R   0.496500 0.713880 0.380220 -0.539814
O3    O     O_R   0.494410 0.256780 0.308360 -0.511755
O4    O     O_R   0.505590 0.743220 0.691640 -0.511758
O5    O     O_R   0.434810 0.514700 0.655690 -0.527489
O6    O     O_R   0.565190 0.485300 0.344310 -0.527487
O7    O     O_R   0.425720 0.485350 0.344280 -0.534419
O8    O     O_R   0.574280 0.514650 0.655720 -0.534411
O9    O     O_2   0.194975 0.211366 0.457294 -0.381385
O10   O     O_2   0.805024 0.788630 0.542721 -0.381400
O11   O     O_2   0.790916 0.236392 0.448780 -0.435159
O12   O     O_2   0.209084 0.763589 0.551115 -0.435136
Cl1   Cl    Cl    0.344387 0.326108 0.132864 -0.320487
Cl2   Cl    Cl    0.655622 0.673754 0.867212 -0.320467
F1    F     F_    0.452858 0.358514 0.925094 -0.461944
F2    F     F_    0.547142 0.641487 0.074906 -0.461940
F3    F     F_    0.244187 0.361445 0.190449 -0.542552
F4    F     F_    0.755820 0.638439 0.809570 -0.542542
F5    F     F_    0.113298 0.067973 0.334137 -0.583837
F6    F     F_    0.886704 0.932020 0.665816 -0.583835
Cl3   Cl    Cl    0.632166 0.340610 0.119205 -0.358675
Cl4   Cl    Cl    0.367833 0.659494 0.880723 -0.358692
Cl5   Cl    Cl    0.744122 0.380630 0.113612 -0.360323
Cl6   Cl    Cl    0.255877 0.619473 0.886323 -0.360357
Cl7   Cl    Cl    0.012575 0.037644 0.233740 -0.490510
Cl8   Cl    Cl    0.987428 0.962350 0.766186 -0.490512
F7    F     F_    0.491292 0.944479 0.248306 -0.560785
F8    F     F_    0.508707 0.055521 0.751694 -0.560787

loop_
_geom_bond_atom_site_label_1
_geom_bond_atom_site_label_2
_ccdc_geom_bond_type
C35   Cl4   S    
C8    C26   A    
C14   C18   A    
C34   C42   A    
C39   C41   A    
C29   N1    A    
C23   O7    A    
C26   Cl8   S    
C40   F4    S    
C25   Cl7   S    
C19   C21   A    
C27   F7    S    
C7    F5    S    
C19   H3    S    
Cu1   N4    S    
Cu2   O7    S    
C3    C18   A    
C15   C17   A    
C11   C37   A    
C1    O1    A    
Cu1   O1    S    
C38   Cl2   S    
Cu2   O6    S    
C37   Cl1   S    
C12   C36   A    
C21   H1    S    
N4    F2    S    
C34   Cl5   S    
C40   C42   A    
C30   N2    A    
C31   N1    A    
C41   N1    S    
C5    C29   A    
C10   C21   A    
C29   O9    S    
C8    F6    S    
C13   C19   A    
N3    N4    D    
C14   C20   A    
C4    C6    A    
C2    O2    A    
C5    C7    A    
Cu1   O5    S    
C15   C26   A    
C6    C8    A    
Cu1   Cu2   S    
C3    C9    A    
C10   C32   A    
C33   Cl6   S    
C24   O8    A    
C39   F3    S    
N3    F1    S    
C32   N2    A    
C20   H4    S    
Cu1   O8    S    
C42   N2    S    
C4    C17   A    
Cu2   N3    S    
C24   O6    A    
C22   H2    S    
C20   C22   A    
C30   O10   S    
C4    C10   A    
C16   C25   A    
C23   O5    A    
C6    C30   A    
C31   O12   S    
C32   O11   S    
C3    C5    A    
C12   C24   S    
C7    C25   A    
C13   C17   A    
C33   C41   A    
C11   C35   A    
C1    O3    A    
C37   C39   A    
C2    O4    A    
C38   C40   A    
Cu2   O3    S    
C11   C23   S    
C33   C35   A    
C34   C36   A    
C12   C38   A    
C28   F8    S    
C36   Cl3   S    
C9    C31   A    
Cu2   O2    S    
Cu1   O4    S    
C16   C18   A    
C9    C22   A    
C13   C16   A    
C27   C28   D    
C1    C27   S    
C14   C15   A    
C2    C28   S    
