data_mof_unit_14942.cif
_audit_creation_date              2012-12-11T14:14:34-0500
_audit_creation_method            fapswitch 2.2
_symmetry_space_group_name_H-M    P1
_symmetry_Int_Tables_number       1
_space_group_crystal_system       triclinic
_cell_length_a                    24.417728
_cell_length_b                    17.345552
_cell_length_c                    15.646919
_cell_angle_alpha                 90.194079
_cell_angle_beta                  128.670803
_cell_angle_gamma                 89.866142
_cell_volume                      5174.05563663

loop_
_atom_site_label
_atom_site_type_symbol
_atom_type_description
_atom_site_fract_x
_atom_site_fract_y
_atom_site_fract_z
_atom_type_partial_charge
C1    C     C_R   0.342262 0.371951 0.221392 0.199030
C2    C     C_R   0.660206 0.376589 0.781961 0.216118
C3    C     C_R   0.839831 0.876516 0.218057 0.216621
C4    C     C_R   0.160577 0.877285 0.782856 0.215416
C5    C     C_R   0.407193 0.639145 0.591042 -0.160390
C6    C     C_R   0.592809 0.638994 0.409292 -0.159235
C7    C     C_R   0.908559 0.139912 0.591614 -0.148118
C8    C     C_R   0.092286 0.139581 0.409510 -0.163888
C9    C     C_R   0.353371 0.679345 0.499605 0.117011
C10   C     C_R   0.646583 0.679256 0.500873 0.115162
C11   C     C_R   0.854727 0.180306 0.500229 0.122297
C12   C     C_R   0.145204 0.180617 0.501284 0.115114
C13   C     C_R   0.359001 0.646545 0.156037 -0.243395
C14   C     C_R   0.641028 0.646089 0.844801 -0.243852
C15   C     C_R   0.858876 0.145868 0.155358 -0.246282
C16   C     C_R   0.148830 0.124985 0.864413 -0.119031
C17   C     C_2   0.651333 0.792314 0.413367 -0.126829
C18   C     C_2   0.348997 0.793637 0.586590 -0.128279
C19   C     C_2   0.150730 0.292427 0.412615 -0.124708
C20   C     C_2   0.849708 0.293792 0.587917 -0.110421
C21   C     C_2   0.680273 0.748675 0.502838 -0.191055
C22   C     C_2   0.319756 0.749051 0.497600 -0.192228
C23   C     C_2   0.178531 0.250490 0.503229 -0.186171
C24   C     C_2   0.821365 0.250318 0.498218 -0.198593
C25   C     C_2   0.195846 0.341584 0.404434 -0.096105
C26   C     C_2   0.804986 0.344563 0.595528 -0.090941
C27   C     C_2   0.695734 0.842517 0.404882 -0.091261
C28   C     C_2   0.304883 0.845071 0.594720 -0.088617
C29   C     C_2   0.254155 0.373296 0.493610 -0.177118
C30   C     C_2   0.746285 0.375225 0.505762 -0.180141
C31   C     C_2   0.754496 0.873320 0.494359 -0.184189
C32   C     C_2   0.245935 0.875325 0.504934 -0.185543
C33   C     C_2   0.664269 0.271452 0.896338 -0.178366
C34   C     C_2   0.346318 0.263726 0.115047 -0.188236
C35   C     C_2   0.165516 0.773344 0.899165 -0.176292
C36   C     C_2   0.835896 0.770542 0.104191 -0.177243
C37   C     C_2   0.704335 0.223993 0.888934 -0.005042
C38   C     C_2   0.306667 0.213681 0.119008 -0.008474
C39   C     C_2   0.204203 0.724807 0.890015 0.002528
C40   C     C_2   0.795740 0.723647 0.111731 -0.004566
C41   C     C_2   0.317950 0.696495 0.060634 0.640991
C42   C     C_2   0.681977 0.695783 0.940757 0.644198
C43   C     C_2   0.817968 0.195558 0.059653 0.643237
C44   C     C_2   0.195730 0.151570 0.979039 0.573616
C45   C     C_R   0.614651 0.397825 0.408048 0.527367
C46   C     C_R   0.385492 0.396967 0.591489 0.531888
C47   C     C_R   0.114344 0.897413 0.407816 0.530668
C48   C     C_R   0.885707 0.895666 0.591391 0.528308
C49   C     C_2   0.252609 0.673113 0.978917 -0.331682
C50   C     C_2   0.747256 0.672146 0.022305 -0.332084
C51   C     C_2   0.752453 0.172442 0.978253 -0.333339
C52   C     C_2   0.264781 0.158464 0.030255 -0.357090
C53   C     C_R   0.688372 0.401928 0.589485 -0.170161
C54   C     C_R   0.311768 0.400800 0.409693 -0.183797
C55   C     C_R   0.188359 0.902043 0.589259 -0.167973
C56   C     C_R   0.811738 0.901240 0.410173 -0.171030
C57   C     C_R   0.566874 0.369113 0.776204 -0.240468
C58   C     C_R   0.436814 0.366159 0.230140 -0.236050
C59   C     C_R   0.067644 0.870315 0.778053 -0.246568
C60   C     C_R   0.933268 0.868506 0.224109 -0.239382
C61   C     C_R   0.373908 0.331064 0.186098 0.075192
C62   C     C_R   0.631697 0.336781 0.822224 0.069704
C63   C     C_R   0.868423 0.836263 0.177994 0.068946
C64   C     C_R   0.132565 0.838231 0.824353 0.068746
C65   C     C_R   0.684493 0.386268 0.499851 -0.056760
C66   C     C_R   0.315731 0.384844 0.499337 -0.056784
C67   C     C_R   0.184297 0.886215 0.499447 -0.058587
C68   C     C_R   0.815922 0.884334 0.499602 -0.054299
C69   C     C_R   0.332476 0.638045 0.408420 -0.114627
C70   C     C_R   0.667468 0.638089 0.591896 -0.113375
C71   C     C_R   0.833175 0.138672 0.408788 -0.114016
C72   C     C_R   0.166009 0.139388 0.592404 -0.106851
C73   C     C_R   0.425242 0.617866 0.205739 0.493875
C74   C     C_R   0.574777 0.617531 0.794748 0.490319
C75   C     C_R   0.925175 0.117325 0.205410 0.490422
C76   C     C_R   0.078452 0.107001 0.803482 0.534818
C77   C     C_R   0.664259 0.616589 0.790905 -0.228761
C78   C     C_R   0.335772 0.616774 0.209566 -0.231780
C79   C     C_R   0.167866 0.104585 0.800492 -0.256200
C80   C     C_R   0.835678 0.116455 0.209156 -0.226668
H1    H     H_    0.733300 0.758802 0.577154 0.120447
H2    H     H_    0.266660 0.758958 0.423396 0.121395
H3    H     H_    0.230907 0.261708 0.578463 0.120105
H4    H     H_    0.768728 0.260932 0.423295 0.120897
H5    H     H_    0.187541 0.337645 0.327871 0.147556
H6    H     H_    0.813668 0.342100 0.672434 0.151435
H7    H     H_    0.686829 0.839569 0.327790 0.151425
H8    H     H_    0.314057 0.843212 0.672032 0.151424
H9    H     H_    0.258620 0.381006 0.566201 0.126992
H10   H     H_    0.741627 0.381475 0.432889 0.125709
H11   H     H_    0.759481 0.880149 0.567531 0.127985
H12   H     H_    0.240925 0.880975 0.431680 0.123243
H13   H     H_    0.232497 0.618375 0.982499 0.138871
H14   H     H_    0.767375 0.617551 0.017857 0.135714
H15   H     H_    0.731946 0.118302 0.982639 0.135156
H16   H     H_    0.288040 0.135148 0.995222 0.134592
H17   H     H_    0.709686 0.230864 0.825463 0.157780
H18   H     H_    0.297329 0.221476 0.177836 0.158765
H19   H     H_    0.208034 0.730542 0.824769 0.156653
H20   H     H_    0.790483 0.731134 0.175283 0.157959
H21   H     H_    0.657937 0.263753 0.958642 0.133020
H22   H     H_    0.357056 0.256176 0.057751 0.137139
H23   H     H_    0.160495 0.766707 0.963046 0.130932
H24   H     H_    0.842110 0.762271 0.041778 0.133095
H25   H     H_    0.736407 0.416185 0.668094 0.170173
H26   H     H_    0.263772 0.413315 0.329838 0.168658
H27   H     H_    0.236439 0.916419 0.667749 0.169001
H28   H     H_    0.763548 0.915510 0.331840 0.169733
H29   H     H_    0.532870 0.355841 0.795370 0.185660
H30   H     H_    0.472588 0.351944 0.214789 0.186083
H31   H     H_    0.034404 0.858117 0.798961 0.188661
H32   H     H_    0.967427 0.854616 0.205339 0.186001
H33   H     H_    0.289370 0.651735 0.324573 0.094290
H34   H     H_    0.710539 0.651853 0.675839 0.095305
H35   H     H_    0.790171 0.152667 0.324994 0.095065
H36   H     H_    0.207380 0.154124 0.677014 0.100743
H37   H     H_    0.717208 0.618733 0.818101 0.141847
H38   H     H_    0.282831 0.618951 0.182407 0.140223
H39   H     H_    0.220219 0.100269 0.825766 0.146600
H40   H     H_    0.782734 0.118633 0.182005 0.141522
H41   H     H_    0.431800 0.654132 0.674224 0.169918
H42   H     H_    0.568321 0.653792 0.326256 0.171383
H43   H     H_    0.934962 0.155437 0.675429 0.169619
H44   H     H_    0.067878 0.154287 0.326436 0.171066
H45   H     H_    0.599035 0.780047 0.338577 0.133224
H46   H     H_    0.401361 0.781553 0.661301 0.132747
H47   H     H_    0.099127 0.279074 0.337045 0.132202
H48   H     H_    0.901504 0.280913 0.663310 0.146249
N1    N     N_R   0.389060 0.424180 0.294540 -0.060322
N2    N     N_R   0.610940 0.424180 0.705460 -0.061936
N3    N     N_R   0.889060 0.924180 0.294540 -0.061923
N4    N     N_R   0.110940 0.924180 0.705460 -0.061881
N5    N     N_R   0.579670 0.423790 0.443360 -0.089534
N6    N     N_R   0.420330 0.423790 0.556640 -0.089551
N7    N     N_R   0.079670 0.923790 0.443360 -0.088720
N8    N     N_R   0.920330 0.923790 0.556640 -0.092247
N9    N     N_R   0.625470 0.423490 0.556600 -0.070829
N10   N     N_R   0.374530 0.423490 0.443400 -0.070335
N11   N     N_R   0.125470 0.923490 0.556600 -0.070197
N12   N     N_R   0.874530 0.923490 0.443400 -0.070069
N13   N     N_R   0.555250 0.423100 0.705420 -0.063797
N14   N     N_R   0.444750 0.423100 0.294580 -0.063711
N15   N     N_R   0.055250 0.923100 0.705420 -0.066695
N16   N     N_R   0.944750 0.923100 0.294580 -0.063289
N17   N     N_R   0.375210 0.577180 0.443400 -0.037229
N18   N     N_R   0.624790 0.577180 0.556600 -0.037334
N19   N     N_R   0.875210 0.077180 0.443400 -0.037028
N20   N     N_R   0.124790 0.077180 0.556600 -0.037599
N21   N     N_R   0.445430 0.577570 0.294580 -0.101110
N22   N     N_R   0.554570 0.577570 0.705420 -0.101719
N23   N     N_R   0.945430 0.077570 0.294580 -0.099281
N24   N     N_R   0.054570 0.077570 0.705420 -0.111243
N25   N     N_R   0.611620 0.576500 0.705460 -0.046846
N26   N     N_R   0.388380 0.576500 0.294540 -0.047406
N27   N     N_R   0.111620 0.076500 0.705460 -0.051976
N28   N     N_R   0.888380 0.076500 0.294540 -0.046175
N29   N     N_R   0.421010 0.576890 0.556640 -0.051683
N30   N     N_R   0.578990 0.576890 0.443360 -0.050489
N31   N     N_R   0.921010 0.076890 0.556640 -0.057210
N32   N     N_R   0.078990 0.076890 0.443360 -0.049637
Ni1   Ni    Ni4+2 0.383200 0.500680 0.370150 0.219645
Ni2   Ni    Ni4+2 0.616800 0.500680 0.629850 0.220254
Ni3   Ni    Ni4+2 0.883200 0.000680 0.370150 0.221855
Ni4   Ni    Ni4+2 0.116800 0.000680 0.629850 0.217252
Ni5   Ni    Ni4+2 0.512440 0.500680 0.370150 0.227815
Ni6   Ni    Ni4+2 0.487560 0.500680 0.629850 0.226315
Ni7   Ni    Ni4+2 0.012440 0.000680 0.370150 0.230331
Ni8   Ni    Ni4+2 0.987560 0.000680 0.629850 0.222391
I1    I     I_    0.232121 0.381842 0.129165 -0.446227
I2    I     I_    0.768196 0.395045 0.866831 -0.471492
I3    I     I_    0.731912 0.895860 0.132840 -0.474469
I4    I     I_    0.268523 0.895440 0.866778 -0.482708
O1    O     O_3   0.342345 0.767990 0.055641 -0.584349
C81   C     C_3   0.394973 0.799044 0.161232 0.310002
H49   H     H_    0.445611 0.768808 0.200077 0.119643
H50   H     H_    0.379602 0.795119 0.214851 0.064858
C82   C     C_3   0.406832 0.883746 0.152787 -0.846546
H51   H     H_    0.358452 0.917292 0.119097 0.265650
H52   H     H_    0.449807 0.906644 0.235417 0.195499
H53   H     H_    0.421933 0.890695 0.099431 0.280475
O2    O     O_3   0.657624 0.767358 0.946297 -0.585270
C83   C     C_3   0.604102 0.797925 0.840942 0.308957
H54   H     H_    0.553804 0.767365 0.803210 0.120397
H55   H     H_    0.618663 0.793986 0.786246 0.066998
C84   C     C_3   0.591746 0.882559 0.849464 -0.843685
H56   H     H_    0.639546 0.916605 0.881493 0.267566
H57   H     H_    0.547905 0.904816 0.767085 0.194802
H58   H     H_    0.577636 0.889592 0.904144 0.279859
O3    O     O_3   0.842775 0.266568 0.054040 -0.585280
C85   C     C_3   0.896041 0.297599 0.159390 0.307613
H59   H     H_    0.946397 0.266929 0.197627 0.121016
H60   H     H_    0.881199 0.294303 0.213738 0.069206
C86   C     C_3   0.908452 0.382031 0.150635 -0.838388
H61   H     H_    0.860617 0.416238 0.118266 0.267105
H62   H     H_    0.952198 0.404631 0.232988 0.197004
H63   H     H_    0.922714 0.388418 0.096123 0.279699
O4    O     O_3   0.166324 0.185378 0.022524 -0.565462
C87   C     C_3   0.176804 0.136773 0.104075 0.304863
H64   H     H_    0.229949 0.109881 0.157223 0.050698
H65   H     H_    0.137031 0.090080 0.065158 0.110352
C88   C     C_3   0.168330 0.183819 0.177457 -0.867249
H66   H     H_    0.115854 0.211600 0.127816 0.274620
H67   H     H_    0.173877 0.145782 0.239377 0.203947
H68   H     H_    0.209367 0.229103 0.220881 0.258109
O5    O     O_3   0.588254 0.406342 0.300012 -0.670928
C89   C     C_3   0.611766 0.347728 0.266317 0.240844
H69   H     H_    0.634784 0.296511 0.321380 0.086973
H70   H     H_    0.651093 0.373098 0.260697 0.119319
C90   C     C_3   0.551489 0.319173 0.151723 -0.978316
H71   H     H_    0.518713 0.368162 0.097868 0.265813
H72   H     H_    0.572778 0.288712 0.115555 0.232886
H73   H     H_    0.518399 0.277690 0.155164 0.244148
O6    O     O_3   0.412163 0.403813 0.699901 -0.671706
C91   C     C_3   0.388532 0.344299 0.731759 0.241880
H74   H     H_    0.365717 0.293583 0.675387 0.087808
H75   H     H_    0.349054 0.368859 0.737790 0.119598
C92   C     C_3   0.448707 0.314929 0.845617 -0.975731
H76   H     H_    0.480572 0.363762 0.901224 0.264804
H77   H     H_    0.427387 0.282382 0.880050 0.233203
H78   H     H_    0.482608 0.275155 0.841389 0.245445
O7    O     O_3   0.087175 0.904485 0.299237 -0.670754
C93   C     C_3   0.111100 0.845671 0.266495 0.241665
H79   H     H_    0.134554 0.794968 0.322496 0.089285
H80   H     H_    0.150089 0.871049 0.260108 0.113598
C94   C     C_3   0.050949 0.816017 0.152587 -0.976920
H81   H     H_    0.018481 0.864628 0.097345 0.263759
H82   H     H_    0.072345 0.784081 0.117585 0.231854
H83   H     H_    0.017609 0.775604 0.156936 0.246804
O8    O     O_3   0.912812 0.899219 0.700219 -0.677543
C95   C     C_3   0.889330 0.837675 0.729527 0.241177
H84   H     H_    0.866791 0.788116 0.671128 0.092919
H85   H     H_    0.849737 0.860347 0.736475 0.115595
C96   C     C_3   0.949555 0.806774 0.842278 -0.974957
H86   H     H_    0.980339 0.855030 0.900166 0.263068
H87   H     H_    0.928368 0.771131 0.874510 0.233195
H88   H     H_    0.984394 0.769610 0.836983 0.248727
O9    O     O_3   0.460518 0.623935 0.163227 -0.665392
C97   C     C_3   0.475855 0.550392 0.144210 0.243825
H89   H     H_    0.429653 0.529243 0.062602 0.111807
H90   H     H_    0.489505 0.507148 0.206729 0.142275
C98   C     C_3   0.538323 0.556967 0.144846 -0.832079
H91   H     H_    0.587670 0.562449 0.230137 0.250593
H92   H     H_    0.542034 0.504814 0.107499 0.219588
H93   H     H_    0.532842 0.608513 0.098318 0.261979
O10   O     O_3   0.539619 0.623141 0.837583 -0.665046
C99   C     C_3   0.523294 0.549380 0.853695 0.242388
H94   H     H_    0.570027 0.525451 0.932441 0.109647
H95   H     H_    0.506357 0.508279 0.787040 0.144358
C100  C     C_3   0.463187 0.556566 0.858721 -0.830282
H96   H     H_    0.413045 0.566440 0.775487 0.248118
H97   H     H_    0.458382 0.502830 0.891842 0.219430
H98   H     H_    0.472391 0.605783 0.911637 0.263067
O11   O     O_3   0.960495 0.122813 0.162937 -0.666971
C101  C     C_3   0.975175 0.049009 0.143539 0.267299
H99   H     H_    0.929381 0.029057 0.060784 0.108506
H100  H     H_    0.986980 0.005275 0.204372 0.138900
C102  C     C_3   0.039010 0.054277 0.147665 -0.881012
H101  H     H_    0.087628 0.057460 0.233946 0.253298
H102  H     H_    0.042080 0.002746 0.108626 0.225621
H103  H     H_    0.035779 0.106699 0.104458 0.262444
O12   O     O_3   0.040753 0.113536 0.841906 -0.638262
C103  C     C_3   0.015920 0.040866 0.843723 0.209534
H104  H     H_    0.059739 0.006250 0.913326 0.084925
H105  H     H_    0.991610 0.008543 0.767086 0.156222
C104  C     C_3   0.959766 0.052052 0.857017 -0.816806
H106  H     H_    0.910427 0.072818 0.779102 0.241533
H107  H     H_    0.949094 0.996664 0.879450 0.223117
H108  H     H_    0.977098 0.095377 0.921513 0.262281

loop_
_geom_bond_atom_site_label_1
_geom_bond_atom_site_label_2
_ccdc_geom_bond_type
C15   C75   A    
C76   O12   S    
C80   H40   S    
N5    N9    A    
C85   H59   S    
C69   N17   A    
C88   H66   S    
N26   Ni1   S    
C71   N19   A    
N8    N12   A    
N19   N31   A    
C90   H73   S    
C103  C104  S    
C37   H17   S    
C47   N7    A    
C57   C62   A    
C4    N4    A    
N13   Ni6   S    
O1    C81   S    
C70   H34   S    
C92   H78   S    
C7    C11   A    
N18   Ni2   S    
C97   C98   S    
C69   H33   S    
C59   C64   A    
O8    C95   S    
C23   H3    S    
C60   C63   A    
C3    N3    A    
C22   H2    S    
N11   Ni4   S    
C78   H38   S    
C9    C69   A    
C46   C66   A    
C77   H37   S    
N21   Ni5   S    
O12   C103  S    
C56   N12   A    
C82   H53   S    
C11   C71   A    
C9    C22   S    
N32   Ni7   S    
C38   C52   S    
C76   N24   A    
N22   Ni6   S    
C5    H41   S    
C11   C24   S    
C94   H83   S    
C55   N11   A    
N31   Ni8   S    
C95   C96   S    
C98   H91   S    
N20   N32   A    
C14   C77   A    
C41   C49   D    
N2    N13   A    
C83   H54   S    
C56   H28   S    
C101  H100  S    
C85   C86   S    
C94   H82   S    
C81   H49   S    
C58   H30   S    
C57   H29   S    
C20   C24   D    
N28   Ni3   S    
C75   N23   A    
C33   C62   S    
C86   H62   S    
N22   N25   A    
C79   H39   S    
C28   H8    S    
C59   H31   S    
N6    Ni6   S    
C52   H16   S    
C87   H64   S    
C70   N18   A    
C26   H6    S    
C36   C63   S    
C53   C65   A    
C104  H106  S    
C16   C44   S    
C38   H18   S    
C14   C42   S    
C77   N25   A    
N2    Ni2   S    
N4    N15   A    
C47   O7    S    
C1    N1    A    
C59   N15   A    
C44   O4    S    
C42   O2    S    
C34   C38   D    
O9    C97   S    
C88   H67   S    
N14   Ni5   S    
O4    C87   S    
N7    Ni7   S    
C28   C32   D    
C47   C67   A    
C6    N30   A    
C80   N28   A    
N29   Ni6   S    
C97   H90   S    
N4    Ni4   S    
N23   Ni7   S    
C10   C21   S    
C25   C29   D    
C31   C68   S    
C96   H87   S    
C99   H95   S    
C100  H97   S    
C54   H26   S    
N16   Ni7   S    
C27   C31   D    
C60   N16   A    
C17   C27   S    
O6    C91   S    
C36   C40   D    
C18   C28   S    
C7    H43   S    
C74   O10   S    
C89   H69   S    
C78   N26   A    
C84   H58   S    
C103  H105  S    
N1    N14   A    
N8    Ni8   S    
C101  C102  S    
C82   H52   S    
C92   H76   S    
O5    C89   S    
C71   H35   S    
C34   C61   S    
C33   C37   D    
C55   H27   S    
N12   Ni3   S    
C83   C84   S    
N20   Ni4   S    
C54   N10   A    
O2    C83   S    
N17   Ni1   S    
C19   C23   D    
N21   N26   A    
C17   H45   S    
C73   O9    S    
C101  H99   S    
C60   H32   S    
N5    Ni5   S    
C46   N6    A    
O7    C93   S    
N17   N29   A    
C58   N14   A    
C39   H19   S    
C15   C80   A    
C12   C23   S    
N24   N27   A    
N3    Ni3   S    
C8    C12   A    
C46   O6    S    
C87   C88   S    
C25   H5    S    
C90   H71   S    
C100  H96   S    
N1    Ni1   S    
C40   C50   S    
C34   H22   S    
N23   N28   A    
C48   C68   A    
C95   H85   S    
C104  H107  S    
C81   C82   S    
C104  H108  S    
C33   H21   S    
C35   C64   S    
C42   C50   D    
C32   C67   S    
C54   C66   A    
C48   O8    S    
C10   C70   A    
C8    H44   S    
C39   C49   S    
C2    I2    S    
C26   C30   D    
C5    N29   A    
C3    I3    S    
C45   C65   A    
C30   C65   S    
C88   H68   S    
C53   N9    A    
C6    H42   S    
C8    N32   A    
C14   C74   A    
O11   C101  S    
C102  H101  S    
C96   H86   S    
O3    C85   S    
C41   O1    S    
C97   H89   S    
C93   H80   S    
C100  H98   S    
C45   O5    S    
C4    I4    S    
C73   N21   A    
C72   H36   S    
C16   C76   A    
C45   N5    A    
C85   H60   S    
C48   N8    A    
C50   H14   S    
C31   H11   S    
C13   C73   A    
C87   H65   S    
C75   O11   S    
C91   C92   S    
C1    C61   A    
C44   C52   D    
N6    N10   A    
C55   C67   A    
C21   H1    S    
C20   H48   S    
C103  H104  S    
N18   N30   A    
C3    C63   A    
N27   Ni4   S    
C92   H77   S    
C4    C64   A    
C49   H13   S    
C35   H23   S    
C93   C94   S    
C57   N13   A    
N25   Ni2   S    
C36   H24   S    
C102  H103  S    
C56   C68   A    
C98   H93   S    
C99   H94   S    
C18   C22   D    
C24   H4    S    
C15   C43   S    
C95   H84   S    
C72   N20   A    
N9    Ni2   S    
C27   H7    S    
C86   H63   S    
C89   C90   S    
C43   C51   D    
C84   H56   S    
C32   H12   S    
C82   H51   S    
C20   C26   S    
C58   C61   A    
C37   C51   S    
C35   C39   D    
C91   H74   S    
C1    I1    S    
C2    N2    A    
C81   H50   S    
N7    N11   A    
N10   Ni1   S    
C91   H75   S    
N24   Ni8   S    
C12   C72   A    
C93   H79   S    
C19   C25   S    
C96   H88   S    
C83   H55   S    
N15   Ni8   S    
C16   C79   A    
C84   H57   S    
C6    C10   A    
C13   C78   A    
C79   N27   A    
C29   C66   S    
C53   H25   S    
C7    N31   A    
C43   O3    S    
C86   H61   S    
C102  H102  S    
C90   H72   S    
C13   C41   S    
C74   N22   A    
N19   Ni3   S    
C5    C9    A    
C29   H9    S    
C98   H92   S    
O10   C99   S    
C89   H70   S    
C40   H20   S    
C19   H47   S    
C30   H10   S    
C18   H46   S    
N3    N16   A    
C2    C62   A    
N30   Ni5   S    
C51   H15   S    
C94   H81   S    
C99   C100  S    
C17   C21   D    
