data_mof_unit_66789.cif
_audit_creation_date              2013-03-05T15:41:05-0500
_audit_creation_method            fapswitch 2.2
_symmetry_space_group_name_H-M    P1
_symmetry_Int_Tables_number       1
_space_group_crystal_system       triclinic
_cell_length_a                    9.115995
_cell_length_b                    14.840252
_cell_length_c                    15.257815
_cell_angle_alpha                 94.995816
_cell_angle_beta                  98.409579
_cell_angle_gamma                 92.791211
_cell_volume                      2030.225984

loop_
_atom_site_label
_atom_site_type_symbol
_atom_site_description
_atom_site_fract_x
_atom_site_fract_y
_atom_site_fract_z
_atom_type_partial_charge
P1    P     P_3+3 0.947560 0.714050 0.560480 0.676166
O1    O     O_2   0.113690 0.728200 0.532750 -0.225045
O2    O     O_3   0.871900 0.612110 0.540440 -0.284698
O3    O     O_3   0.325660 0.668890 0.372600 -0.270811
O4    O     O_2   0.274933 0.833703 0.447804 -0.306562
O5    O     O_3   0.980298 0.757092 0.677936 -0.547738
O6    O     O_3   0.322954 0.835081 0.284727 -0.483594
H1    H     H_    0.237345 0.720279 0.202548 0.079541
C1    C     C_3   0.326550 0.821399 0.124240 0.520479
P2    P     P_3+3 0.325150 0.423860 0.297970 0.653698
P3    P     P_3+3 0.853133 0.606453 0.214071 0.686301
O7    O     O_2   0.147570 0.451710 0.282630 -0.234631
O8    O     O_3   0.905540 0.621350 0.329600 -0.285129
O9    O     O_2   0.972594 0.549155 0.177868 -0.309561
O10   O     O_3   0.315722 0.309351 0.246845 -0.529225
O11   O     O_3   0.888097 0.711682 0.173382 -0.463093
C2    C     C_3   0.863503 0.783931 0.234943 0.706249
H2    H     H_    0.762740 0.770608 0.264292 0.084075
C3    C     C_3   0.855363 0.874529 0.192722 -0.040684
H3    H     H_    0.968718 0.904352 0.192515 0.173109
C4    C     C_3   0.774237 0.285086 0.250200 0.594788
C5    C     C_3   0.776055 0.223436 0.160894 0.153637
H4    H     H_    0.665063 0.192224 0.138514 0.057613
Ba1   Ba    Ba6+2 0.142880 0.544780 0.454020 1.863426
C6    C     C_3   0.028460 0.702083 0.748610 0.037775
C7    C     C_3   0.021425 0.753131 0.844986 -0.111469
C8    C     C_3   0.276852 0.228398 0.284130 -0.015252
C9    C     C_3   0.272495 0.146738 0.209492 0.476687
P4    P     P_3+3 0.862730 0.285940 0.439440 0.681811
O12   O     O_2   0.696600 0.271740 0.467230 -0.346578
O13   O     O_3   0.938380 0.387880 0.459490 -0.218608
O14   O     O_3   0.484630 0.331100 0.627330 -0.260936
O15   O     O_3   0.827824 0.238362 0.324713 -0.529609
P5    P     P_3+3 0.967161 0.384387 0.786870 0.601868
O16   O     O_3   0.389110 0.548970 0.605210 -0.188947
O17   O     O_3   0.904740 0.378630 0.670330 -0.308007
O18   O     O_2   0.847028 0.432913 0.831284 -0.269131
O19   O     O_3   0.945844 0.277385 0.825001 -0.522991
Ba2   Ba    Ba6+2 0.667290 0.455210 0.545900 1.898592
P6    P     P_3+3 0.376535 0.788306 0.386385 0.681700
C10   C     C_3   0.331572 0.772282 0.210409 0.650699
O20   O     O_3   0.421180 0.451020 0.394720 -0.321645
C11   C     C_3   0.515669 0.758645 0.691119 0.694008
C12   C     C_3   0.480817 0.857935 0.724464 -0.147565
P7    P     P_3+3 0.490788 0.574413 0.717470 0.702387
O21   O     O_2   0.662730 0.548230 0.717350 -0.294447
O22   O     O_3   0.493414 0.693905 0.753447 -0.536391
C13   C     C_3   0.963046 0.205418 0.761510 0.693154
H5    H     H_    0.050106 0.221183 0.721182 0.042714
C14   C     C_3   0.999282 0.121517 0.812209 -0.655126
H6    H     H_    0.110575 0.136011 0.852115 0.206012
P8    P     P_3+3 0.431989 0.212450 0.613395 0.638883
C15   C     C_3   0.480416 0.207681 0.791099 1.083677
O23   O     O_2   0.533376 0.171498 0.550024 -0.257065
O24   O     O_3   0.495458 0.159761 0.709003 -0.536098
C16   C     C_3   0.498875 0.138121 0.861108 -0.608189
H7    H     H_    0.596426 0.100218 0.849519 0.118334
C17   C     C_R   0.013929 0.942155 0.536425 0.002730
C18   C     C_R   0.830443 0.801539 0.500427 0.123656
C19   C     C_R   0.682782 0.770447 0.460909 0.160780
C20   C     C_R   0.574755 0.829220 0.432916 0.143335
C21   C     C_R   0.613217 0.921328 0.441364 -0.194283
C22   C     C_R   0.760610 0.958024 0.472097 -0.019646
C23   C     C_R   0.870444 0.899446 0.504563 -0.087504
C24   C     C_R   0.939287 0.097203 0.499623 -0.178921
C25   C     C_R   0.048503 0.038263 0.534998 0.006287
C26   C     C_R   0.981144 0.195646 0.498321 0.157529
C27   C     C_R   0.132552 0.225088 0.530652 0.079304
C28   C     C_R   0.235772 0.167386 0.567741 0.183353
C29   C     C_R   0.194279 0.074952 0.567897 -0.278364
C30   C     C_R   0.797482 0.052128 0.465559 0.624259
H8    H     H_    0.523588 0.964045 0.422268 0.250674
H9    H     H_    0.277364 0.030970 0.594671 0.181190
H10   H     H_    0.101069 0.900595 0.561697 0.208424
C31   C     C_R   0.242418 0.475837 0.770841 0.127945
C32   C     C_R   0.157406 0.443055 0.831996 0.117986
C33   C     C_R   0.221886 0.447230 0.923657 -0.215176
C34   C     C_R   0.370450 0.488226 0.955015 0.173389
C35   C     C_R   0.453297 0.508335 0.885367 -0.143231
C36   C     C_R   0.389943 0.510690 0.796458 0.123346
C37   C     C_R   0.591066 0.546850 0.085701 0.328674
C38   C     C_R   0.659209 0.549904 0.175742 0.108232
C39   C     C_R   0.424278 0.489434 0.217684 0.214536
C40   C     C_R   0.358541 0.490033 0.127531 -0.208273
C41   C     C_R   0.441477 0.507267 0.056316 0.020285
C42   C     C_R   0.578047 0.515697 0.239029 0.174448
H11   H     H_    0.240701 0.476239 0.115957 0.160391
H12   H     H_    0.571059 0.514977 0.894343 0.221480
C43   C     C_2   0.807272 0.273969 0.082828 0.550335
H13   H     H_    0.742954 0.331266 0.065544 0.062671
O25   O     O_2   0.900937 0.251398 0.037640 -0.496589
Cl1   Cl    Cl    0.869513 0.122481 0.171227 -0.470354
C44   C     C_2   0.180870 0.679462 0.744676 0.502053
H14   H     H_    0.261447 0.679768 0.804320 0.063588
O26   O     O_2   0.211504 0.652584 0.673280 -0.474232
C45   C     C_2   0.945024 0.612495 0.739444 0.614113
H15   H     H_    0.933447 0.566957 0.679855 0.112917
O27   O     O_2   0.896373 0.586427 0.802969 -0.487925
C46   C     C_2   0.129772 0.834620 0.869234 0.649184
H16   H     H_    0.247097 0.825173 0.876509 0.150411
O28   O     O_2   0.090079 0.910338 0.887253 -0.525104
Cl2   Cl    Cl    0.076255 0.680496 0.932095 -0.519972
C47   C     C_2   0.866837 0.781450 0.853199 0.817527
H17   H     H_    0.833147 0.845733 0.831666 -0.042293
O29   O     O_2   0.778367 0.733377 0.883673 -0.419122
C48   C     C_2   0.130623 0.231487 0.311528 0.650282
H18   H     H_    0.066848 0.170508 0.320575 0.099683
O30   O     O_2   0.091136 0.303710 0.336745 -0.497042
C49   C     C_2   0.377204 0.213895 0.367165 0.457851
H19   H     H_    0.438855 0.270627 0.407195 0.108029
O31   O     O_2   0.371368 0.140454 0.397113 -0.511432
C50   C     C_2   0.176251 0.853293 0.094038 0.459438
H20   H     H_    0.162448 0.922532 0.078078 0.149248
O32   O     O_2   0.067614 0.800537 0.082934 -0.546005
Cl3   Cl    Cl    0.160901 0.169336 0.109361 -0.433382
Cl4   Cl    Cl    0.202075 0.040759 0.240716 -0.539364
C51   C     C_2   0.418573 0.130948 0.180382 0.689689
H21   H     H_    0.435258 0.141384 0.113288 0.054780
O33   O     O_2   0.517980 0.101105 0.228858 -0.454137
Cl5   Cl    Cl    0.498001 0.714810 0.223273 -0.715706
Cl6   Cl    Cl    0.379551 0.750027 0.035093 -0.478266
C52   C     C_2   0.668892 0.758361 0.675274 0.234517
H22   H     H_    0.741742 0.819170 0.682714 0.040176
O34   O     O_2   0.709977 0.687314 0.647179 -0.512541
Cl7   Cl    Cl    0.412486 0.730719 0.585029 -0.489299
C53   C     C_2   0.548081 0.882832 0.821009 0.607150
H23   H     H_    0.627728 0.940270 0.840261 0.044884
O35   O     O_2   0.514875 0.838267 0.879436 -0.460664
C54   C     C_2   0.529374 0.927008 0.664471 0.387408
H24   H     H_    0.482955 0.920035 0.594514 0.098864
O36   O     O_2   0.616996 0.991272 0.692557 -0.521516
Cl8   Cl    Cl    0.286794 0.869900 0.713728 -0.709748
Cl9   Cl    Cl    0.453690 0.917037 0.140726 -0.501907
Cl10  Cl    Cl    0.771792 0.951149 0.261702 -0.472920
Cl11  Cl    Cl    0.801227 0.182206 0.681962 -0.548751
C55   C     C_2   0.005769 0.038414 0.749159 0.751825
H25   H     H_    0.096892 0.033646 0.712149 -0.018197
O37   O     O_2   0.910710 0.976150 0.738880 -0.545924
C56   C     C_2   0.895448 0.106601 0.878866 0.933643
H26   H     H_    0.819292 0.157330 0.893102 0.028865
O38   O     O_2   0.903073 0.041205 0.922191 -0.540606
Cl12  Cl    Cl    0.310959 0.259883 0.792752 -0.765618
Cl13  Cl    Cl    0.619296 0.296775 0.818876 -0.530639
C57   C     C_2   0.373194 0.067232 0.847067 0.569616
H27   H     H_    0.326773 0.042479 0.779908 0.067048
O39   O     O_2   0.326690 0.035113 0.909515 -0.503428
C58   C     C_2   0.526727 0.177791 0.956082 0.718266
H28   H     H_    0.591039 0.139509 0.003227 -0.011235
O40   O     O_2   0.473417 0.247743 0.980801 -0.500774
Cl14  Cl    Cl    0.010624 0.800218 0.325126 -0.563015
Cl15  Cl    Cl    0.618305 0.658041 0.454238 -0.445805
Cl16  Cl    Cl    0.210304 0.331114 0.512245 -0.513091
Cl17  Cl    Cl    0.671353 0.102670 0.394047 -0.459586
Cl18  Cl    Cl    0.694075 0.608264 0.019075 -0.404125
C59   C     C_2   0.141504 0.392468 0.978979 0.709973
H29   H     H_    0.025936 0.402840 0.983886 0.064005
O41   O     O_2   0.202858 0.332369 0.016741 -0.439511
Cl19  Cl    Cl    0.676689 0.498604 0.343064 -0.492169
Cl20  Cl    Cl    0.163945 0.465107 0.659625 -0.531958
C60   C     C_2   0.774668 0.872201 0.099305 0.857570
H30   H     H_    0.775721 0.933321 0.065129 0.055288
O42   O     O_2   0.708021 0.803754 0.060797 -0.408145
C61   C     C_2   0.620775 0.308430 0.251609 0.340410
H31   H     H_    0.580508 0.318201 0.314043 0.082629
O43   O     O_2   0.545466 0.324418 0.182242 -0.627387
Cl21  Cl    Cl    0.872493 0.387304 0.246326 -0.569851

loop_
_geom_bond_atom_site_label_1
_geom_bond_atom_site_label_2
_geom_bond_distance
_ccdc_geom_bond_type
C6    C44   1.453598 S    
C44   H14   1.082202 S    
C4    C61   1.460230 S    
P2    O20   1.609959 S    
P5    O18   1.544663 D    
Ba1   O20   3.160208 S    
C13   Cl11  1.766874 S    
C3    H3    1.104695 S    
C40   H11   1.069508 S    
C11   C12   1.579007 S    
C11   Cl7   1.754011 S    
C50   O32   1.214385 D    
C37   C38   1.418492 A    
C33   C34   1.453523 A    
C3    Cl10  1.758265 S    
C12   C53   1.517023 S    
C18   C23   1.474379 A    
C21   C22   1.421890 A    
C3    C60   1.502053 S    
C58   O40   1.220929 D    
C15   Cl12  1.763983 S    
C9    C51   1.486853 S    
C51   O33   1.210150 D    
O3    Ba1   2.901201 S    
P3    O9    1.548676 D    
O5    C6    1.439358 S    
C4    O15   1.421196 S    
C48   H18   1.081650 S    
C30   Cl17  1.713102 S    
P4    O15   1.806633 S    
P2    C39   1.926125 S    
Ba1   Ba2   4.906074 S    
C16   H7    1.102664 S    
P1    O1    1.639682 D    
O14   Ba2   2.900623 S    
C50   H20   1.085431 S    
P8    C28   1.889414 S    
C9    Cl4   1.798396 S    
C58   H28   1.078957 S    
P4    C26   1.958262 S    
C40   C41   1.444825 A    
C17   C25   1.448337 A    
O14   P8    1.788443 S    
O3    P6    1.796224 S    
O11   C2    1.411296 S    
C24   C26   1.494408 A    
C45   O27   1.208358 D    
C1    Cl6   1.787892 S    
O6    P6    1.767822 S    
C43   O25   1.215097 D    
C31   C36   1.404339 A    
O19   C13   1.408624 S    
P8    O24   1.752151 S    
C7    C46   1.507899 S    
C56   O38   1.220053 D    
C1    C50   1.493352 S    
C13   C14   1.546241 S    
O2    Ba2   2.926408 S    
C18   C19   1.428995 A    
C44   O26   1.203302 D    
P5    O19   1.749787 S    
C4    C5    1.576393 S    
O2    Ba1   3.130950 S    
C20   C21   1.384714 A    
C35   H12   1.060781 S    
P8    O23   1.540202 D    
C2    H2    1.096083 S    
Ba2   O20   2.967460 S    
P7    O22   1.808008 S    
P3    C38   1.907630 S    
C17   C23   1.424265 A    
C59   H29   1.084457 S    
Ba1   O16   2.968262 S    
C26   C27   1.429644 A    
C32   C33   1.430451 A    
C57   O39   1.221621 D    
C14   C56   1.509875 S    
C27   C28   1.394994 A    
C8    C48   1.455829 S    
P2    Ba1   3.514754 S    
C12   C54   1.523904 S    
C38   C42   1.412541 A    
C4    Cl21  1.733683 S    
P1    O5    1.826035 S    
O8    Ba1   2.998325 S    
C19   C20   1.392280 A    
C15   Cl13  1.764388 S    
C19   Cl15  1.730886 S    
C60   O42   1.215594 D    
O16   Ba2   3.159315 S    
C31   C32   1.400627 A    
P4    O12   1.640132 D    
C27   Cl16  1.756016 S    
C9    Cl3   1.774636 S    
C7    C47   1.509442 S    
P3    O11   1.761805 S    
P6    C20   1.892264 S    
O10   C8    1.424418 S    
C39   C40   1.418746 A    
C45   H15   1.073532 S    
P4    Ba2   3.562949 S    
C29   H9    1.081961 S    
C14   H6    1.105236 S    
C21   H8    1.080423 S    
C47   O29   1.219425 D    
H1    C10   1.112197 S    
C59   O41   1.218230 D    
C42   Cl19  1.751416 S    
C11   C52   1.452115 S    
P2    O7    1.678500 D    
C6    C45   1.484468 S    
Ba2   O21   2.856395 S    
C34   C41   1.581607 S    
C55   O37   1.219162 D    
C13   H5    1.101388 S    
C46   O28   1.218207 D    
C22   C30   1.435822 A    
O1    Ba1   2.918500 S    
C35   C36   1.398595 A    
C15   O24   1.413558 S    
C52   O34   1.200992 D    
O16   P7    1.823306 S    
C8    C9    1.583916 S    
C17   H10   1.076872 S    
C54   H24   1.083274 S    
C15   C16   1.546393 S    
C31   Cl20  1.733034 S    
C53   O35   1.218964 D    
C61   O43   1.222637 D    
P2    O10   1.799705 S    
C34   C35   1.434129 A    
O17   Ba2   2.999130 S    
C55   H25   1.072324 S    
C56   H26   1.078165 S    
C12   Cl8   1.771330 S    
O7    Ba1   2.856100 S    
C1    C10   1.553872 S    
C46   H16   1.076323 S    
C57   H27   1.075397 S    
C60   H30   1.085230 S    
C16   C58   1.496707 S    
P1    C18   1.929042 S    
C6    C7    1.605812 S    
Ba1   O13   2.925832 S    
P4    O13   1.616743 S    
C24   C30   1.430858 A    
C51   H21   1.079803 S    
C33   C59   1.467064 S    
P3    O8    1.749239 S    
C25   C29   1.414639 A    
C48   O30   1.196926 D    
C53   H23   1.083394 S    
C49   O31   1.219714 D    
C2    C3    1.541022 S    
C5    C43   1.515279 S    
O13   Ba2   3.131741 S    
O12   Ba2   2.919070 S    
P7    C36   1.905200 S    
P5    O17   1.779250 S    
O6    C10   1.417612 S    
C10   Cl5   1.770832 S    
C28   C29   1.405367 A    
C37   C41   1.450140 A    
C61   H31   1.070819 S    
C37   Cl18  1.761555 S    
C22   C23   1.420658 A    
C16   C57   1.495605 S    
P7    O21   1.633354 D    
C39   C42   1.419169 A    
C8    C49   1.488619 S    
P1    Ba1   3.562291 S    
C24   C25   1.434396 A    
O4    P6    1.547452 D    
C47   H17   1.079789 S    
C52   H22   1.081681 S    
C5    Cl1   1.766761 S    
C5    H4    1.086579 S    
C14   C55   1.505655 S    
P1    O2    1.616769 S    
C43   H13   1.085681 S    
C49   H19   1.077807 S    
C11   O22   1.437077 S    
C7    Cl2   1.812697 S    
P5    C32   1.907636 S    
C54   O36   1.218899 D    
C2    Cl14  1.766693 S    
C1    Cl9   1.764461 S    
