data_mof_unit_27722.cif
_audit_creation_date              2012-12-10T17:05:42-0500
_audit_creation_method            fapswitch 2.2
_symmetry_space_group_name_H-M    P1
_symmetry_Int_Tables_number       1
_space_group_crystal_system       triclinic
_cell_length_a                    25.760318
_cell_length_b                    26.003885
_cell_length_c                    18.286162
_cell_angle_alpha                 90.535533
_cell_angle_beta                  134.973989
_cell_angle_gamma                 90.097809
_cell_volume                      8664.53240243

loop_
_atom_site_label
_atom_site_type_symbol
_atom_type_description
_atom_site_fract_x
_atom_site_fract_y
_atom_site_fract_z
_atom_type_partial_charge
C1    C     C_R   0.889609 0.749851 0.779895 0.918923
C2    C     C_R   0.499867 0.295198 0.554727 -0.153846
C3    C     C_R   0.291309 0.526992 0.487044 0.286842
C4    C     C_R   0.865411 0.547471 0.684413 0.447182
C5    C     C_R   0.890446 0.457736 0.626499 0.460547
C6    C     C_R   0.365501 0.047464 0.684376 0.446467
C7    C     C_R   0.390444 0.957723 0.626358 0.459243
C8    C     C_R   0.937041 0.527082 0.752328 0.039619
C9    C     C_R   0.950469 0.483903 0.720149 0.018371
C10   C     C_R   0.437129 0.027075 0.752208 0.041919
C11   C     C_R   0.450503 0.983887 0.719977 0.015622
C12   C     C_R   0.818137 0.475236 0.567065 -0.109226
C13   C     C_R   0.951019 0.297350 0.457926 -0.237832
C14   C     C_R   0.809627 0.525726 0.584144 -0.107620
C15   C     C_R   0.318149 0.975232 0.566996 -0.108371
C16   C     C_R   0.309666 0.025723 0.584114 -0.108582
C17   C     C_R   0.747153 0.553146 0.498700 -0.125101
C18   C     C_R   0.753672 0.446204 0.485917 -0.115097
C19   C     C_R   0.247161 0.053144 0.498713 -0.125588
C20   C     C_R   0.253665 0.946202 0.485894 -0.115142
C21   C     C_R   0.688541 0.526077 0.405184 0.152535
C22   C     C_R   0.689377 0.472428 0.401934 0.168058
C23   C     C_R   0.188511 0.026075 0.405221 0.151898
C24   C     C_R   0.999903 0.795180 0.554788 -0.153951
C25   C     C_R   0.189349 0.972427 0.401958 0.167698
C26   C     C_R   0.752864 0.890398 0.504157 0.905542
C27   C     C_R   0.748454 0.109933 0.497802 0.970313
C28   C     C_R   0.252749 0.390343 0.503991 0.891905
C29   C     C_R   0.249282 0.609946 0.498703 0.908442
C30   C     C_R   0.890360 0.750476 0.501032 0.976843
C31   C     C_R   0.889827 0.250262 0.499576 0.901976
C32   C     C_R   0.390358 0.250474 0.501028 0.976534
C33   C     C_R   0.389815 0.750276 0.499556 0.896913
C34   C     C_R   0.608897 0.751058 0.497774 1.030240
C35   C     C_R   0.507674 0.798673 0.461070 -0.159881
C36   C     C_R   0.610744 0.250523 0.501128 1.039142
C37   C     C_R   0.108931 0.251020 0.497844 1.033588
C38   C     C_R   0.110741 0.750519 0.501122 1.040607
C39   C     C_R   0.518680 0.844449 0.430200 0.423313
C40   C     C_R   0.607122 0.336817 0.604133 0.411733
C41   C     C_R   0.017254 0.343847 0.427262 0.406238
C42   C     C_R   0.107205 0.836770 0.604278 0.411705
C43   C     C_R   0.480741 0.889757 0.411092 0.199232
C44   C     C_R   0.600162 0.379278 0.645042 0.237273
C45   C     C_R   0.978092 0.388879 0.405701 0.205196
C46   C     C_R   0.555201 0.295209 0.554980 -0.181022
C47   C     C_R   0.100316 0.879202 0.645323 0.236741
C48   C     C_R   0.421832 0.887377 0.402270 0.337834
C49   C     C_R   0.548492 0.377778 0.650900 0.258007
C50   C     C_R   0.919340 0.386444 0.397209 0.349331
C51   C     C_R   0.048639 0.877702 0.651167 0.255936
C52   C     C_3   0.251355 0.610944 0.796191 -0.662604
C53   C     C_3   0.254697 0.115009 0.879088 -0.739173
C54   C     C_3   0.750829 0.111292 0.797257 -0.672855
C55   C     C_3   0.754206 0.615570 0.878909 -0.737758
C56   C     C_3   0.645531 0.567677 0.252457 -0.724264
C57   C     C_R   0.006998 0.298367 0.459700 -0.160208
C58   C     C_3   0.562954 0.442269 0.287158 -0.658964
C59   C     C_3   0.145330 0.067680 0.252392 -0.722294
C60   C     C_3   0.062939 0.942259 0.287319 -0.660631
C61   C     C_3   0.023457 0.598263 0.846838 -0.723448
C62   C     C_3   0.045414 0.422493 0.840707 -0.699280
C63   C     C_3   0.523559 0.098252 0.846589 -0.728426
C64   C     C_3   0.545444 0.922470 0.840510 -0.703135
C65   C     C_3   0.511379 0.661406 0.660383 -0.807428
C66   C     C_3   0.336748 0.172261 0.312265 -0.818805
C67   C     C_3   0.011880 0.162076 0.661960 -0.782442
C68   C     C_R   0.055241 0.795186 0.555048 -0.181104
C69   C     C_3   0.836711 0.672331 0.312137 -0.819220
C70   C     C_3   0.432650 0.601989 0.162725 -0.751745
C71   C     C_3   0.419485 0.123316 0.170407 -0.753188
C72   C     C_3   0.932732 0.102621 0.163534 -0.756499
C73   C     C_3   0.918833 0.623850 0.170068 -0.752795
C74   C     C_R   0.550096 0.753378 0.492395 -0.093719
C75   C     C_R   0.557380 0.252960 0.506794 -0.075396
C76   C     C_R   0.050137 0.253329 0.492475 -0.093526
C77   C     C_R   0.886463 0.253633 0.779940 0.807733
C78   C     C_R   0.057382 0.752955 0.506796 -0.076490
C79   C     C_R   0.538969 0.708818 0.522683 0.341418
C80   C     C_R   0.508220 0.211284 0.461904 0.345296
C81   C     C_R   0.039608 0.208990 0.523961 0.339358
C82   C     C_R   0.008208 0.711287 0.461880 0.346310
C83   C     C_R   0.485053 0.708469 0.523579 0.095062
C84   C     C_R   0.453927 0.211043 0.462129 0.069207
C85   C     C_R   0.985627 0.208623 0.524725 0.090670
C86   C     C_R   0.953906 0.711054 0.462088 0.069582
C87   C     C_R   0.442931 0.752666 0.493692 -0.078888
C88   C     C_R   0.389596 0.249839 0.779897 0.914917
C89   C     C_R   0.449185 0.252881 0.506251 -0.071330
C90   C     C_R   0.942959 0.252628 0.493742 -0.081394
C91   C     C_R   0.949187 0.752882 0.506250 -0.071771
C92   C     C_R   0.486428 0.669899 0.087269 -0.201037
C93   C     C_R   0.464809 0.208093 0.107534 -0.276927
C94   C     C_R   0.986303 0.170020 0.087350 -0.200313
C95   C     C_R   0.964568 0.708418 0.107439 -0.275996
C96   C     C_R   0.420579 0.642999 0.033278 0.104879
C97   C     C_R   0.395952 0.187356 0.055544 0.203364
C98   C     C_R   0.920369 0.143308 0.033585 0.106404
C99   C     C_R   0.386454 0.753639 0.779937 0.805398
C100  C     C_R   0.895627 0.687824 0.055394 0.203005
C101  C     C_R   0.354678 0.662851 0.939899 0.158064
C102  C     C_R   0.340687 0.185857 0.947274 0.125182
C103  C     C_R   0.854503 0.163234 0.940281 0.160194
C104  C     C_R   0.840411 0.686275 0.947129 0.125611
C105  C     C_R   0.610531 0.748243 0.219192 0.809016
C106  C     C_R   0.609709 0.249446 0.220002 0.802943
C107  C     C_R   0.110536 0.248239 0.219194 0.809813
C108  C     C_R   0.109683 0.749425 0.219998 0.806687
C109  C     C_R   0.357038 0.707144 0.898956 0.460997
C110  C     C_R   0.405415 0.841414 0.421343 0.415525
C111  C     C_R   0.355617 0.204101 0.890483 0.349219
C112  C     C_R   0.856959 0.207349 0.899060 0.460772
C113  C     C_R   0.855457 0.704344 0.890392 0.347894
C114  C     C_R   0.426082 0.728075 0.945169 -0.134315
C115  C     C_R   0.425696 0.226908 0.943899 -0.015116
C116  C     C_R   0.926054 0.228138 0.945189 -0.133608
C117  C     C_R   0.925604 0.727041 0.943852 -0.016702
C118  C     C_R   0.489046 0.715174 0.047816 0.012493
C119  C     C_R   0.480717 0.227760 0.053626 -0.012003
C120  C     C_R   0.989007 0.215221 0.047837 0.012534
C121  C     C_R   0.498048 0.336355 0.605405 0.426108
C122  C     C_R   0.980597 0.727914 0.053580 -0.011369
C123  C     C_R   0.552098 0.747796 0.105726 -0.134588
C124  C     C_R   0.551602 0.247105 0.107757 -0.101324
C125  C     C_R   0.052124 0.247770 0.105727 -0.135160
C126  C     C_R   0.051569 0.747088 0.107745 -0.103134
C127  C     C_R   0.554617 0.786434 0.055512 -0.202386
C128  C     C_R   0.568543 0.264890 0.055228 -0.185199
C129  C     C_R   0.054720 0.286340 0.055500 -0.201008
C130  C     C_R   0.068599 0.764700 0.055236 -0.184758
C131  C     C_R   0.497333 0.792933 0.950085 0.448037
C132  C     C_R   0.904081 0.340795 0.418690 0.411137
C133  C     C_R   0.515632 0.266614 0.948522 0.400291
C134  C     C_R   0.997438 0.292849 0.950081 0.448175
C135  C     C_R   0.015706 0.766440 0.948534 0.404282
C136  C     C_R   0.434982 0.760378 0.892289 -0.220974
C137  C     C_R   0.443755 0.247993 0.891986 -0.175172
C138  C     C_R   0.935014 0.260367 0.892296 -0.221689
C139  C     C_R   0.943757 0.747986 0.891976 -0.176312
C140  C     C_R   0.723307 0.956609 0.612403 0.433659
C141  C     C_R   0.655739 0.048629 0.505448 0.352865
C142  C     C_R   0.219355 0.455713 0.607167 0.312688
C143  C     C_R   0.998108 0.836327 0.605506 0.426180
C144  C     C_R   0.154859 0.548474 0.502522 0.303616
C145  C     C_R   0.673470 0.980286 0.611635 0.335606
C146  C     C_R   0.637676 0.025672 0.555164 0.239273
C147  C     C_R   0.166843 0.478612 0.601097 0.449179
C148  C     C_R   0.133604 0.524385 0.547437 0.288752
C149  C     C_R   0.710523 0.026566 0.515156 -0.168188
C150  C     C_R   0.731418 0.975655 0.548219 -0.182957
C151  C     C_R   0.211159 0.526570 0.515129 -0.089349
C152  C     C_R   0.230937 0.475459 0.547063 -0.244459
C153  C     C_R   0.749212 0.609701 0.500600 0.916697
C154  C     C_R   0.451661 0.797654 0.459215 -0.240124
C155  C     C_R   0.750941 0.390064 0.494939 0.879512
C156  C     C_R   0.249214 0.109700 0.500608 0.916523
C157  C     C_R   0.250939 0.890063 0.494931 0.879854
C158  C     C_R   0.759679 0.947039 0.515339 -0.100284
C159  C     C_R   0.745418 0.053761 0.492944 -0.093789
C160  C     C_R   0.259871 0.446866 0.515409 -0.176016
C161  C     C_R   0.248449 0.553795 0.496652 -0.154149
C162  C     C_R   0.787182 0.973363 0.481332 0.317305
C163  C     C_R   0.786647 0.027500 0.480648 0.295431
C164  C     C_R   0.290538 0.473042 0.486019 0.429955
H1    H     H_    0.601142 0.812643 0.098367 0.196016
H2    H     H_    0.472767 0.147945 0.377952 0.339813
H3    H     H_    0.949062 0.866957 0.642620 0.391259
H4    H     H_    0.470183 0.629336 0.522280 0.253164
H5    H     H_    0.571307 0.659517 0.709490 0.240248
H6    H     H_    0.494107 0.626648 0.673825 0.243449
H7    H     H_    0.499863 0.695743 0.683420 0.246999
H8    H     H_    0.428139 0.132646 0.441346 0.248067
H9    H     H_    0.347926 0.171975 0.263689 0.248259
H10   H     H_    0.307658 0.208153 0.298198 0.248775
H11   H     H_    0.300309 0.139091 0.289112 0.243072
H12   H     H_    0.971577 0.129477 0.524746 0.246520
H13   H     H_    0.082839 0.143071 0.595051 0.340623
H14   H     H_    0.071874 0.160267 0.711472 0.232223
H15   H     H_    0.994570 0.127430 0.675607 0.251310
H16   H     H_    0.000036 0.196547 0.684278 0.244696
H17   H     H_    0.928036 0.632666 0.441209 0.249821
H18   H     H_    0.847929 0.672068 0.263608 0.248208
H19   H     H_    0.807636 0.708226 0.298096 0.248609
H20   H     H_    0.800243 0.639166 0.288904 0.243423
H21   H     H_    0.381460 0.569696 0.020170 0.237017
H22   H     H_    0.438168 0.563528 0.193374 0.237116
H23   H     H_    0.384834 0.621680 0.140010 0.240252
H24   H     H_    0.972798 0.647918 0.378016 0.339233
H25   H     H_    0.483418 0.624613 0.225168 0.257404
H26   H     H_    0.387424 0.198125 0.158062 0.236278
H27   H     H_    0.397547 0.108596 0.201082 0.236217
H28   H     H_    0.479074 0.131554 0.236239 0.258364
H29   H     H_    0.411751 0.092973 0.120172 0.247478
H30   H     H_    0.880871 0.070220 0.020761 0.236334
H31   H     H_    0.938076 0.064217 0.194223 0.236269
H32   H     H_    0.885194 0.122572 0.141203 0.239745
H33   H     H_    0.983729 0.125085 0.225821 0.258031
H34   H     H_    0.887158 0.698758 0.157942 0.235940
H35   H     H_    0.282904 0.622110 0.936076 0.224791
H36   H     H_    0.896877 0.609253 0.200787 0.235910
H37   H     H_    0.978456 0.631966 0.235824 0.258018
H38   H     H_    0.910926 0.593466 0.119752 0.247939
H39   H     H_    0.285408 0.577115 0.815867 0.208454
H40   H     H_    0.196305 0.597132 0.758990 0.254479
H41   H     H_    0.244281 0.635099 0.739900 0.284136
H42   H     H_    0.226816 0.191249 0.832684 0.235143
H43   H     H_    0.261856 0.100177 0.829543 0.237799
H44   H     H_    0.197540 0.106732 0.839957 0.233930
H45   H     H_    0.623371 0.279277 0.098065 0.169968
H46   H     H_    0.292245 0.094508 0.953518 0.265968
H47   H     H_    0.782771 0.123136 0.937267 0.223107
H48   H     H_    0.784733 0.077330 0.817081 0.210137
H49   H     H_    0.695843 0.097658 0.760567 0.248173
H50   H     H_    0.743591 0.135139 0.740524 0.286916
H51   H     H_    0.726561 0.691817 0.832445 0.235055
H52   H     H_    0.761419 0.600620 0.829486 0.237924
H53   H     H_    0.697000 0.607406 0.839666 0.234324
H54   H     H_    0.791621 0.595084 0.953350 0.265689
H55   H     H_    0.301926 0.767671 0.817395 0.327562
H56   H     H_    0.101301 0.312496 0.098341 0.196676
H57   H     H_    0.265952 0.173023 0.759685 0.350369
H58   H     H_    0.801970 0.267858 0.817290 0.327212
H59   H     H_    0.765742 0.673281 0.759605 0.350256
H60   H     H_    0.454613 0.848459 0.854226 0.337644
H61   H     H_    0.494019 0.293826 0.829487 0.332088
H62   H     H_    0.954839 0.348408 0.854340 0.337378
H63   H     H_    0.994207 0.793594 0.829556 0.334732
H64   H     H_    0.812075 0.965765 0.403224 0.347020
H65   H     H_    0.869050 0.034995 0.495733 0.346427
H66   H     H_    0.338839 0.467803 0.438610 0.385869
H67   H     H_    0.123485 0.778957 0.098087 0.170163
H68   H     H_    0.357291 0.582622 0.525782 0.337515
H69   H     H_    0.764091 0.913454 0.730422 0.380352
H70   H     H_    0.565597 0.086757 0.407166 0.357656
H71   H     H_    0.314973 0.424289 0.707398 0.349033
H72   H     H_    0.065816 0.587765 0.404155 0.353642
H73   H     H_    0.625762 0.978408 0.660301 0.390223
H74   H     H_    0.588442 0.085797 0.545820 0.369756
H75   H     H_    0.170609 0.423935 0.676966 0.373935
H76   H     H_    0.083696 0.583798 0.538386 0.356309
H77   H     H_    0.598643 0.575991 0.310712 0.255003
H78   H     H_    0.535606 0.652832 0.157196 0.195597
H79   H     H_    0.681827 0.602277 0.289088 0.210408
H80   H     H_    0.593425 0.576948 0.172567 0.236764
H81   H     H_    0.672272 0.536303 0.247568 0.256157
H82   H     H_    0.640395 0.413677 0.289755 0.243814
H83   H     H_    0.518570 0.423029 0.210928 0.229814
H84   H     H_    0.543665 0.480959 0.284689 0.234473
H85   H     H_    0.573716 0.419370 0.347600 0.252881
H86   H     H_    0.098581 0.075972 0.310856 0.254732
H87   H     H_    0.181615 0.102286 0.288963 0.209859
H88   H     H_    0.093179 0.076945 0.172535 0.237479
H89   H     H_    0.505842 0.208530 0.191170 0.170344
H90   H     H_    0.172035 0.036312 0.247423 0.256099
H91   H     H_    0.140304 0.913689 0.289739 0.244020
H92   H     H_    0.018527 0.923015 0.211104 0.229741
H93   H     H_    0.043655 0.980944 0.284883 0.234144
H94   H     H_    0.073759 0.919357 0.347803 0.252376
H95   H     H_    0.887521 0.592394 0.790444 0.360031
H96   H     H_    0.953627 0.418119 0.623152 0.364892
H97   H     H_    0.387712 0.092386 0.790484 0.359875
H98   H     H_    0.453557 0.918085 0.622904 0.360967
H99   H     H_    0.036004 0.526916 0.908185 0.243898
H100  H     H_    0.035457 0.152886 0.157195 0.195433
H101  H     H_    0.049836 0.590092 0.819538 0.235635
H102  H     H_    0.064887 0.615950 0.925392 0.243745
H103  H     H_    0.978724 0.626315 0.794395 0.282201
H104  H     H_    0.063105 0.496406 0.819217 0.251188
H105  H     H_    0.044946 0.430515 0.900025 0.249461
H106  H     H_    0.101766 0.411503 0.880303 0.247054
H107  H     H_    0.007861 0.389692 0.790598 0.281653
H108  H     H_    0.536159 0.026920 0.908017 0.243415
H109  H     H_    0.549865 0.090063 0.819187 0.233031
H110  H     H_    0.565042 0.115945 0.925132 0.243735
H111  H     H_    0.005571 0.708869 0.191073 0.171153
H112  H     H_    0.478819 0.126305 0.794185 0.283014
H113  H     H_    0.563132 0.996359 0.818916 0.245990
H114  H     H_    0.545067 0.930532 0.899910 0.250479
H115  H     H_    0.601762 0.911444 0.880006 0.245638
H116  H     H_    0.507842 0.889676 0.790456 0.283177
H117  H     H_    0.563481 0.876954 0.388540 0.372556
H118  H     H_    0.700461 0.363444 0.657323 0.372088
H119  H     H_    0.062279 0.376069 0.385684 0.374528
H120  H     H_    0.200551 0.863380 0.657460 0.372130
H121  H     H_    0.490797 0.964197 0.422875 0.372272
H122  H     H_    0.581256 0.642376 0.591872 0.342451
H123  H     H_    0.618288 0.453046 0.669159 0.356018
H124  H     H_    0.985960 0.463438 0.413064 0.380219
H125  H     H_    0.118574 0.952951 0.669703 0.353967
H126  H     H_    0.871475 0.448529 0.316268 0.336992
H127  H     H_    0.098026 0.929762 0.760320 0.357448
H128  H     H_    0.375820 0.950600 0.324835 0.337825
H129  H     H_    0.597764 0.429947 0.759840 0.356996
H130  H     H_    0.311852 0.810430 0.347300 0.299285
H131  H     H_    0.449212 0.366880 0.642937 0.389101
H132  H     H_    0.810860 0.309645 0.345795 0.298940
N1    N     N_2   0.285340 0.640361 0.888751 -0.278896
N2    N     N_2   0.023723 0.467644 0.779435 -0.321362
N3    N     N_2   0.495421 0.051189 0.850317 -0.325519
N4    N     N_2   0.523737 0.967605 0.779193 -0.330622
N5    N     N_2   0.471148 0.663557 0.552188 -0.303802
N6    N     N_2   0.404439 0.168423 0.420552 -0.317808
N7    N     N_2   0.972000 0.163797 0.553878 -0.294966
N8    N     N_2   0.904373 0.668456 0.420433 -0.317138
N9    N     N_2   0.422043 0.596034 0.074134 -0.308345
N10   N     N_2   0.381051 0.169601 0.112570 -0.279227
N11   N     N_2   0.921698 0.096463 0.074602 -0.307225
N12   N     N_2   0.268562 0.169891 0.896311 -0.297051
N13   N     N_2   0.880622 0.670202 0.112358 -0.279355
N14   N     N_2   0.785116 0.141044 0.889592 -0.278216
N15   N     N_2   0.768226 0.670440 0.896104 -0.297258
N16   N     N_2   0.630004 0.551428 0.310891 -0.283216
N17   N     N_2   0.628492 0.446278 0.307920 -0.277827
N18   N     N_2   0.129917 0.051424 0.310960 -0.283247
N19   N     N_2   0.128430 0.946281 0.307967 -0.276840
N20   N     N_2   0.995285 0.551188 0.850469 -0.325894
O1    O     O_3   0.750020 0.750020 0.500000 -0.515597
O2    O     O_R   0.750010 0.134170 0.560720 -0.635026
O3    O     O_R   0.250010 0.365830 0.560720 -0.611927
O4    O     O_R   0.250010 0.634170 0.560720 -0.619015
O5    O     O_R   0.896180 0.719660 0.731600 -0.634543
O6    O     O_R   0.896180 0.280340 0.731600 -0.635450
O7    O     O_R   0.396180 0.219660 0.731600 -0.633261
O8    O     O_R   0.396180 0.780340 0.731600 -0.635382
O9    O     O_R   0.664580 0.780370 0.268400 -0.649930
O10   O     O_R   0.664580 0.219630 0.268400 -0.638849
O11   O     O_R   0.164580 0.280370 0.268400 -0.649094
O12   O     O_3   0.750020 0.249980 0.500000 -0.514734
O13   O     O_R   0.164580 0.719630 0.268400 -0.633902
O14   O     O_R   0.835450 0.780390 0.731600 -0.593922
O15   O     O_R   0.835450 0.219610 0.731600 -0.618204
O16   O     O_R   0.335450 0.280390 0.731600 -0.597241
O17   O     O_R   0.335450 0.719610 0.731600 -0.620437
O18   O     O_R   0.603870 0.719650 0.268400 -0.661706
O19   O     O_R   0.603870 0.280350 0.268400 -0.645895
O20   O     O_R   0.103870 0.219650 0.268400 -0.661655
O21   O     O_R   0.103870 0.780350 0.268400 -0.646060
O22   O     O_R   0.810750 0.634210 0.560720 -0.605433
O23   O     O_3   0.250020 0.250020 0.500000 -0.513476
O24   O     O_R   0.810750 0.365790 0.560720 -0.583985
O25   O     O_R   0.310750 0.134210 0.560720 -0.605629
O26   O     O_R   0.310750 0.865790 0.560720 -0.583078
O27   O     O_R   0.750010 0.865820 0.439280 -0.586080
O28   O     O_R   0.750010 0.134180 0.439280 -0.593539
O29   O     O_R   0.250010 0.365820 0.439280 -0.578519
O30   O     O_R   0.250010 0.634180 0.439280 -0.626853
O31   O     O_R   0.896180 0.719650 0.560720 -0.636584
O32   O     O_R   0.896180 0.280350 0.560720 -0.601964
O33   O     O_R   0.396180 0.219650 0.560720 -0.637461
O34   O     O_3   0.250020 0.749980 0.500000 -0.510522
O35   O     O_R   0.396180 0.780350 0.560720 -0.600731
O36   O     O_R   0.664570 0.780390 0.560720 -0.591022
O37   O     O_R   0.664570 0.219610 0.560720 -0.593363
O38   O     O_R   0.164570 0.280390 0.560720 -0.587996
O39   O     O_R   0.164570 0.719610 0.560720 -0.591552
O40   O     O_R   0.835460 0.780370 0.439280 -0.621339
O41   O     O_R   0.835460 0.219630 0.439280 -0.634392
O42   O     O_R   0.335460 0.280370 0.439280 -0.621080
O43   O     O_R   0.335460 0.719630 0.439280 -0.641631
O44   O     O_R   0.603860 0.719660 0.439280 -0.625464
O45   O     O_R   0.689310 0.634210 0.439280 -0.671444
O46   O     O_R   0.603860 0.280340 0.439280 -0.634109
O47   O     O_R   0.103860 0.219660 0.439280 -0.625909
O48   O     O_R   0.103860 0.780340 0.439280 -0.634310
O49   O     O_3   0.583856 0.667062 0.553844 -0.784656
O50   O     O_3   0.514616 0.172211 0.416698 -0.812803
O51   O     O_3   0.085037 0.167444 0.556219 -0.786398
O52   O     O_3   0.014608 0.672213 0.416679 -0.813855
O53   O     O_3   0.291386 0.731409 0.819950 -0.712755
O54   O     O_3   0.303337 0.199168 0.783882 -0.766314
O55   O     O_3   0.791360 0.231637 0.819946 -0.713087
O56   O     O_R   0.689310 0.365790 0.439280 -0.651622
O57   O     O_3   0.803243 0.699314 0.783807 -0.767888
O58   O     O_3   0.503522 0.832451 0.907062 -0.770234
O59   O     O_3   0.537063 0.287333 0.903624 -0.742201
O60   O     O_3   0.003695 0.332312 0.907051 -0.769789
O61   O     O_3   0.037228 0.787012 0.903661 -0.739521
O62   O     O_3   0.816851 0.945615 0.453419 -0.734072
O63   O     O_3   0.826522 0.055500 0.469779 -0.753167
O64   O     O_3   0.324864 0.444998 0.465569 -0.725332
O65   O     O_3   0.334442 0.552094 0.479113 -0.755841
O66   O     O_3   0.773495 0.921474 0.687811 -0.710470
O67   O     O_R   0.189310 0.134210 0.439280 -0.671811
O68   O     O_3   0.616737 0.089706 0.440201 -0.758379
O69   O     O_3   0.267594 0.421945 0.686839 -0.729727
O70   O     O_3   0.117367 0.590213 0.438702 -0.748359
O71   O     O_3   0.662090 0.958427 0.668182 -0.767964
O72   O     O_3   0.589230 0.048279 0.555322 -0.798829
O73   O     O_3   0.149411 0.458673 0.651436 -0.696276
O74   O     O_3   0.084220 0.546145 0.546412 -0.730712
O75   O     O_3   0.847039 0.586276 0.714952 -0.747710
O76   O     O_3   0.901013 0.420627 0.583341 -0.672741
O77   O     O_3   0.347183 0.086262 0.715000 -0.747672
O78   O     O_R   0.189310 0.865790 0.439280 -0.651934
O79   O     O_3   0.400956 0.920595 0.583164 -0.672631
O80   O     O_3   0.566539 0.844444 0.419075 -0.777456
O81   O     O_3   0.664187 0.335690 0.610961 -0.782911
O82   O     O_3   0.065625 0.343815 0.417056 -0.776006
O83   O     O_3   0.164249 0.835645 0.611061 -0.783235
O84   O     O_3   0.501755 0.935451 0.399736 -0.777106
O85   O     O_3   0.644551 0.422000 0.678319 -0.776635
O86   O     O_3   0.997786 0.434362 0.391685 -0.777231
O87   O     O_3   0.144780 0.921895 0.678745 -0.777283
O88   O     O_3   0.872143 0.427001 0.361300 -0.690437
O89   O     O_R   0.750010 0.865830 0.560720 -0.586301
O90   O     O_3   0.047764 0.915459 0.704032 -0.763729
O91   O     O_3   0.375544 0.928330 0.368185 -0.692423
O92   O     O_3   0.547530 0.415591 0.703597 -0.761580
O93   O     O_3   0.340663 0.840064 0.395597 -0.687092
O94   O     O_3   0.448715 0.334392 0.613876 -0.769532
O95   O     O_3   0.839687 0.339351 0.393866 -0.689203
O96   O     O_3   0.948717 0.834400 0.613869 -0.767698
Zn1   Zn    Zn3+2 0.663270 0.706640 0.413250 0.991115
Zn2   Zn    Zn3+2 0.750020 0.206610 0.413240 1.022893
Zn3   Zn    Zn3+2 0.250020 0.293390 0.413240 1.022193
Zn4   Zn    Zn3+2 0.250020 0.706610 0.413240 1.006728
Zn5   Zn    Zn3+2 0.750010 0.793400 0.586760 1.088751
Zn6   Zn    Zn3+2 0.750010 0.206600 0.586760 1.029281
Zn7   Zn    Zn3+2 0.250010 0.293400 0.586760 1.080443
Zn8   Zn    Zn3+2 0.250010 0.706600 0.586760 1.026944
Zn9   Zn    Zn3+2 0.663270 0.293360 0.413250 0.997742
Zn10  Zn    Zn3+2 0.163270 0.206640 0.413250 0.992509
Zn11  Zn    Zn3+2 0.163270 0.793360 0.413250 1.000371
Zn12  Zn    Zn3+2 0.836780 0.706640 0.586750 1.027031
Zn13  Zn    Zn3+2 0.836780 0.293360 0.586750 1.028627
Zn14  Zn    Zn3+2 0.336780 0.206640 0.586750 1.025204
Zn15  Zn    Zn3+2 0.336780 0.793360 0.586750 1.026225
Zn16  Zn    Zn3+2 0.750020 0.793390 0.413240 1.019832

loop_
_geom_bond_atom_site_label_1
_geom_bond_atom_site_label_2
_ccdc_geom_bond_type
H73   O71   S    
C94   H100  S    
H58   O55   S    
H74   O72   S    
C69   N8    S    
C144  O70   S    
O12   Zn9   S    
H72   O70   S    
C35   C154  A    
C17   C153  S    
C145  C146  A    
C135  C139  A    
C97   N10   S    
C113  O57   S    
C57   C76   A    
C58   H83   S    
C144  C151  A    
H64   O62   S    
O43   Zn4   S    
H77   N16   S    
C64   H115  S    
O23   Zn14  S    
C100  C104  A    
C104  N15   S    
O12   Zn2   S    
O36   Zn5   S    
C105  C123  S    
C60   H94   S    
C156  O25   A    
C61   H103  S    
C33   O43   A    
C99   O8    A    
C151  C161  A    
C64   N4    S    
C71   H28   S    
H118  O81   S    
H30   N11   S    
C6    O77   S    
C7    C15   A    
O47   Zn10  S    
C153  O45   A    
C105  O18   A    
C21   C22   A    
H59   O57   S    
C107  O20   A    
C117  C139  A    
C155  O24   A    
C111  O54   S    
O7    Zn14  S    
C15   C20   A    
C53   N12   S    
O31   Zn12  S    
C77   C138  S    
C5    C12   A    
C120  C125  A    
C38   C78   S    
C72   H32   S    
C73   H37   S    
C17   C21   A    
O26   Zn15  S    
C67   N7    S    
C103  C112  A    
O10   Zn2   S    
C140  C145  A    
C19   C23   A    
C101  N1    S    
O1    Zn1   S    
O34   Zn15  S    
C147  O73   S    
C78   C82   A    
H91   N19   S    
C156  O67   A    
O32   Zn13  S    
H63   O61   S    
C31   C90   S    
H120  O83   S    
C58   N17   S    
H108  N3    S    
C9    N2    S    
C3    C164  A    
C62   H106  S    
C84   N6    S    
C95   C122  A    
C85   N7    S    
O48   Zn11  S    
C37   O47   A    
C86   N8    S    
C74   C79   A    
O89   Zn5   S    
C40   C46   A    
O34   Zn8   S    
C2    C121  A    
C54   H50   S    
C98   N11   S    
O42   Zn3   S    
H61   O59   S    
O14   Zn5   S    
C85   C90   A    
C51   C143  A    
O11   Zn3   S    
O25   Zn14  S    
C109  O53   S    
C65   H6    S    
C52   H39   S    
C108  O21   A    
C88   O16   A    
C45   C50   A    
O67   Zn10  S    
C33   O35   A    
C29   O30   A    
C13   C132  A    
C99   C136  S    
C26   C158  S    
C93   H89   S    
C4    C14   A    
C127  C131  A    
C6    C16   A    
O39   Zn8   S    
C125  C129  A    
O23   Zn3   S    
O37   Zn6   S    
C106  C124  S    
C126  C130  A    
C66   H10   S    
C108  C126  S    
O35   Zn15  S    
C34   O44   A    
C82   O52   S    
C48   C110  A    
H62   O60   S    
C147  C148  A    
O44   Zn1   S    
O4    Zn8   S    
C163  O63   S    
O3    Zn7   S    
O13   Zn4   S    
O1    Zn5   S    
C129  H56   S    
H57   O54   S    
H51   N15   S    
H86   N18   S    
C13   C57   A    
C24   C143  A    
C27   C159  S    
C92   C96   A    
H119  O82   S    
C92   C118  A    
H75   O73   S    
H104  N2    S    
C49   O92   S    
C72   H33   S    
C94   C120  A    
C63   H109  S    
C61   N20   S    
C115  C137  A    
C64   H114  S    
C38   O39   A    
C21   N16   S    
C3    O65   S    
O28   Zn2   S    
C56   N16   S    
H95   O75   S    
C54   H48   S    
C56   H80   S    
H21   N9    S    
C14   C17   A    
C71   N10   S    
O20   Zn10  S    
C46   C75   A    
C83   N5    S    
C38   O48   A    
C27   O28   A    
O23   Zn10  S    
H131  O94   S    
C52   H41   S    
H70   O68   S    
C107  C125  S    
O24   Zn13  S    
C24   C68   A    
C65   N5    S    
H121  O84   S    
H68   O65   S    
C116  C120  A    
H76   O74   S    
O78   Zn11  S    
C117  C122  A    
C5    C9    A    
C36   C75   S    
C96   N9    S    
H2    O50   S    
O18   Zn1   S    
C123  C127  A    
C106  O10   A    
C49   C121  A    
C22   N17   S    
O21   Zn11  S    
C162  O62   S    
O1    Zn16  S    
C88   O7    A    
C109  C114  A    
C69   H19   S    
C113  C117  A    
C135  O61   S    
C115  C119  A    
C59   H87   S    
H66   O64   S    
C93   C97   A    
C112  C116  A    
C132  O95   S    
H8    N6    S    
C106  O19   A    
C41   C45   A    
C148  O74   S    
C18   C22   A    
C142  C147  A    
C81   O51   S    
C34   O36   A    
C142  O69   S    
O34   Zn11  S    
H128  O91   S    
H97   O77   S    
C36   O37   A    
C145  O71   S    
C102  N12   S    
C56   H81   S    
C146  O72   S    
C58   H84   S    
C33   C87   S    
C157  O78   A    
C43   O84   S    
C64   H116  S    
C61   H102  S    
C10   C11   A    
C70   H22   S    
C36   O46   A    
C104  C113  A    
H123  O85   S    
C41   O82   S    
H47   N14   S    
C58   H85   S    
C93   C119  A    
C71   H27   S    
C8    N20   S    
C83   C87   A    
C35   C74   A    
C140  C150  A    
C13   C90   A    
C130  C135  A    
C133  C137  A    
C80   C84   A    
C102  C111  A    
C55   H53   S    
O5    Zn12  S    
O38   Zn7   S    
O15   Zn6   S    
C160  C164  A    
C86   C91   A    
C32   O42   A    
C71   H29   S    
O40   Zn16  S    
C20   C25   A    
C94   C98   A    
C101  C109  A    
C98   C103  A    
C73   H36   S    
C53   H44   S    
C95   H111  S    
C142  C152  A    
H98   O79   S    
C55   N15   S    
C2    C89   A    
H125  O87   S    
H126  O88   S    
C26   O89   A    
C30   O31   A    
C151  C152  A    
H35   N1    S    
C55   H54   S    
C73   N13   S    
C97   C102  A    
C1    C139  S    
C4    C8    A    
C62   H107  S    
C124  C128  A    
C96   C101  A    
C7    O79   S    
C19   C156  S    
C143  O96   S    
C3    C161  A    
H69   O66   S    
H60   O58   S    
O29   Zn3   S    
C68   C78   A    
O33   Zn14  S    
C28   O3    A    
H117  O80   S    
C59   N18   S    
C31   O32   A    
C80   O50   S    
C42   O83   S    
C95   C100  A    
C47   C51   A    
C82   C86   A    
C141  O68   S    
C67   H14   S    
C112  O55   S    
H17   N8    S    
C65   H5    S    
C52   H40   S    
O9    Zn16  S    
C60   H93   S    
C5    O76   S    
C35   C39   A    
C54   N14   S    
C70   N9    S    
H26   N10   S    
H113  N4    S    
C32   C89   S    
H3    O96   S    
C155  O56   A    
C60   H92   S    
C87   C154  A    
O19   Zn9   S    
C50   C132  A    
C141  C146  A    
C34   C74   S    
C1    O14   A    
C31   O41   A    
C37   C76   S    
O41   Zn2   S    
C20   C157  S    
H4    N5    S    
C66   H11   S    
H129  O92   S    
C162  C163  A    
C66   N6    S    
C150  C158  A    
C63   N3    S    
C51   O90   S    
C26   O27   A    
C6    C10   A    
C1    O5    A    
C28   O29   A    
H24   O52   S    
C73   H38   S    
C67   H16   S    
O1    Zn12  S    
O12   Zn13  S    
C131  C136  A    
C29   O4    A    
C41   C57   A    
C67   H15   S    
C149  C150  A    
C79   C83   A    
C100  N13   S    
C157  O26   A    
C99   O17   A    
C16   C19   A    
C118  C123  A    
C153  O22   A    
C88   C137  S    
C121  O94   S    
C79   O49   S    
C62   H105  S    
C129  C134  A    
C63   H112  S    
O12   Zn6   S    
H130  O93   S    
C128  C133  A    
C18   C155  S    
C70   H25   S    
C44   C49   A    
C54   H49   S    
C152  C160  A    
C27   O2    A    
C23   N18   S    
H34   N13   S    
C28   C160  S    
C144  C148  A    
C72   H31   S    
C44   O85   S    
C141  C149  A    
C11   N4    S    
O22   Zn12  S    
C119  C124  A    
C2    C46   A    
C7    C11   A    
C65   H7    S    
C4    O75   S    
C77   O15   A    
C128  H45   S    
O8    Zn15  S    
H124  O86   S    
C15   C16   A    
C50   O88   S    
C39   O80   S    
C72   N11   S    
C92   H78   S    
O45   Zn1   S    
C8    C9    A    
C77   O6    A    
H132  O95   S    
C108  O13   A    
H127  O90   S    
C47   O87   S    
C43   C48   A    
C127  H1    S    
C69   H18   S    
H96   O76   S    
O17   Zn8   S    
C10   N3    S    
C110  O93   S    
C114  C136  A    
C59   H90   S    
C42   C68   A    
C45   O86   S    
H13   O51   S    
H65   O63   S    
C133  O59   S    
C164  O64   S    
H82   N17   S    
C60   N19   S    
C116  C138  A    
C140  O66   S    
O46   Zn9   S    
C29   C161  S    
C48   O91   S    
C55   H52   S    
C53   H46   S    
C39   C43   A    
C25   N19   S    
C52   N1    S    
C122  C126  A    
C110  C154  A    
C63   H110  S    
C40   C44   A    
C105  O9    A    
C66   H9    S    
C107  O11   A    
C149  C159  A    
C61   H101  S    
C114  C118  A    
C70   H23   S    
H122  O49   S    
C134  O60   S    
C56   H79   S    
C12   C14   A    
C62   N2    S    
C159  C163  A    
O56   Zn9   S    
C84   C89   A    
O6    Zn13  S    
C24   C91   A    
C30   O40   A    
H99   N20   S    
C75   C80   A    
O23   Zn7   S    
O34   Zn4   S    
H55   O53   S    
C30   C91   S    
C76   C81   A    
C134  C138  A    
C131  O58   S    
C103  N14   S    
H12   N7    S    
C32   O33   A    
C40   O81   S    
H42   N12   S    
O2    Zn6   S    
C130  H67   S    
O27   Zn16  S    
C37   O38   A    
C53   H43   S    
C42   C47   A    
C23   C25   A    
O30   Zn4   S    
C81   C85   A    
C158  C162  A    
C69   H20   S    
H71   O69   S    
C12   C18   A    
C59   H88   S    
O16   Zn7   S    
C111  C115  A    
