data_mof_unit_36493.cif
_audit_creation_date              2012-12-10T18:07:31-0500
_audit_creation_method            fapswitch 2.2
_symmetry_space_group_name_H-M    P1
_symmetry_Int_Tables_number       1
_space_group_crystal_system       triclinic
_cell_length_a                    11.543869
_cell_length_b                    12.616128
_cell_length_c                    13.166746
_cell_angle_alpha                 81.696831
_cell_angle_beta                  90.691574
_cell_angle_gamma                 102.932879
_cell_volume                      1848.94869849

loop_
_atom_site_label
_atom_site_type_symbol
_atom_type_description
_atom_site_fract_x
_atom_site_fract_y
_atom_site_fract_z
_atom_type_partial_charge
C1    C     C_R   0.480324 0.437851 0.691578 0.919624
C2    C     C_R   0.521688 0.601441 0.197250 -0.146982
C3    C     C_R   0.488402 0.295574 0.844149 0.139321
C4    C     C_R   0.536661 0.283683 0.940944 -0.187330
C5    C     C_R   0.557412 0.370022 0.998181 0.122912
C6    C     C_R   0.506792 0.462797 0.967113 -0.004752
C7    C     C_R   0.456505 0.474889 0.869251 -0.035975
C8    C     C_R   0.505728 0.544583 0.028968 0.066272
C9    C     C_R   0.482975 0.647241 0.987268 0.031062
C10   C     C_R   0.428620 0.657447 0.891262 0.069108
C11   C     C_R   0.402608 0.565466 0.838693 0.195843
C12   C     C_R   0.717892 0.501232 0.500214 0.904474
C13   C     C_R   0.510222 0.520537 0.134160 -0.215875
C14   C     C_R   0.531964 0.712563 0.152468 0.193833
C15   C     C_R   0.465115 0.398217 0.802559 -0.156728
C16   C     C_R   0.334486 0.089049 0.347175 -0.329860
C17   C     C_R   0.635044 0.797947 0.632563 -0.011309
C18   C     C_R   0.663454 0.901986 0.661460 0.145018
C19   C     C_R   0.614347 0.984724 0.608928 -0.171932
C20   C     C_R   0.534565 0.962860 0.528080 -0.001429
C21   C     C_R   0.507719 0.855251 0.502790 0.159406
C22   C     C_R   0.478606 0.042253 0.473425 -0.022628
C23   C     C_R   0.514731 0.562187 0.308165 0.863189
C24   C     C_R   0.394300 0.011668 0.396733 0.062550
C25   C     C_R   0.369171 0.904162 0.372201 0.184037
C26   C     C_R   0.427771 0.828417 0.425156 -0.197825
C27   C     C_R   0.501963 0.151474 0.492872 -0.030814
C28   C     C_R   0.357045 0.194046 0.373751 0.368270
C29   C     C_R   0.282158 0.498879 0.499414 0.908136
C30   C     C_1   0.839115 0.503270 0.500146 -0.161668
C31   C     C_1   0.941078 0.501829 0.499460 0.023852
C32   C     C_1   0.059126 0.498599 0.498605 -0.003930
C33   C     C_1   0.161051 0.497058 0.498493 -0.198017
C34   C     C_R   0.505389 0.733057 0.047396 -0.141086
H1    H     H_    0.268670 0.068891 0.289672 0.163981
H2    H     H_    0.568129 0.183219 0.545558 0.151789
H3    H     H_    0.672756 0.732929 0.672578 0.162613
H4    H     H_    0.638990 0.063878 0.634365 0.173358
H5    H     H_    0.410673 0.748408 0.404346 0.229300
H6    H     H_    0.501612 0.814889 0.012702 0.191438
H7    H     H_    0.495733 0.435213 0.167337 0.191631
H8    H     H_    0.566786 0.209518 0.968517 0.192880
N1    N     N_R   0.440320 0.222190 0.444690 -0.112447
N2    N     N_R   0.559060 0.776980 0.554780 -0.141330
O1    O     O_R   0.471500 0.366730 0.627160 -0.588559
O2    O     O_R   0.509620 0.544830 0.662520 -0.610808
O3    O     O_R   0.646490 0.410960 0.482310 -0.604316
O4    O     O_R   0.684610 0.589050 0.517670 -0.612284
O5    O     O_R   0.490380 0.455170 0.337480 -0.593267
O6    O     O_R   0.528500 0.633270 0.372840 -0.643727
O7    O     O_R   0.315390 0.410950 0.482330 -0.581931
O8    O     O_R   0.353510 0.589040 0.517690 -0.635861
Zn1   Zn    Zn3+2 0.474550 0.381080 0.476390 0.991089
Zn2   Zn    Zn3+2 0.525450 0.618920 0.523610 0.935693
N3    N     N_2   0.565307 0.799767 0.213299 -0.301219
H9    H     H_    0.635007 0.791809 0.261316 0.253477
C35   C     C_3   0.572519 0.912580 0.167323 -0.763261
H10   H     H_    0.594759 0.967302 0.227060 0.246217
H11   H     H_    0.485698 0.922490 0.135117 0.245940
H12   H     H_    0.643193 0.938009 0.106488 0.259371
N4    N     N_2   0.286395 0.874488 0.293351 -0.300519
H13   H     H_    0.304898 0.923041 0.222945 0.229719
C36   C     C_3   0.233449 0.760007 0.288088 -0.743313
H14   H     H_    0.158336 0.754513 0.234217 0.250628
H15   H     H_    0.197957 0.717034 0.364751 0.248864
H16   H     H_    0.299718 0.719341 0.259098 0.236778
I1    I     I_    0.777073 0.933038 0.785642 -0.330608
I2    I     I_    0.367183 0.802643 0.833648 -0.349800
I3    I     I_    0.461264 0.154682 0.768464 -0.324395
I4    I     I_    0.687474 0.357559 0.114031 -0.390776
N5    N     N_2   0.317102 0.559601 0.759293 -0.288991
H17   H     H_    0.313719 0.632591 0.714267 0.274909
C37   C     C_3   0.201135 0.492307 0.791017 -0.746723
H18   H     H_    0.141934 0.488283 0.724000 0.242410
H19   H     H_    0.161233 0.528304 0.850423 0.258786
H20   H     H_    0.207944 0.407291 0.822132 0.250525
N6    N     N_2   0.296198 0.272798 0.324778 -0.268775
H21   H     H_    0.310338 0.287847 0.246301 0.207235
C38   C     C_3   0.171055 0.250502 0.351907 -0.719271
H22   H     H_    0.121561 0.177002 0.319838 0.222717
H23   H     H_    0.134260 0.322163 0.319906 0.240999
H24   H     H_    0.157976 0.236588 0.436686 0.261066

loop_
_geom_bond_atom_site_label_1
_geom_bond_atom_site_label_2
_ccdc_geom_bond_type
C16   C28   A    
C21   C26   A    
C36   H15   S    
C8    C13   A    
C37   H18   S    
C19   C20   A    
C12   O4    A    
C13   H7    S    
N6    H21   S    
C7    C11   A    
O6    Zn2   S    
C34   H6    S    
C3    I3    S    
C16   H1    S    
C5    C6    A    
C11   N5    S    
C26   H5    S    
C23   O5    A    
C29   C33   S    
C18   C19   A    
N4    C36   S    
C2    C13   A    
N1    Zn1   S    
C8    C9    A    
C1    C15   S    
C9    C10   A    
O3    Zn1   S    
C7    C15   A    
C14   N3    S    
C36   H16   S    
O1    Zn1   S    
C16   C24   A    
C37   H19   S    
C12   O3    A    
C2    C14   A    
O8    Zn2   S    
N6    C38   S    
C24   C25   A    
C38   H23   S    
C23   O6    A    
C17   H3    S    
C25   C26   A    
C38   H22   S    
O7    Zn1   S    
O4    Zn2   S    
C5    I4    S    
C19   H4    S    
C27   N1    A    
C21   N2    A    
C31   C32   S    
O2    Zn2   S    
N3    H9    S    
C17   C18   A    
C25   N4    S    
C28   N6    S    
C20   C22   A    
C22   C27   A    
N3    C35   S    
C9    C34   A    
C37   H20   S    
C22   C24   A    
C3    C4    A    
C3    C15   A    
N5    C37   S    
C29   O7    A    
C12   C30   S    
C4    C5    A    
C35   H12   S    
C14   C34   A    
C38   H24   S    
C6    C8    A    
C6    C7    A    
C10   I2    S    
C27   H2    S    
C28   N1    A    
C32   C33   T    
C18   I1    S    
C17   N2    A    
N5    H17   S    
C1    O1    A    
C35   H10   S    
C30   C31   T    
C4    H8    S    
O5    Zn1   S    
N4    H13   S    
C1    O2    A    
C35   H11   S    
C10   C11   A    
C36   H14   S    
N2    Zn2   S    
C20   C21   A    
C2    C23   S    
C29   O8    A    
