data_mof_unit_62925.cif
_audit_creation_date              2013-03-05T15:57:03-0500
_audit_creation_method            fapswitch 2.2
_symmetry_space_group_name_H-M    P1
_symmetry_Int_Tables_number       1
_space_group_crystal_system       triclinic
_cell_length_a                    21.736297
_cell_length_b                    21.736246
_cell_length_c                    47.394846
_cell_angle_alpha                 90.001257
_cell_angle_beta                  90.001303
_cell_angle_gamma                 89.99935
_cell_volume                      22392.4295396

loop_
_atom_site_label
_atom_site_type_symbol
_atom_site_description
_atom_site_fract_x
_atom_site_fract_y
_atom_site_fract_z
_atom_type_partial_charge
O1    O     O_R   0.999960 0.090190 0.023780 -0.550179
O2    O     O_R   0.909810 0.999960 0.023780 -0.550129
O3    O     O_R   0.000040 0.909810 0.023780 -0.550178
O4    O     O_R   0.090190 0.000040 0.023780 -0.550135
O5    O     O_R   0.999960 0.909810 0.976220 -0.550609
O6    O     O_R   0.909810 0.000040 0.976220 -0.550517
O7    O     O_R   0.000040 0.090190 0.976220 -0.550613
O8    O     O_R   0.090190 0.999960 0.976220 -0.550565
O9    O     O_R   0.499960 0.590190 0.523780 -0.550651
O10   O     O_R   0.409810 0.499960 0.523780 -0.550593
O11   O     O_R   0.500040 0.409810 0.523780 -0.550698
O12   O     O_R   0.590190 0.500040 0.523780 -0.550586
O13   O     O_R   0.499960 0.409810 0.476220 -0.550197
O14   O     O_R   0.409810 0.500040 0.476220 -0.550140
O15   O     O_R   0.500040 0.590190 0.476220 -0.550191
O16   O     O_R   0.590190 0.499960 0.476220 -0.550138
C1    C     C_R   0.999972 0.118993 0.999992 0.935891
C2    C     C_R   0.881005 0.999970 0.999991 0.935833
C3    C     C_R   0.000028 0.881007 0.999991 0.935888
C4    C     C_R   0.118994 0.000030 0.999991 0.935855
C5    C     C_R   0.500027 0.618992 0.500009 0.935975
C6    C     C_R   0.381006 0.500029 0.500008 0.935932
C7    C     C_R   0.499972 0.381008 0.500008 0.935998
C8    C     C_R   0.618994 0.499971 0.500009 0.935930
Cu1   Cu    Cu3+1 0.000000 0.000000 0.028160 1.157370
Cu2   Cu    Cu3+1 0.000000 0.000000 0.971840 1.157150
Cu3   Cu    Cu3+1 0.500000 0.500000 0.528160 1.156929
Cu4   Cu    Cu3+1 0.500000 0.500000 0.471840 1.157357
C9    C     C_R   0.217599 0.036803 0.980216 0.290237
C10   C     C_R   0.963144 0.217593 0.980238 0.290139
C11   C     C_R   0.782398 0.963210 0.980210 0.290289
C12   C     C_R   0.036854 0.782405 0.980237 0.290155
C13   C     C_R   0.217803 0.963800 0.019715 0.292723
C14   C     C_R   0.963749 0.782204 0.019695 0.292677
C15   C     C_R   0.782198 0.036192 0.019718 0.292737
C16   C     C_R   0.036250 0.217798 0.019697 0.292683
C17   C     C_R   0.717800 0.536213 0.480290 0.292726
C18   C     C_R   0.463728 0.717795 0.480313 0.292676
C19   C     C_R   0.282198 0.463789 0.480288 0.292730
C20   C     C_R   0.536280 0.282204 0.480316 0.292663
C21   C     C_R   0.717600 0.463189 0.519780 0.290229
C22   C     C_R   0.463109 0.282412 0.519748 0.290072
C23   C     C_R   0.282402 0.536813 0.519779 0.290210
C24   C     C_R   0.536878 0.717591 0.519754 0.290125
C25   C     C_R   0.282303 0.037576 0.980422 0.215485
C26   C     C_R   0.962363 0.282297 0.980445 0.215552
C27   C     C_R   0.717693 0.962437 0.980417 0.215452
C28   C     C_R   0.037636 0.717701 0.980445 0.215563
C29   C     C_R   0.282485 0.963661 0.019512 0.201207
C30   C     C_R   0.963611 0.717521 0.019492 0.201205
C31   C     C_R   0.717516 0.036331 0.019516 0.201206
C32   C     C_R   0.036388 0.282481 0.019493 0.201205
C33   C     C_R   0.782482 0.536351 0.480493 0.201202
C34   C     C_R   0.463591 0.782477 0.480515 0.201206
C35   C     C_R   0.217516 0.463649 0.480491 0.201202
C36   C     C_R   0.536417 0.217522 0.480519 0.201205
C37   C     C_R   0.782304 0.462413 0.519573 0.215496
C38   C     C_R   0.462323 0.217708 0.519539 0.215622
C39   C     C_R   0.217698 0.537588 0.519573 0.215484
C40   C     C_R   0.537663 0.782295 0.519545 0.215580
C41   C     C_R   0.314274 0.000266 0.999820 -0.293443
C42   C     C_R   0.999731 0.314271 0.999820 -0.293435
C43   C     C_R   0.685725 0.999735 0.999819 -0.293514
C44   C     C_R   0.000268 0.685729 0.999819 -0.293436
C45   C     C_R   0.814273 0.499735 0.500181 -0.293462
C46   C     C_R   0.500271 0.814269 0.500180 -0.293456
C47   C     C_R   0.185727 0.500266 0.500180 -0.293463
C48   C     C_R   0.499728 0.185732 0.500179 -0.293380
C49   C     C_R   0.186062 0.000146 0.999951 -0.173859
C50   C     C_R   0.999855 0.186058 0.999952 -0.173810
C51   C     C_R   0.813937 0.999856 0.999950 -0.173873
C52   C     C_R   0.000143 0.813941 0.999950 -0.173807
C53   C     C_R   0.686061 0.499857 0.500050 -0.173847
C54   C     C_R   0.500143 0.686057 0.500050 -0.173786
C55   C     C_R   0.313939 0.500145 0.500048 -0.173851
C56   C     C_R   0.499855 0.313944 0.500048 -0.173771
O17   O     O_R   0.499950 0.052190 0.041120 -0.537717
O18   O     O_R   0.947810 0.499950 0.041120 -0.537703
O19   O     O_R   0.500050 0.947810 0.041120 -0.537712
O20   O     O_R   0.052190 0.500050 0.041120 -0.537705
O21   O     O_R   0.499950 0.947810 0.958880 -0.538366
O22   O     O_R   0.947810 0.500050 0.958880 -0.538400
O23   O     O_R   0.500050 0.052190 0.958880 -0.538335
O24   O     O_R   0.052190 0.499950 0.958880 -0.538394
O25   O     O_R   0.999950 0.552190 0.541120 -0.538359
O26   O     O_R   0.447810 0.999950 0.541120 -0.538404
O27   O     O_R   0.000050 0.447810 0.541120 -0.538353
O28   O     O_R   0.552190 0.000050 0.541120 -0.538429
O29   O     O_R   0.999950 0.447810 0.458880 -0.537714
O30   O     O_R   0.447810 0.000050 0.458880 -0.537702
O31   O     O_R   0.000050 0.552190 0.458880 -0.537711
O32   O     O_R   0.552190 0.999950 0.458880 -0.537697
C57   C     C_R   0.500000 0.000001 0.054713 0.905941
C58   C     C_R   0.000001 0.500000 0.054713 0.905799
C59   C     C_R   0.499982 0.999998 0.945386 0.946994
C60   C     C_R   0.999999 0.500000 0.945388 0.947254
C61   C     C_R   0.000000 0.500000 0.554613 0.947082
C62   C     C_R   0.500002 0.000018 0.554612 0.947347
C63   C     C_R   1.000000 0.499999 0.445287 0.905896
C64   C     C_R   0.499999 1.000000 0.445287 0.905721
O33   O     O_R   0.409800 0.052180 0.000060 -0.558540
O34   O     O_R   0.947820 0.409800 0.000060 -0.558508
O35   O     O_R   0.590200 0.947820 0.000060 -0.558524
O36   O     O_R   0.052180 0.590200 0.000060 -0.558508
O37   O     O_R   0.409800 0.947820 0.999940 -0.537191
O38   O     O_R   0.947820 0.590200 0.999940 -0.537159
O39   O     O_R   0.590200 0.052180 0.999940 -0.537261
O40   O     O_R   0.052180 0.409800 0.999940 -0.537158
O41   O     O_R   0.909800 0.552180 0.500060 -0.537206
O42   O     O_R   0.447820 0.909800 0.500060 -0.537160
O43   O     O_R   0.090200 0.447820 0.500060 -0.537206
O44   O     O_R   0.552180 0.090200 0.500060 -0.537087
O45   O     O_R   0.909800 0.447820 0.499940 -0.558520
O46   O     O_R   0.447820 0.090200 0.499940 -0.558503
O47   O     O_R   0.090200 0.552180 0.499940 -0.558520
O48   O     O_R   0.552180 0.909800 0.499940 -0.558485
C65   C     C_R   0.381217 0.000061 0.999858 0.915989
C66   C     C_R   0.999939 0.381215 0.999857 0.916043
C67   C     C_R   0.618783 0.999939 0.999858 0.915978
C68   C     C_R   0.000061 0.618784 0.999857 0.916043
C69   C     C_R   0.881217 0.499940 0.500143 0.915999
C70   C     C_R   0.500062 0.881215 0.500143 0.916056
C71   C     C_R   0.118783 0.500060 0.500143 0.915999
C72   C     C_R   0.499938 0.118785 0.500143 0.916069
Cu5   Cu    Cu3+1 0.500000 0.061800 0.000000 1.243129
Cu6   Cu    Cu3+1 0.938200 0.500000 0.000000 1.243144
Cu7   Cu    Cu3+1 0.500000 0.938200 0.000000 1.243144
Cu8   Cu    Cu3+1 0.061800 0.500000 0.000000 1.243153
Cu9   Cu    Cu3+1 0.000000 0.561800 0.500000 1.243165
Cu10  Cu    Cu3+1 0.438200 0.000000 0.500000 1.243168
Cu11  Cu    Cu3+1 0.000000 0.438200 0.500000 1.243169
Cu12  Cu    Cu3+1 0.561800 0.000000 0.500000 1.243190
C73   C     C_R   0.039827 0.537655 0.809824 0.705570
C74   C     C_R   0.540044 0.962760 0.809842 0.705375
C75   C     C_R   0.960165 0.462349 0.809822 0.705543
C76   C     C_R   0.459310 0.036911 0.809845 0.705234
C77   C     C_R   0.034155 0.542922 0.190459 0.709519
C78   C     C_R   0.542910 0.965837 0.190458 0.709520
C79   C     C_R   0.965856 0.457070 0.190457 0.709520
C80   C     C_R   0.457087 0.034174 0.190458 0.709520
C81   C     C_R   0.534138 0.957070 0.309542 0.709519
C82   C     C_R   0.042919 0.534157 0.309543 0.709520
C83   C     C_R   0.465852 0.042934 0.309542 0.709519
C84   C     C_R   0.957088 0.465832 0.309541 0.709519
C85   C     C_R   0.540306 0.963049 0.690181 0.705614
C86   C     C_R   0.039003 0.538511 0.690167 0.705434
C87   C     C_R   0.459999 0.037664 0.690177 0.705345
C88   C     C_R   0.960991 0.461496 0.690165 0.705464
N1    N     N_R   0.999996 0.500002 0.823900 -0.440347
N2    N     N_R   0.499723 0.999883 0.823911 -0.439549
N3    N     N_R   0.000005 0.499997 0.176372 -0.444639
N4    N     N_R   0.499999 0.000005 0.176371 -0.444642
N5    N     N_R   0.499995 0.000002 0.323628 -0.444639
N6    N     N_R   0.000003 0.499995 0.323629 -0.444640
N7    N     N_R   0.500108 0.000304 0.676102 -0.440393
N8    N     N_R   0.999997 0.500004 0.676094 -0.439955
C89   C     C_R   0.958914 0.461403 0.779954 -0.091242
C90   C     C_R   0.458193 0.038016 0.779976 -0.091213
C91   C     C_R   0.041078 0.538603 0.779956 -0.091232
C92   C     C_R   0.541148 0.961654 0.779974 -0.090813
C93   C     C_R   0.962430 0.457951 0.220179 -0.092760
C94   C     C_R   0.457970 0.037600 0.220180 -0.092760
C95   C     C_R   0.037581 0.542040 0.220181 -0.092760
C96   C     C_R   0.542025 0.962410 0.220180 -0.092758
C97   C     C_R   0.462426 0.042053 0.279819 -0.092759
C98   C     C_R   0.957972 0.462406 0.279819 -0.092760
C99   C     C_R   0.537565 0.957953 0.279819 -0.092756
C100  C     C_R   0.042037 0.537583 0.279821 -0.092760
C101  C     C_R   0.458747 0.038620 0.720048 -0.091703
C102  C     C_R   0.959967 0.460311 0.720033 -0.090965
C103  C     C_R   0.541563 0.962115 0.720049 -0.091436
C104  C     C_R   0.040026 0.539696 0.720035 -0.090971
C105  C     C_R   0.999996 0.500003 0.764962 -0.146630
C106  C     C_R   0.500026 0.000223 0.764980 -0.146337
C107  C     C_R   0.000005 0.499995 0.235095 -0.150910
C108  C     C_R   0.499997 0.000004 0.235094 -0.150910
C109  C     C_R   0.499996 0.000003 0.264905 -0.150911
C110  C     C_R   0.000005 0.499995 0.264906 -0.150910
C111  C     C_R   0.499798 0.999981 0.735043 -0.146659
C112  C     C_R   0.999996 0.500003 0.735027 -0.146482
C113  C     C_R   0.917476 0.423371 0.764918 0.343318
C114  C     C_R   0.415821 0.075020 0.764945 0.344236
C115  C     C_R   0.082516 0.576636 0.764922 0.343334
C116  C     C_R   0.581496 0.922452 0.764944 0.343324
C117  C     C_R   0.923112 0.417683 0.235163 0.344779
C118  C     C_R   0.417720 0.076936 0.235165 0.344778
C119  C     C_R   0.076900 0.582307 0.235168 0.344781
C120  C     C_R   0.582275 0.923072 0.235165 0.344778
C121  C     C_R   0.423114 0.082327 0.264834 0.344779
C122  C     C_R   0.917717 0.423075 0.264833 0.344780
C123  C     C_R   0.576878 0.917679 0.264834 0.344778
C124  C     C_R   0.082294 0.576913 0.264837 0.344779
C125  C     C_R   0.418376 0.077799 0.735081 0.344424
C126  C     C_R   0.920460 0.420276 0.735067 0.343276
C127  C     C_R   0.583965 0.925140 0.735077 0.343446
C128  C     C_R   0.079532 0.579731 0.735071 0.343256
O49   O     O_2   0.077578 0.574392 0.824881 -0.399701
O50   O     O_2   0.579174 0.927512 0.824907 -0.401189
O51   O     O_2   0.922413 0.425612 0.824877 -0.399698
O52   O     O_2   0.420658 0.072674 0.824915 -0.400923
O53   O     O_2   0.064709 0.586072 0.175537 -0.397985
O54   O     O_2   0.586047 0.935264 0.175535 -0.397979
O55   O     O_2   0.935302 0.413921 0.175532 -0.397982
O56   O     O_2   0.413952 0.064748 0.175534 -0.397976
O57   O     O_2   0.564684 0.913915 0.324465 -0.397987
O58   O     O_2   0.086059 0.564724 0.324468 -0.397977
O59   O     O_2   0.435304 0.086088 0.324466 -0.397983
O60   O     O_2   0.913948 0.435265 0.324463 -0.397980
O61   O     O_2   0.578437 0.926699 0.675128 -0.399526
O62   O     O_2   0.076965 0.575020 0.675107 -0.400455
O63   O     O_2   0.421392 0.073489 0.675115 -0.399177
O64   O     O_2   0.923030 0.424987 0.675103 -0.400456
C129  C     C_R   0.487816 0.945272 0.131378 0.334527
C130  C     C_R   0.054740 0.487838 0.131378 0.334518
C131  C     C_R   0.512183 0.054735 0.131378 0.334531
C132  C     C_R   0.945268 0.512161 0.131379 0.334518
C133  C     C_R   0.533627 0.044665 0.868931 0.330816
C134  C     C_R   0.044545 0.465955 0.868962 0.331091
C135  C     C_R   0.465995 0.955228 0.868977 0.330021
C136  C     C_R   0.955448 0.534046 0.868962 0.331097
C137  C     C_R   0.033878 0.455330 0.631044 0.330708
C138  C     C_R   0.544517 0.034353 0.631011 0.330865
C139  C     C_R   0.966120 0.544676 0.631043 0.330718
C140  C     C_R   0.455584 0.966049 0.631060 0.331637
C141  C     C_R   0.987824 0.554729 0.368622 0.334527
C142  C     C_R   0.554734 0.012153 0.368622 0.334516
C143  C     C_R   0.012178 0.445263 0.368622 0.334527
C144  C     C_R   0.445259 0.987850 0.368621 0.334519
C145  C     C_R   0.489543 0.944588 0.101580 0.183662
C146  C     C_R   0.055421 0.489565 0.101581 0.183639
C147  C     C_R   0.510458 0.055417 0.101581 0.183657
C148  C     C_R   0.944584 0.510436 0.101581 0.183635
C149  C     C_R   0.533122 0.045481 0.898833 0.179695
C150  C     C_R   0.045368 0.466571 0.898862 0.179487
C151  C     C_R   0.466631 0.954465 0.898877 0.179949
C152  C     C_R   0.954626 0.533429 0.898863 0.179509
C153  C     C_R   0.033293 0.454530 0.601143 0.179689
C154  C     C_R   0.545330 0.033648 0.601112 0.179513
C155  C     C_R   0.966706 0.545475 0.601142 0.179700
C156  C     C_R   0.454723 0.966610 0.601158 0.179246
C157  C     C_R   0.989549 0.555413 0.398419 0.183647
C158  C     C_R   0.555418 0.010426 0.398419 0.183625
C159  C     C_R   0.010450 0.444581 0.398419 0.183652
C160  C     C_R   0.444578 0.989575 0.398419 0.183619
C161  C     C_R   0.500000 0.000002 0.086306 -0.299992
C162  C     C_R   0.000002 0.500001 0.086306 -0.300054
C163  C     C_R   0.499914 0.999983 0.913953 -0.280259
C164  C     C_R   0.999998 0.500000 0.913958 -0.280553
C165  C     C_R   0.000000 0.500002 0.586046 -0.280360
C166  C     C_R   0.500017 0.000090 0.586040 -0.280650
C167  C     C_R   0.999999 0.499998 0.413694 -0.300007
C168  C     C_R   0.499998 0.000000 0.413694 -0.300086
C169  C     C_R   0.499999 0.000004 0.145955 0.166129
C170  C     C_R   0.000004 0.499998 0.145956 0.166141
C171  C     C_R   0.499780 0.999931 0.854356 0.184496
C172  C     C_R   0.999996 0.500001 0.854354 0.182605
C173  C     C_R   0.999999 0.500003 0.645645 0.183661
C174  C     C_R   0.500063 0.000237 0.645645 0.182172
C175  C     C_R   0.000002 0.499996 0.354044 0.166132
C176  C     C_R   0.499996 0.000002 0.354044 0.166141
O65   O     O_3   0.183681 0.071775 0.961394 -0.661737
H1    H     H_    0.210107 0.085387 0.945599 0.385911
O66   O     O_3   0.928124 0.183672 0.961435 -0.661767
H2    H     H_    0.914472 0.210096 0.945646 0.385882
O67   O     O_3   0.816313 0.928247 0.961383 -0.661668
H3    H     H_    0.789885 0.914643 0.945587 0.385974
O68   O     O_3   0.071873 0.816324 0.961434 -0.661789
H4    H     H_    0.085526 0.789898 0.945646 0.385867
O69   O     O_3   0.184036 0.928880 0.038632 -0.664860
H5    H     H_    0.210990 0.912651 0.053686 0.386460
O70   O     O_3   0.928782 0.815976 0.038593 -0.664936
H6    H     H_    0.912505 0.789022 0.053635 0.386469
O71   O     O_3   0.815967 0.071105 0.038639 -0.664847
H7    H     H_    0.789015 0.087321 0.053696 0.386457
O72   O     O_3   0.071216 0.184028 0.038596 -0.664931
H8    H     H_    0.087494 0.210983 0.053638 0.386470
O73   O     O_3   0.684029 0.571143 0.461377 -0.664864
H9    H     H_    0.710982 0.587381 0.446326 0.386462
O74   O     O_3   0.428742 0.684022 0.461422 -0.664949
H10   H     H_    0.412444 0.710976 0.446384 0.386474
O75   O     O_3   0.315967 0.428859 0.461374 -0.664860
H11   H     H_    0.289012 0.412620 0.446323 0.386462
O76   O     O_3   0.571274 0.315975 0.461429 -0.664962
H12   H     H_    0.587584 0.289020 0.446395 0.386477
O77   O     O_3   0.683684 0.428207 0.538598 -0.661758
H13   H     H_    0.710111 0.414586 0.554392 0.385896
O78   O     O_3   0.428061 0.316335 0.538538 -0.661894
H14   H     H_    0.414382 0.289911 0.554322 0.385776
O79   O     O_3   0.316319 0.571796 0.538598 -0.661740
H15   H     H_    0.289894 0.585416 0.554392 0.385907
O80   O     O_3   0.571916 0.683671 0.538549 -0.661819
H16   H     H_    0.585586 0.710096 0.554335 0.385845
N9    N     N_R   0.315391 0.076569 0.961227 0.136458
O81   O     O_R   0.307864 0.135923 0.962106 -0.264648
O82   O     O_R   0.353532 0.052969 0.943059 -0.319870
N10   N     N_R   0.923292 0.315378 0.961280 0.136474
O83   O     O_R   0.863944 0.307827 0.962200 -0.264678
O84   O     O_R   0.946813 0.353528 0.943096 -0.319837
N11   N     N_R   0.684602 0.923460 0.961214 0.136463
O85   O     O_R   0.692127 0.864105 0.962083 -0.264698
O86   O     O_R   0.646455 0.947075 0.943053 -0.319737
N12   N     N_R   0.076707 0.684618 0.961281 0.136472
O87   O     O_R   0.136055 0.692170 0.962202 -0.264705
O88   O     O_R   0.053186 0.646467 0.943096 -0.319842
N13   N     N_R   0.316026 0.928566 0.039995 0.137638
O89   O     O_R   0.313778 0.868757 0.039669 -0.246717
O90   O     O_R   0.349672 0.956548 0.058714 -0.333880
N14   N     N_R   0.928474 0.683984 0.039960 0.137655
O91   O     O_R   0.868665 0.686218 0.039603 -0.246775
O92   O     O_R   0.956417 0.650351 0.058695 -0.333762
N15   N     N_R   0.683977 0.071418 0.040002 0.137636
O93   O     O_R   0.686229 0.131227 0.039684 -0.246722
O94   O     O_R   0.650329 0.043430 0.058717 -0.333887
N16   N     N_R   0.071526 0.316020 0.039962 0.137654
O95   O     O_R   0.131335 0.313785 0.039606 -0.246762
O96   O     O_R   0.043584 0.349655 0.058697 -0.333769
N17   N     N_R   0.816020 0.571455 0.460013 0.137640
O97   O     O_R   0.813774 0.631264 0.460346 -0.246714
O98   O     O_R   0.849662 0.543482 0.441290 -0.333848
N18   N     N_R   0.428434 0.816015 0.460053 0.137663
O99   O     O_R   0.368625 0.813784 0.460422 -0.246770
O100  O     O_R   0.456359 0.849644 0.441312 -0.333715
N19   N     N_R   0.183976 0.428545 0.460011 0.137640
O101  O     O_R   0.186223 0.368736 0.460343 -0.246705
O102  O     O_R   0.150331 0.456517 0.441289 -0.333856
N20   N     N_R   0.571582 0.183982 0.460061 0.137666
O103  O     O_R   0.631390 0.186208 0.460437 -0.246764
O104  O     O_R   0.543663 0.150356 0.441315 -0.333709
N21   N     N_R   0.815393 0.423405 0.538763 0.136456
O105  O     O_R   0.807861 0.364051 0.537876 -0.264668
O106  O     O_R   0.853539 0.446988 0.556933 -0.319868
N22   N     N_R   0.423202 0.184632 0.538684 0.136469
O107  O     O_R   0.363858 0.192199 0.537735 -0.264673
O108  O     O_R   0.446675 0.146481 0.556882 -0.319901
N23   N     N_R   0.184611 0.576597 0.538763 0.136458
O109  O     O_R   0.192143 0.635950 0.537878 -0.264640
O110  O     O_R   0.146466 0.553013 0.556933 -0.319867
N24   N     N_R   0.576768 0.815375 0.538697 0.136478
O111  O     O_R   0.636114 0.807810 0.537759 -0.264697
O112  O     O_R   0.553281 0.853532 0.556888 -0.319745
O113  O     O_3   0.873723 0.390182 0.779623 -0.633741
H17   H     H_    0.836505 0.385790 0.767718 0.354088
O114  O     O_3   0.371502 0.107410 0.779671 -0.634450
H18   H     H_    0.334029 0.110744 0.767861 0.353460
O115  O     O_3   0.126268 0.609825 0.779629 -0.633757
H19   H     H_    0.163486 0.614217 0.767725 0.354087
O116  O     O_3   0.617463 0.880989 0.779674 -0.634047
H20   H     H_    0.623949 0.843933 0.767863 0.353995
O117  O     O_3   0.889902 0.373763 0.220577 -0.634615
H21   H     H_    0.883997 0.337401 0.232891 0.352971
O118  O     O_3   0.373815 0.110167 0.220579 -0.634615
H22   H     H_    0.337455 0.116089 0.232894 0.352971
O119  O     O_3   0.110110 0.626226 0.220583 -0.634616
H23   H     H_    0.116016 0.662589 0.232898 0.352971
O120  O     O_3   0.626180 0.889843 0.220580 -0.634615
H24   H     H_    0.662539 0.883920 0.232896 0.352971
O121  O     O_3   0.389910 0.126252 0.279420 -0.634617
H25   H     H_    0.384010 0.162616 0.267105 0.352971
O122  O     O_3   0.873808 0.389852 0.279417 -0.634616
H26   H     H_    0.837447 0.383935 0.267102 0.352971
O123  O     O_3   0.610081 0.873754 0.279420 -0.634617
H27   H     H_    0.615982 0.837391 0.267104 0.352972
O124  O     O_3   0.126203 0.610136 0.279423 -0.634615
H28   H     H_    0.162564 0.616053 0.267109 0.352971
O125  O     O_3   0.382401 0.119267 0.720359 -0.634131
H29   H     H_    0.375918 0.156314 0.732176 0.353388
O126  O     O_3   0.885690 0.377769 0.720360 -0.633922
H30   H     H_    0.879913 0.340746 0.732267 0.354050
O127  O     O_3   0.628289 0.892767 0.720347 -0.633680
H31   H     H_    0.665774 0.889452 0.732149 0.354146
O128  O     O_3   0.114303 0.622238 0.720366 -0.633903
H32   H     H_    0.120079 0.659262 0.732274 0.354055
O129  O     O_3   0.474675 0.893430 0.147256 -0.649491
H33   H     H_    0.468926 0.857212 0.134948 0.390827
O130  O     O_3   0.106589 0.474718 0.147257 -0.649490
H34   H     H_    0.142808 0.468982 0.134949 0.390826
O131  O     O_3   0.525323 0.106578 0.147257 -0.649487
H35   H     H_    0.531079 0.142794 0.134949 0.390826
O132  O     O_3   0.893420 0.525280 0.147257 -0.649494
H36   H     H_    0.857201 0.531021 0.134949 0.390825
O133  O     O_3   0.567259 0.086082 0.853032 -0.653497
H37   H     H_    0.596270 0.108773 0.865267 0.386248
O134  O     O_3   0.085735 0.431965 0.853098 -0.653218
H38   H     H_    0.108204 0.402834 0.865358 0.385989
O135  O     O_3   0.432298 0.913779 0.853124 -0.654100
H39   H     H_    0.403340 0.891108 0.865392 0.386207
O136  O     O_3   0.914257 0.568037 0.853099 -0.653263
H40   H     H_    0.891788 0.597167 0.865360 0.385972
O137  O     O_3   0.067655 0.413978 0.646915 -0.653587
H41   H     H_    0.096676 0.391356 0.634659 0.386115
O138  O     O_3   0.585631 0.068496 0.646848 -0.653337
H42   H     H_    0.607997 0.097665 0.634568 0.385884
O139  O     O_3   0.932343 0.586029 0.646914 -0.653593
H43   H     H_    0.903322 0.608651 0.634657 0.386120
O140  O     O_3   0.414502 0.931977 0.646944 -0.652715
H44   H     H_    0.392122 0.902744 0.634699 0.385925
O141  O     O_3   0.974690 0.606573 0.352743 -0.649490
H45   H     H_    0.968938 0.642791 0.365051 0.390827
O142  O     O_3   0.606584 0.025263 0.352743 -0.649493
H46   H     H_    0.642805 0.030991 0.365051 0.390827
O143  O     O_3   0.025312 0.393418 0.352743 -0.649486
H47   H     H_    0.031059 0.357200 0.365051 0.390828
O144  O     O_3   0.393408 0.974740 0.352742 -0.649489
H48   H     H_    0.357188 0.969006 0.365050 0.390826
N25   N     N_R   0.481236 0.887332 0.087106 0.150760
O145  O     O_R   0.426342 0.864418 0.084163 -0.232769
O146  O     O_R   0.528933 0.853604 0.081141 -0.272148
N26   N     N_R   0.112680 0.481283 0.087107 0.150766
O147  O     O_R   0.135617 0.426398 0.084163 -0.232791
O148  O     O_R   0.146383 0.528994 0.081141 -0.272155
N27   N     N_R   0.518767 0.112671 0.087107 0.150756
O149  O     O_R   0.573663 0.135578 0.084162 -0.232765
O150  O     O_R   0.471073 0.146403 0.081143 -0.272145
N28   N     N_R   0.887325 0.518720 0.087107 0.150763
O151  O     O_R   0.864391 0.573606 0.084162 -0.232796
O152  O     O_R   0.853618 0.471010 0.081141 -0.272150
N29   N     N_R   0.566895 0.092002 0.913715 0.142458
O153  O     O_R   0.552071 0.149667 0.910894 -0.258028
O154  O     O_R   0.613058 0.076941 0.929761 -0.300225
N30   N     N_R   0.091779 0.432694 0.913769 0.142394
O155  O     O_R   0.149504 0.447212 0.910877 -0.257490
O156  O     O_R   0.076562 0.386698 0.929883 -0.301014
N31   N     N_R   0.432918 0.907971 0.913804 0.142431
O157  O     O_R   0.447743 0.850302 0.910999 -0.258284
O158  O     O_R   0.386797 0.923058 0.929870 -0.300487
N32   N     N_R   0.908217 0.567306 0.913770 0.142392
O159  O     O_R   0.850491 0.552786 0.910878 -0.257566
O160  O     O_R   0.923434 0.613302 0.929886 -0.301014
N33   N     N_R   0.067072 0.408048 0.586237 0.142414
O161  O     O_R   0.052337 0.350365 0.589075 -0.257821
O162  O     O_R   0.113174 0.423160 0.570166 -0.300620
N34   N     N_R   0.591682 0.067555 0.586181 0.142362
O163  O     O_R   0.649435 0.053170 0.589098 -0.257408
O164  O     O_R   0.576384 0.113461 0.570028 -0.301404
N35   N     N_R   0.932928 0.591956 0.586236 0.142419
O165  O     O_R   0.947664 0.649639 0.589074 -0.257871
O166  O     O_R   0.886826 0.576843 0.570164 -0.300604
N36   N     N_R   0.408347 0.932637 0.586274 0.142391
O167  O     O_R   0.350596 0.947016 0.589206 -0.257141
O168  O     O_R   0.423621 0.886688 0.570141 -0.301138
N37   N     N_R   0.981247 0.612670 0.412893 0.150759
O169  O     O_R   0.926353 0.635586 0.415838 -0.232769
O170  O     O_R   0.028945 0.646395 0.418857 -0.272136
N38   N     N_R   0.612679 0.018695 0.412893 0.150774
O171  O     O_R   0.635630 0.073575 0.415836 -0.232801
O172  O     O_R   0.646372 0.970976 0.418861 -0.272146
N39   N     N_R   0.018751 0.387326 0.412894 0.150762
O173  O     O_R   0.073643 0.364406 0.415838 -0.232765
O174  O     O_R   0.971051 0.353605 0.418858 -0.272142
N40   N     N_R   0.387318 0.981302 0.412892 0.150769
O175  O     O_R   0.364374 0.926420 0.415836 -0.232796
O176  O     O_R   0.353620 0.029018 0.418859 -0.272144

loop_
_geom_bond_atom_site_label_1
_geom_bond_atom_site_label_2
_geom_bond_distance
_ccdc_geom_bond_type
C20   O76   1.385201 S    
O121  H25   0.990885 S    
C155  C165  1.418655 A    
O8    Cu2   1.971353 S    
C129  C169  1.400978 A    
O80   H16   0.988901 S    
C160  N40   1.432487 S    
C22   C38   1.406552 A    
C143  O143  1.384845 S    
C129  C145  1.412826 A    
C117  C122  1.415903 A    
N1    C172  1.443391 S    
C26   C42   1.409221 A    
C120  C123  1.415903 A    
N30   O155  1.301060 A    
O44   C72   1.294426 A    
C88   O64   1.349132 S    
C75   O51   1.349139 S    
O21   C59   1.302248 A    
C130  C170  1.400967 A    
O70   H6    0.988282 S    
C151  C163  1.418711 A    
C156  N36   1.434945 S    
O25   Cu9   1.960043 S    
C90   C106  1.416599 A    
C16   C50   1.406219 A    
C46   C70   1.455163 S    
O3    C3    1.289621 A    
N20   O103  1.301033 A    
C87   N7    1.365479 A    
C80   N4    1.366497 A    
C146  C162  1.423575 A    
C13   C49   1.406244 A    
C15   C51   1.406257 A    
O46   C72   1.292094 A    
N28   O152  1.300843 A    
O46   Cu10  1.971731 S    
C34   N18   1.433828 S    
C21   O77   1.384615 S    
C147  N27   1.432488 S    
C9    C49   1.407012 A    
C23   C55   1.407003 A    
O47   C71   1.292096 A    
O12   Cu3   1.971362 S    
N19   O101  1.301035 A    
O66   H2    0.988896 S    
C141  C175  1.400973 A    
C63   C167  1.497360 S    
C133  C149  1.417359 A    
N23   O110  1.300717 A    
N7    C174  1.443487 S    
C101  C125  1.415246 A    
N16   O95   1.301035 A    
C20   C56   1.406198 A    
C137  C153  1.417316 A    
C17   C33   1.405990 A    
N39   O174  1.300841 A    
O120  H24   0.990885 S    
C144  C160  1.412823 A    
O11   Cu3   1.971351 S    
C38   C48   1.409249 A    
O14   Cu4   1.971365 S    
C115  C128  1.417838 A    
C90   C114  1.415144 A    
C24   C54   1.406956 A    
C113  C126  1.417838 A    
C32   N16   1.433826 S    
N34   O163  1.301064 A    
O29   C63   1.304581 A    
C15   C31   1.405987 A    
O137  H41   0.988489 S    
C104  C128  1.415095 A    
O134  H38   0.988497 S    
O17   Cu5   1.960043 S    
C77   C95   1.410771 A    
C2    C51   1.457820 S    
O19   Cu7   1.960034 S    
C73   O49   1.349138 S    
C40   N24   1.436450 S    
C149  C163  1.418688 A    
C96   C120  1.414531 A    
O29   Cu11  1.960048 S    
C121  O121  1.382144 S    
O130  H34   0.987750 S    
O31   Cu9   1.960039 S    
C19   C35   1.405990 A    
C116  C127  1.417747 A    
C99   C123  1.414531 A    
O139  H43   0.988488 S    
C29   N13   1.433827 S    
C44   C68   1.455141 S    
C148  N28   1.432483 S    
C140  O140  1.383011 S    
C139  C155  1.417318 A    
N25   O145  1.300483 A    
C78   O54   1.349455 S    
O41   C69   1.294383 A    
O18   C58   1.304585 A    
O11   C7    1.288893 A    
C148  C162  1.423577 A    
C82   O58   1.349457 S    
C84   N6    1.366501 A    
C76   O52   1.349133 S    
O25   C61   1.302265 A    
C82   C100  1.410773 A    
N23   O109  1.301141 A    
O4    C4    1.289644 A    
C18   O74   1.385200 S    
C15   O71   1.385195 S    
O122  H26   0.990886 S    
Cu5   Cu7   2.686602 S    
C134  C172  1.401631 A    
O125  H29   0.990936 S    
C141  C157  1.412827 A    
C153  C165  1.418656 A    
N35   O166  1.300894 A    
O10   Cu3   1.971355 S    
O24   Cu8   1.960039 S    
C74   C92   1.416006 A    
O117  H21   0.990886 S    
C75   C89   1.416003 A    
C97   C109  1.414898 A    
C152  C164  1.418591 A    
O118  H22   0.990886 S    
C157  C167  1.423579 A    
C7    C56   1.457723 S    
C95   C107  1.414902 A    
O143  H47   0.987752 S    
N33   O161  1.301061 A    
O7    Cu2   1.971349 S    
C135  C171  1.401316 A    
O32   Cu12  1.960039 S    
C80   O56   1.349454 S    
O65   H1    0.988895 S    
C142  C158  1.412826 A    
C80   C94   1.410779 A    
O142  H46   0.987750 S    
C136  O136  1.383020 S    
O13   C7    1.289616 A    
O27   Cu11  1.960034 S    
C59   C163  1.489763 S    
O22   Cu6   1.960048 S    
N13   O90   1.300706 A    
C113  O113  1.382271 S    
C96   C108  1.414898 A    
C19   C55   1.406244 A    
C33   C45   1.407711 A    
C16   C32   1.405993 A    
C23   C39   1.406558 A    
C76   C90   1.416067 A    
C11   C51   1.407014 A    
C13   O69   1.385199 S    
O17   C57   1.304583 A    
O73   H9    0.988285 S    
C154  C166  1.418578 A    
N21   O106  1.300717 A    
C83   N5    1.366500 A    
C103  C111  1.416529 A    
C147  C161  1.423576 A    
C26   N10   1.436449 S    
N29   O154  1.300899 A    
N14   O92   1.300708 A    
C85   O61   1.349153 S    
N12   O88   1.300710 A    
N27   O150  1.300844 A    
C159  C167  1.423578 A    
O37   Cu7   1.971733 S    
C135  C151  1.417280 A    
N22   O107  1.301139 A    
O39   Cu5   1.971731 S    
C142  C176  1.400967 A    
C139  C173  1.401464 A    
O26   Cu10  1.960034 S    
O27   C61   1.302261 A    
O20   Cu8   1.960044 S    
Cu1   Cu2   2.669282 S    
C36   C48   1.407751 A    
C82   N6    1.366500 A    
N38   O171  1.300484 A    
N19   O102  1.300707 A    
N18   O100  1.300706 A    
N9    O81   1.301141 A    
C43   C67   1.455088 S    
C97   C121  1.414531 A    
O48   Cu12  1.971733 S    
O124  H28   0.990884 S    
O79   H15   0.988896 S    
C127  O127  1.382325 S    
O40   Cu8   1.971733 S    
C140  C156  1.417358 A    
C119  C124  1.415903 A    
O43   Cu11  1.971735 S    
C122  O122  1.382144 S    
N24   O112  1.300709 A    
N15   O94   1.300706 A    
O41   Cu9   1.971738 S    
C14   C52   1.406219 A    
N8    C173  1.443135 S    
C18   C54   1.406209 A    
C145  N25   1.432489 S    
C131  O131  1.384842 S    
Cu6   Cu8   2.686608 S    
C10   C26   1.406556 A    
O34   Cu6   1.971728 S    
C30   N14   1.433826 S    
C118  O118  1.382143 S    
C144  C176  1.400968 A    
C34   C46   1.407747 A    
C142  O142  1.384841 S    
O12   C8    1.288912 A    
C22   C56   1.406950 A    
C158  C168  1.423581 A    
O14   C6    1.289636 A    
N30   O156  1.300890 A    
C32   C42   1.407733 A    
O141  H45   0.987751 S    
C81   N5    1.366497 A    
N2    C171  1.442946 S    
O6    Cu2   1.971365 S    
C77   O53   1.349455 S    
C136  C172  1.401632 A    
N34   O164  1.300888 A    
C153  N33   1.434897 S    
C21   C53   1.407000 A    
O45   C69   1.292096 A    
O76   H12   0.988280 S    
N20   O104  1.300705 A    
N37   O170  1.300842 A    
O31   C63   1.304581 A    
C101  C111  1.416578 A    
O28   C62   1.302195 A    
C17   O73   1.385198 S    
C150  N30   1.434923 S    
C156  C166  1.418556 A    
C24   O80   1.384612 S    
C11   O67   1.384615 S    
N40   O176  1.300842 A    
O72   H8    0.988281 S    
O114  H18   0.990942 S    
O119  H23   0.990889 S    
O132  H36   0.987747 S    
C115  O115  1.382272 S    
O10   C6    1.288912 A    
C155  N35   1.434895 S    
O48   C70   1.292097 A    
O36   C68   1.292095 A    
C36   N20   1.433828 S    
C27   C43   1.409168 A    
N4    C169  1.441552 S    
C8    C53   1.457798 S    
C28   C44   1.409221 A    
N32   O159  1.301059 A    
C13   C29   1.405988 A    
O128  H32   0.990904 S    
C131  C169  1.400975 A    
C12   O68   1.384616 S    
C10   O66   1.384617 S    
N16   O96   1.300710 A    
N17   O98   1.300708 A    
N36   O167  1.301062 A    
C83   C97   1.410774 A    
C93   C117  1.414536 A    
C150  C164  1.418591 A    
C100  C124  1.414535 A    
C83   O59   1.349457 S    
O144  H48   0.987752 S    
C20   C36   1.405995 A    
C35   N19   1.433825 S    
O74   H10   0.988281 S    
O13   Cu4   1.971360 S    
C98   C110  1.414900 A    
C45   C69   1.455110 S    
O45   Cu11  1.971733 S    
C22   O78   1.384615 S    
C120  O120  1.382143 S    
C157  N37   1.432486 S    
C104  C112  1.416471 A    
N10   O84   1.300711 A    
C40   C46   1.409238 A    
C11   C27   1.406564 A    
O69   H5    0.988284 S    
O21   Cu7   1.960048 S    
C12   C28   1.406557 A    
O37   C65   1.294376 A    
C89   C113  1.415096 A    
O23   Cu5   1.960039 S    
C87   O63   1.349140 S    
O39   C67   1.294369 A    
C10   C50   1.406970 A    
O4    Cu1   1.971362 S    
C107  C110  1.412883 A    
C31   N15   1.433829 S    
C114  O114  1.382304 S    
C149  N29   1.434882 S    
C81   C99   1.410776 A    
C29   C41   1.407708 A    
C41   C65   1.455099 S    
N39   O173  1.300483 A    
C79   C93   1.410773 A    
C31   C43   1.407703 A    
O116  H20   0.990935 S    
C102  C126  1.415096 A    
C105  C112  1.418807 A    
C78   N4    1.366497 A    
O43   C71   1.294383 A    
C116  O116  1.382329 S    
C84   C98   1.410771 A    
C73   C91   1.416006 A    
C27   N11   1.436444 S    
N11   O85   1.301142 A    
O77   H13   0.988895 S    
C154  N34   1.434945 S    
C126  O126  1.382276 S    
C35   C47   1.407712 A    
O78   H14   0.988897 S    
C18   C34   1.405993 A    
O3    Cu1   1.971351 S    
O68   H4    0.988895 S    
C38   N22   1.436450 S    
C114  C125  1.417783 A    
O44   Cu12  1.971726 S    
C58   C162  1.497364 S    
N26   O148  1.300840 A    
N3    C170  1.441552 S    
C103  C127  1.415157 A    
C99   C109  1.414898 A    
N28   O151  1.300483 A    
C14   O70   1.385199 S    
O20   C58   1.304586 A    
C130  C146  1.412826 A    
O9    Cu3   1.971358 S    
C140  C174  1.401709 A    
O135  H39   0.988489 S    
C92   C106  1.416615 A    
C37   C45   1.409189 A    
C61   C165  1.489720 S    
O140  H44   0.988511 S    
O5    C3    1.288904 A    
O38   Cu6   1.971731 S    
O33   C65   1.292098 A    
C118  C121  1.415909 A    
C21   C37   1.406558 A    
C47   C71   1.455110 S    
C79   O55   1.349456 S    
O42   C70   1.294417 A    
C125  O125  1.382309 S    
O15   Cu4   1.971349 S    
C24   C40   1.406557 A    
C25   C41   1.409179 A    
O42   Cu10  1.971728 S    
O2    Cu1   1.971355 S    
C137  O137  1.383008 S    
O26   C62   1.302252 A    
C42   C66   1.455141 S    
O5    Cu2   1.971360 S    
O30   Cu10  1.960048 S    
C158  N38   1.432489 S    
N26   O147  1.300484 A    
N13   O89   1.301033 A    
C9    C25   1.406562 A    
N27   O149  1.300481 A    
C88   N8    1.365367 A    
N5    C176  1.441552 S    
C60   C164  1.489615 S    
N6    C175  1.441552 S    
C89   C105  1.416429 A    
C84   O60   1.349455 S    
O16   Cu4   1.971353 S    
N15   O93   1.301033 A    
C85   C103  1.415984 A    
C86   C104  1.416002 A    
O2    C2    1.289642 A    
C30   C44   1.407736 A    
N21   O105  1.301142 A    
Cu10  Cu12  2.686608 S    
O126  H30   0.990906 S    
C134  O134  1.383020 S    
C159  N39   1.432490 S    
C48   C72   1.455172 S    
N29   O153  1.301061 A    
O138  H42   0.988508 S    
O113  H17   0.990912 S    
O8    C4    1.288911 A    
C131  C147  1.412828 A    
N38   O172  1.300842 A    
N22   O108  1.300709 A    
O19   C57   1.304579 A    
C28   N12   1.436450 S    
N25   O146  1.300845 A    
C143  C159  1.412826 A    
C93   C107  1.414902 A    
C151  N31   1.434887 S    
C139  O139  1.383007 S    
C94   C108  1.414897 A    
C128  O128  1.382277 S    
C74   N2    1.365225 A    
C23   O79   1.384615 S    
C95   C119  1.414535 A    
C133  C171  1.401358 A    
C79   N3    1.366500 A    
C33   N17   1.433827 S    
N31   O158  1.300897 A    
O36   Cu8   1.971726 S    
C9    O65   1.384615 S    
O67   H3    0.988894 S    
C16   O72   1.385200 S    
O34   C66   1.292095 A    
C143  C175  1.400975 A    
C39   C47   1.409190 A    
N40   O175  1.300485 A    
C1    C50   1.457756 S    
O16   C8    1.289636 A    
C133  O133  1.382991 S    
O1    Cu1   1.971358 S    
C141  O141  1.384842 S    
C3    C52   1.457756 S    
C6    C55   1.457798 S    
C137  C173  1.401463 A    
O30   C64   1.304588 A    
C86   O62   1.349134 S    
C81   O57   1.349455 S    
N33   O162  1.300895 A    
O6    C2    1.288917 A    
C14   C30   1.405993 A    
O22   C60   1.302238 A    
O40   C66   1.294408 A    
C73   N1    1.365472 A    
C134  C150  1.417315 A    
N31   O157  1.301060 A    
C94   C118  1.414530 A    
O7    C1    1.288901 A    
O75   H11   0.988283 S    
C75   N1    1.365474 A    
C5    C54   1.457736 S    
C138  C154  1.417280 A    
C102  C112  1.416469 A    
C98   C122  1.414535 A    
C130  O130  1.384842 S    
C135  O135  1.383005 S    
C123  O123  1.382146 S    
C88   C102  1.416000 A    
O23   C59   1.302306 A    
O71   H7    0.988288 S    
C117  O117  1.382148 S    
C132  C170  1.400971 A    
N11   O86   1.300718 A    
O131  H35   0.987752 S    
C138  C174  1.401671 A    
C57   C161  1.497355 S    
C108  C109  1.412883 A    
C132  O132  1.384840 S    
C4    C49   1.457809 S    
O28   Cu12  1.960044 S    
O9    C5    1.288898 A    
O24   C60   1.302237 A    
O35   Cu7   1.971735 S    
N14   O91   1.301034 A    
O32   C64   1.304583 A    
O127  H31   0.990938 S    
O47   Cu9   1.971731 S    
C37   N21   1.436444 S    
C74   O50   1.349144 S    
C17   C53   1.406244 A    
N12   O87   1.301139 A    
N10   O83   1.301141 A    
C160  C168  1.423580 A    
O38   C68   1.294409 A    
C25   N9    1.436440 S    
C136  C152  1.417311 A    
O35   C67   1.292099 A    
C146  N26   1.432486 S    
C64   C168  1.497364 S    
C76   N2    1.365236 A    
C152  N32   1.434924 S    
O123  H27   0.990882 S    
C91   C115  1.415095 A    
N18   O99   1.301035 A    
C145  C161  1.423579 A    
N9    O82   1.300719 A    
O129  H33   0.987752 S    
C129  O129  1.384844 S    
N37   O169  1.300485 A    
O133  H37   0.988488 S    
N32   O160  1.300890 A    
C19   O75   1.385196 S    
C100  C110  1.414901 A    
C106  C111  1.418878 A    
C132  C148  1.412823 A    
C138  O138  1.383025 S    
N17   O97   1.301034 A    
C119  O119  1.382146 S    
N36   O168  1.300889 A    
C144  O144  1.384842 S    
N35   O165  1.301060 A    
C85   N7    1.365448 A    
C87   C101  1.416127 A    
O15   C5    1.289615 A    
C86   N8    1.365365 A    
O1    C1    1.289625 A    
C124  O124  1.382147 S    
N24   O111  1.301141 A    
C91   C105  1.416429 A    
C39   N23   1.436444 S    
Cu3   Cu4   2.669282 S    
C77   N3    1.366499 A    
C78   C96   1.410775 A    
C62   C166  1.489564 S    
Cu9   Cu11  2.686602 S    
O115  H19   0.990913 S    
O33   Cu5   1.971738 S    
C92   C116  1.415139 A    
O136  H40   0.988496 S    
C12   C52   1.406970 A    
O18   Cu6   1.960034 S    
