data_mof_unit_61116.cif
_audit_creation_date              2012-10-26T21:18:33-0400
_audit_creation_method            fapswitch 2.2
_symmetry_space_group_name_H-M    P1
_symmetry_Int_Tables_number       1
_space_group_crystal_system       triclinic
_cell_length_a                    10.443568
_cell_length_b                    11.735646
_cell_length_c                    16.172603
_cell_angle_alpha                 90.0001
_cell_angle_beta                  87.197283
_cell_angle_gamma                 90.00062
_cell_volume                      1979.77583917

loop_
_atom_site_label
_atom_site_type_symbol
_atom_type_description
_atom_site_fract_x
_atom_site_fract_y
_atom_site_fract_z
_atom_type_partial_charge
C1    C     C_R   0.500000 0.716775 0.500000 0.558661
C2    C     C_R   0.515364 0.499132 0.345500 0.559567
C3    C     C_R   0.480845 0.478747 0.746389 -0.050546
C4    C     C_R   0.519068 0.478738 0.253600 -0.050584
C5    C     C_R   0.597791 0.458026 0.783503 -0.150242
C6    C     C_R   0.401929 0.459127 0.216427 -0.150160
C7    C     C_R   0.601887 0.407319 0.862185 0.199225
C8    C     C_R   0.397309 0.408422 0.137776 0.199255
C9    C     C_R   0.487236 0.375625 0.904866 0.044517
C10   C     C_R   0.511614 0.375618 0.095171 0.044503
C11   C     C_R   0.368980 0.408323 0.873724 0.217943
C12   C     C_R   0.499999 0.283228 0.500000 0.546788
C13   C     C_R   0.630218 0.407221 0.126346 0.217902
C14   C     C_R   0.365424 0.464478 0.795557 0.064534
C15   C     C_R   0.634371 0.463367 0.204489 0.064590
C16   C     C_2   0.490288 0.272325 0.958835 0.414213
C17   C     C_2   0.507388 0.272295 0.041293 0.414167
C18   C     C_1   0.500001 0.838113 0.500001 0.008385
C19   C     C_1   0.499999 0.161896 0.500000 -0.000707
C20   C     C_1   0.500000 0.940293 0.500001 -0.008142
C21   C     C_1   0.499999 0.059719 0.500000 -0.011997
C22   C     C_1   0.928010 0.499999 0.499996 0.139767
C23   C     C_1   0.071990 0.499999 0.500004 0.139714
C24   C     C_R   0.484633 0.499163 0.654497 0.559650
Cu1   Cu    Cu3+1 0.374700 0.500000 0.500000 1.037466
Cu2   Cu    Cu3+1 0.625300 0.500000 0.500000 1.037551
H1    H     H_    0.687341 0.473182 0.748610 0.147389
H2    H     H_    0.312524 0.475170 0.251259 0.147499
H3    H     H_    0.526174 0.178053 0.139016 0.317483
H4    H     H_    0.470404 0.178146 0.861199 0.317528
H5    H     H_    0.184756 0.379734 0.884019 0.363854
H6    H     H_    0.814078 0.376808 0.116153 0.363969
H7    H     H_    0.210631 0.406375 0.142920 0.346386
H8    H     H_    0.788526 0.403504 0.856959 0.346159
I1    I     I_    0.813010 0.528760 0.244332 -0.285072
I2    I     I_    0.187590 0.531654 0.755756 -0.284626
N1    N     N_1   0.813590 0.500000 0.499990 -0.171253
N2    N     N_1   0.186410 0.500000 0.500010 -0.171298
O1    O     O_R   0.394190 0.662800 0.500010 -0.478528
O2    O     O_3   0.480509 0.166788 0.921321 -0.594589
O3    O     O_3   0.259194 0.376983 0.919267 -0.615736
O4    O     O_3   0.739663 0.374834 0.080860 -0.615768
O5    O     O_3   0.281930 0.378417 0.105548 -0.619390
O6    O     O_3   0.716936 0.376245 0.894381 -0.619499
O7    O     O_R   0.605810 0.337200 0.499990 -0.485742
O8    O     O_R   0.605810 0.662800 0.499990 -0.478593
O9    O     O_R   0.394190 0.337200 0.500010 -0.485782
O10   O     O_R   0.381920 0.500000 0.613600 -0.450840
O11   O     O_R   0.618080 0.500000 0.386400 -0.450689
O12   O     O_R   0.593540 0.500000 0.613600 -0.497101
O13   O     O_R   0.406460 0.500000 0.386400 -0.497144
O14   O     O_3   0.515961 0.166719 0.078901 -0.594637

loop_
_geom_bond_atom_site_label_1
_geom_bond_atom_site_label_2
_ccdc_geom_bond_type
C2    C4    S    
Cu1   O13   S    
Cu2   N1    S    
C2    O11   A    
Cu1   N2    S    
C23   N2    T    
Cu1   O9    S    
C8    O5    S    
C4    C15   A    
C13   C15   A    
C3    C24   S    
H4    O2    S    
C7    O6    S    
Cu1   O1    S    
C14   I2    S    
C9    C11   A    
Cu1   O10   S    
C1    C18   S    
C3    C14   A    
C16   O2    S    
C12   O9    A    
C6    C8    A    
C12   C19   S    
C4    C6    A    
C13   O4    S    
C19   C21   T    
C9    C16   S    
C11   O3    S    
C18   C20   T    
Cu2   O12   S    
C24   O12   A    
C11   C14   A    
C1    O8    A    
C2    O13   A    
C1    O1    A    
C10   C17   S    
H7    O5    S    
C7    C9    A    
H8    O6    S    
C20   C21   S    
C17   O14   S    
C8    C10   A    
Cu2   O11   S    
C15   I1    S    
C5    C7    A    
Cu2   O8    S    
C22   C23   S    
C16   C17   D    
H6    O4    S    
H5    O3    S    
Cu2   O7    S    
Cu1   Cu2   S    
C5    H1    S    
C22   N1    T    
C10   C13   A    
C6    H2    S    
C12   O7    A    
C3    C5    A    
H3    O14   S    
C24   O10   A    
