data_mof_unit_10241.cif
_audit_creation_date              2013-03-05T15:53:01-0500
_audit_creation_method            fapswitch 2.2
_symmetry_space_group_name_H-M    P1
_symmetry_Int_Tables_number       1
_space_group_crystal_system       triclinic
_cell_length_a                    8.528109
_cell_length_b                    17.488167
_cell_length_c                    18.914102
_cell_angle_alpha                 99.031855
_cell_angle_beta                  92.109711
_cell_angle_gamma                 96.18967
_cell_volume                      2765.50044987

loop_
_atom_site_label
_atom_site_type_symbol
_atom_site_description
_atom_site_fract_x
_atom_site_fract_y
_atom_site_fract_z
_atom_type_partial_charge
P1    P     P_3+3 0.048060 0.426210 0.336320 0.529601
O1    O     O_2   0.878040 0.448040 0.325130 -0.381382
O2    O     O_3   0.126800 0.453980 0.414370 -0.375175
O3    O     O_3   0.651020 0.589120 0.368830 -0.321574
O4    O     O_2   0.755968 0.529081 0.245003 -0.372057
O5    O     O_3   0.010026 0.324072 0.324632 -0.567159
O6    O     O_3   0.693403 0.670012 0.248769 -0.505700
C1    C     C_3   0.623087 0.790182 0.213346 -0.615277
H1    H     H_    0.668678 0.769438 0.160637 0.200944
P2    P     P_3+3 0.655920 0.678120 0.556130 0.503283
P3    P     P_3+3 0.112722 0.733101 0.411552 0.472976
O7    O     O_2   0.830300 0.688050 0.534560 -0.296090
O8    O     O_3   0.068750 0.630380 0.404830 -0.386166
O9    O     O_2   0.971139 0.770113 0.446119 -0.351104
O10   O     O_3   0.682020 0.724596 0.646442 -0.632544
O11   O     O_3   0.107770 0.759167 0.325584 -0.559072
C2    C     C_3   0.085309 0.692306 0.272742 0.435498
H2    H     H_    0.965671 0.662601 0.275654 0.189045
H3    H     H_    0.171105 0.650956 0.281470 -0.031859
C3    C     C_3   0.111040 0.714001 0.197331 -0.529354
C4    C     C_3   0.249489 0.721396 0.659804 0.216575
H4    H     H_    0.348251 0.692275 0.635142 0.076078
C5    C     C_3   0.318225 0.797146 0.709000 0.017991
H5    H     H_    0.410866 0.782043 0.745788 0.091620
H6    H     H_    0.223892 0.820202 0.742737 0.116550
Ba1   Ba    Ba6+2 0.849550 0.533890 0.465080 1.625007
C6    C     C_3   0.967990 0.298977 0.388799 0.294706
H7    H     H_    0.854175 0.319713 0.404479 0.025837
H8    H     H_    0.058852 0.322078 0.432849 0.086801
C7    C     C_3   0.954513 0.209340 0.380183 0.899348
H9    H     H_    0.912865 0.196507 0.431742 -0.103259
C8    C     C_3   0.664402 0.680709 0.701805 0.305643
H10   H     H_    0.538050 0.664565 0.710237 0.075551
C9    C     C_3   0.743382 0.734830 0.769580 -0.723298
H11   H     H_    0.866015 0.757778 0.758310 0.207462
H12   H     H_    0.676804 0.786467 0.781428 0.164766
P4    P     P_3+3 0.141640 0.573850 0.663690 0.493007
O12   O     O_2   0.311660 0.551990 0.674910 -0.371403
O13   O     O_3   0.062910 0.546080 0.585630 -0.346369
O14   O     O_3   0.538690 0.410940 0.631180 -0.281265
O15   O     O_3   0.158530 0.674114 0.699685 -0.639289
P5    P     P_3+3 0.088219 0.269913 0.598061 0.474007
O16   O     O_3   0.620260 0.406250 0.463620 -0.366229
O17   O     O_3   0.120960 0.369680 0.595180 -0.392184
O18   O     O_2   0.215870 0.230904 0.553890 -0.365604
O19   O     O_3   0.129308 0.256206 0.686387 -0.466413
Ba2   Ba    Ba6+2 0.340280 0.466170 0.534930 1.637496
P6    P     P_3+3 0.627806 0.579419 0.274340 0.504356
C10   C     C_3   0.570389 0.717779 0.248646 0.296982
H13   H     H_    0.466301 0.684507 0.217120 -0.012785
O20   O     O_3   0.569440 0.593820 0.536390 -0.386877
C11   C     C_3   0.485605 0.248145 0.299353 1.483632
C12   C     C_3   0.458883 0.157836 0.269679 -0.692456
H14   H     H_    0.346729 0.131960 0.288975 0.164966
H15   H     H_    0.552202 0.127308 0.291609 0.236487
P7    P     P_3+3 0.538982 0.307556 0.449991 0.499893
O21   O     O_2   0.359400 0.311980 0.465480 -0.318019
O22   O     O_3   0.576793 0.254610 0.365389 -0.668718
H16   H     H_    0.239267 0.723014 0.191166 0.093905
C13   C     C_3   0.051347 0.309613 0.732099 0.299732
H17   H     H_    0.117210 0.368506 0.735697 0.128658
H18   H     H_    0.927437 0.310955 0.712332 0.019634
C14   C     C_3   0.048045 0.289577 0.808024 -0.608232
H19   H     H_    0.980285 0.330361 0.841638 0.175917
H20   H     H_    0.169111 0.298326 0.832627 0.253729
P8    P     P_3+3 0.573998 0.415433 0.724139 0.531815
C15   C     C_3   0.546814 0.275254 0.762589 1.170415
H21   H     H_    0.671410 0.297067 0.781467 -0.382095
O23   O     O_2   0.487225 0.485173 0.755348 -0.380412
O24   O     O_3   0.458894 0.337747 0.753982 -0.556199
H22   H     H_    0.556027 0.195086 0.839849 -0.034385
C16   C     C_3   0.469612 0.231655 0.820559 0.802875
C17   C     C_R   0.009564 0.456294 0.045522 0.042012
C18   C     C_R   0.911044 0.423310 0.093751 0.172372
C19   C     C_R   0.752512 0.397074 0.072221 -0.179982
C20   C     C_R   0.692355 0.403974 0.003999 -0.174161
C21   C     C_R   0.791253 0.432354 0.954020 0.118098
C22   C     C_R   0.950241 0.459205 0.974863 -0.004664
C23   C     C_R   0.733601 0.433551 0.883623 -0.223969
C24   C     C_R   0.834573 0.456956 0.831469 0.013937
C25   C     C_R   0.991328 0.490018 0.853683 0.023653
C26   C     C_R   0.048139 0.490946 0.925822 -0.033503
C27   C     C_R   0.785599 0.446259 0.757658 0.185893
C28   C     C_R   0.895195 0.468642 0.708154 -0.490547
C29   C     C_R   0.038396 0.515983 0.730577 0.254201
C30   C     C_R   0.089929 0.523931 0.804717 -0.026605
C31   C     C_R   0.165901 0.487455 0.068324 0.002285
C32   C     C_R   0.220900 0.489470 0.140822 0.035648
C33   C     C_R   0.119382 0.457774 0.190122 -0.117888
C34   C     C_R   0.969972 0.420146 0.163616 -0.127223
H23   H     H_    0.673279 0.373306 0.108756 0.136140
H24   H     H_    0.567981 0.387302 0.990428 0.170131
H25   H     H_    0.860731 0.456843 0.651586 0.194445
H26   H     H_    0.610653 0.413811 0.869612 0.189624
H27   H     H_    0.898470 0.388667 0.197371 0.150828
C35   C     C_R   0.238487 0.562597 0.831684 -0.131060
C36   C     C_R   0.298229 0.558104 0.901102 0.124288
C37   C     C_R   0.203561 0.522729 0.948746 0.022317
C38   C     C_R   0.263402 0.520981 0.019713 -0.022125
C39   C     C_R   0.453500 0.588146 0.922901 -0.285321
C40   C     C_R   0.516203 0.586312 0.991993 -0.044894
C41   C     C_R   0.419937 0.553557 0.042031 0.068492
C42   C     C_R   0.376226 0.524081 0.163710 -0.123269
C43   C     C_R   0.475471 0.552075 0.113046 -0.180666
C44   C     C_R   0.427570 0.530526 0.236862 -0.016133
C45   C     C_R   0.324162 0.500387 0.285193 0.229619
C46   C     C_R   0.170317 0.465016 0.264099 0.099773
H28   H     H_    0.312305 0.594774 0.798859 0.168936
H29   H     H_    0.525837 0.613985 0.885504 0.161962
H30   H     H_    0.596489 0.573390 0.129298 0.239282
H31   H     H_    0.474288 0.145681 0.472272 0.140117
C47   C     C_R   0.395702 0.729378 0.491648 -0.479434
C48   C     C_R   0.553012 0.749841 0.514173 0.370323
C49   C     C_R   0.615817 0.828359 0.518486 -0.146432
C50   C     C_R   0.524787 0.882728 0.493373 0.090590
C51   C     C_R   0.369325 0.856897 0.461559 -0.179528
C52   C     C_R   0.304495 0.778467 0.461058 0.168646
C53   C     C_R   0.586069 0.169079 0.500716 -0.134335
C54   C     C_R   0.632940 0.249966 0.510232 0.322001
C55   C     C_R   0.885411 0.228957 0.564297 0.203126
C56   C     C_R   0.839001 0.148027 0.553218 -0.329262
C57   C     C_R   0.688352 0.117650 0.521769 0.073417
C58   C     C_1   0.637351 0.034085 0.511460 -0.007721
C59   C     C_1   0.589544 0.964919 0.503204 0.043033
C60   C     C_R   0.780535 0.279498 0.544262 -0.464672
H32   H     H_    0.920159 0.109132 0.568462 0.142408
H33   H     H_    0.733640 0.847324 0.542530 0.115887
H34   H     H_    0.342226 0.674504 0.501107 0.131944
H35   H     H_    0.820265 0.340989 0.548366 0.142299
C61   C     C_2   0.526798 0.744485 0.323263 0.446094
H36   H     H_    0.409489 0.759788 0.332415 0.025665
O25   O     O_2   0.626338 0.753120 0.372509 -0.570266
O26   O     O_3   0.373407 0.854474 0.667328 -0.617026
C62   C     C_3   0.515382 0.898257 0.699905 -0.224077
H37   H     H_    0.617433 0.863575 0.689684 0.180221
H38   H     H_    0.506869 0.918325 0.758986 0.124499
H39   H     H_    0.538509 0.951068 0.674500 0.149087
O27   O     O_3   0.833896 0.171792 0.328559 -0.660152
C63   C     C_3   0.886248 0.154556 0.258556 -0.010435
H40   H     H_    0.907821 0.208158 0.234204 0.156604
H41   H     H_    0.791413 0.115847 0.225160 0.185889
H42   H     H_    0.988535 0.120257 0.255933 0.129697
O28   O     O_3   0.104630 0.182582 0.368959 -0.637005
C64   C     C_3   0.111024 0.111229 0.394797 -0.193272
H43   H     H_    0.018971 0.065361 0.367110 0.174263
H44   H     H_    0.099300 0.118350 0.453694 0.146086
H45   H     H_    0.228039 0.091196 0.384385 0.201950
C65   C     C_2   0.745533 0.611093 0.685771 0.688813
H46   H     H_    0.867260 0.615756 0.702208 -0.007356
O29   O     O_2   0.677831 0.552208 0.649987 -0.551306
C66   C     C_2   0.754448 0.844862 0.256608 0.696716
H47   H     H_    0.822288 0.825814 0.298908 0.101138
O30   O     O_2   0.791313 0.909854 0.242122 -0.566781
C67   C     C_2   0.753285 0.699172 0.836849 0.456714
H48   H     H_    0.735594 0.734432 0.888766 0.045064
O31   O     O_2   0.792075 0.633314 0.835000 -0.628085
C68   C     C_2   0.485415 0.834062 0.199131 0.603983
H49   H     H_    0.426350 0.824068 0.146063 0.004172
O32   O     O_2   0.437150 0.879580 0.247051 -0.492529
O33   O     O_3   0.337016 0.278455 0.306090 -0.625140
C69   C     C_3   0.253151 0.265904 0.237506 -0.275199
H50   H     H_    0.178209 0.209457 0.229216 0.141694
H51   H     H_    0.328744 0.266448 0.190800 0.116508
H52   H     H_    0.179603 0.312801 0.232716 0.184145
O34   O     O_3   0.583610 0.285556 0.252181 -0.679661
C70   C     C_3   0.575963 0.366566 0.264135 -0.056412
H53   H     H_    0.466238 0.380523 0.238900 0.081757
H54   H     H_    0.668844 0.393439 0.235090 0.165502
H55   H     H_    0.589617 0.392414 0.321807 0.193665
C71   C     C_2   0.452619 0.135912 0.188584 0.573955
H56   H     H_    0.346659 0.103036 0.160392 0.021026
O35   O     O_2   0.565383 0.154440 0.153970 -0.565347
C72   C     C_2   0.974371 0.208067 0.809339 0.641111
H57   H     H_    0.006742 0.159743 0.771416 0.067094
O36   O     O_2   0.877058 0.195548 0.853245 -0.625664
O37   O     O_3   0.539938 0.224433 0.696017 -0.611140
C73   C     C_3   0.649288 0.169144 0.696596 -0.383148
H58   H     H_    0.652724 0.142057 0.745546 0.120157
H59   H     H_    0.769374 0.195645 0.688736 0.167161
H60   H     H_    0.612549 0.119907 0.653037 0.193850
O38   O     O_3   0.323581 0.189136 0.791488 -0.616461
C74   C     C_3   0.331576 0.107833 0.773358 -0.284548
H61   H     H_    0.215994 0.077008 0.783649 0.162541
H62   H     H_    0.423437 0.084569 0.805168 0.107715
H63   H     H_    0.348481 0.092474 0.714715 0.200598
O39   O     O_3   0.441415 0.286696 0.880873 -0.682876
C75   C     C_3   0.375520 0.248480 0.936066 -0.217914
H64   H     H_    0.335411 0.184565 0.919722 0.159528
H65   H     H_    0.269824 0.277663 0.955250 0.164631
H66   H     H_    0.465171 0.255009 0.982296 0.160586
C76   C     C_2   0.682139 0.620529 0.008423 0.486916
H67   H     H_    0.770150 0.607877 0.969634 0.076987
O40   O     O_2   0.720268 0.667058 0.062818 -0.617164
O41   O     O_3   0.379352 0.500640 0.354233 -0.625840
C77   C     C_3   0.352418 0.571831 0.394850 0.269409
H68   H     H_    0.265116 0.565582 0.434320 0.149674
H69   H     H_    0.339199 0.620325 0.364492 -0.081043
H70   H     H_    0.450190 0.590811 0.431829 0.136043
C78   C     C_2   0.275506 0.909969 0.428226 0.602875
H71   H     H_    0.147707 0.899841 0.424190 0.046594
O42   O     O_2   0.339840 0.964368 0.402832 -0.579536
C79   C     C_2   0.045451 0.649989 0.137912 0.483756
H72   H     H_    0.092056 0.648160 0.085120 0.025883
O43   O     O_2   0.936644 0.601857 0.146962 -0.531572
C80   C     C_2   0.046929 0.788034 0.185780 0.624979
H73   H     H_    0.946933 0.786507 0.148053 0.020066
O44   O     O_2   0.107465 0.850938 0.218010 -0.504166
C81   C     C_2   0.142640 0.738678 0.602994 0.575167
H74   H     H_    0.091876 0.793415 0.606298 0.006870
O45   O     O_2   0.106250 0.687136 0.552735 -0.531093

loop_
_geom_bond_atom_site_label_1
_geom_bond_atom_site_label_2
_geom_bond_distance
_ccdc_geom_bond_type
C11   O33   1.427759 S    
O14   Ba2   2.790666 S    
C31   C32   1.426680 A    
C14   H20   1.101880 S    
C68   H49   1.086482 S    
C7    O27   1.421889 S    
C6    H8    1.112252 S    
P3    O8    1.778587 S    
C17   C18   1.409934 A    
C36   C39   1.393269 A    
C62   H39   1.108959 S    
C49   C50   1.416391 A    
C58   C59   1.217939 T    
C45   O41   1.370832 S    
P8    O24   1.766896 S    
C72   H57   1.086021 S    
P7    O21   1.577577 D    
O34   C70   1.408152 S    
C79   O43   1.219576 D    
H31   C53   1.083803 S    
C4    C81   1.471557 S    
P4    C29   1.921376 S    
C65   O29   1.214950 D    
C16   O38   1.423977 S    
C15   C16   1.557056 S    
C10   C61   1.489045 S    
P2    O10   1.767798 S    
C24   C27   1.420090 A    
C53   C57   1.408696 A    
C47   C52   1.394107 A    
C9    H11   1.119378 S    
P3    O9    1.548580 D    
Ba1   O13   2.830788 S    
P8    O23   1.544113 D    
C71   H56   1.089813 S    
P2    O20   1.558588 S    
O28   C64   1.415306 S    
O38   C74   1.418952 S    
C2    C3    1.549674 S    
C51   C52   1.420942 A    
C13   H18   1.111758 S    
P1    O1    1.554036 D    
P5    O19   1.752691 S    
C74   H61   1.110214 S    
C17   C31   1.409880 A    
C75   H66   1.123739 S    
C2    H3    1.108250 S    
P8    C27   1.883527 S    
C53   C54   1.409252 A    
P6    C44   1.885557 S    
C1    H1    1.105473 S    
C73   H59   1.102805 S    
C38   C41   1.415563 A    
C17   C22   1.421897 A    
P4    Ba2   3.449451 S    
C15   O37   1.418003 S    
C67   O31   1.227800 D    
C25   C30   1.427875 A    
O17   Ba2   2.779294 S    
C19   H23   1.082066 S    
C36   C37   1.402669 A    
C28   H25   1.080822 S    
C77   H70   1.057875 S    
P2    Ba1   3.434873 S    
C72   O36   1.222670 D    
O41   C77   1.402622 S    
C35   H28   1.077260 S    
O39   C75   1.425998 S    
C39   H29   1.075845 S    
C68   O32   1.223183 D    
O14   P8    1.760900 S    
C4    H4    1.110484 S    
C6    C7    1.541630 S    
C70   H54   1.087623 S    
C26   C37   1.406023 A    
O5    C6    1.399792 S    
P5    O17   1.746702 S    
C3    C80   1.501852 S    
C64   H45   1.107039 S    
C1    C68   1.508465 S    
P2    O7    1.555437 D    
C47   C48   1.384149 A    
C69   H51   1.113258 S    
Ba1   O16   2.800445 S    
C14   C72   1.498828 S    
C31   C38   1.414544 A    
C12   H15   1.107829 S    
C11   O22   1.429249 S    
O4    P6    1.541498 D    
C75   H65   1.126836 S    
C79   H72   1.085339 S    
C5    O26   1.421792 S    
C14   H19   1.104715 S    
C15   H21   1.115335 S    
C40   C41   1.422622 A    
C34   H27   1.071978 S    
C1    C66   1.514853 S    
C28   C29   1.410787 A    
O6    C10   1.409886 S    
C23   H26   1.077746 S    
C64   H44   1.110757 S    
C18   C19   1.403998 A    
C81   H74   1.086388 S    
C51   C78   1.485184 S    
C55   C60   1.405515 A    
O11   C2    1.404821 S    
Ba2   O20   2.799893 S    
C21   C22   1.406953 A    
C25   C26   1.428071 A    
C7    O28   1.421621 S    
C77   H68   1.082850 S    
O7    Ba1   2.832173 S    
C13   H17   1.109643 S    
P1    O2    1.580400 S    
C74   H63   1.117941 S    
C8    C9    1.552678 S    
C61   O25   1.216949 D    
C19   C20   1.398673 A    
C76   O40   1.217303 D    
P4    O12   1.554311 D    
C11   O34   1.429304 S    
Ba2   O21   2.832260 S    
O26   C62   1.424406 S    
P3    O11   1.756508 S    
C22   C26   1.408636 A    
O3    Ba1   2.791303 S    
C27   C28   1.415668 A    
C7    H9    1.097521 S    
C66   H47   1.084873 S    
C73   H60   1.103842 S    
C35   C36   1.407630 A    
C33   C46   1.431864 A    
O12   Ba2   2.863710 S    
C2    H2    1.101236 S    
C56   C57   1.408536 A    
C21   C23   1.406365 A    
C42   C44   1.419352 A    
C20   C21   1.402499 A    
C3    H16   1.101023 S    
C41   C43   1.412742 A    
C16   O39   1.418134 S    
C67   H48   1.099144 S    
P2    C48   1.863270 S    
C30   C35   1.407801 A    
C12   C71   1.519009 S    
C20   H24   1.079677 S    
O10   C8    1.395413 S    
C4    O15   1.398230 S    
Ba1   Ba2   4.670670 S    
O37   C73   1.414821 S    
P1    C46   1.912307 S    
C37   C38   1.424400 A    
C9    C67   1.505790 S    
C4    C5    1.539389 S    
C70   H53   1.102709 S    
P7    C54   1.849807 S    
C13   C14   1.531234 S    
O8    Ba1   2.778657 S    
P3    C52   1.885504 S    
C54   C60   1.400411 A    
C42   C43   1.411359 A    
C32   C42   1.418123 A    
C11   C12   1.579855 S    
C69   H52   1.097429 S    
O13   Ba2   2.987796 S    
C48   C49   1.407848 A    
O3    P6    1.770175 S    
C76   H67   1.084415 S    
C80   H73   1.086941 S    
C50   C59   1.463879 S    
P1    O5    1.757954 S    
O19   C13   1.408764 S    
O2    Ba1   2.986975 S    
C24   C25   1.419024 A    
C40   C76   1.477785 S    
C29   C30   1.434968 A    
O1    Ba1   2.863237 S    
C62   H38   1.124955 S    
C63   H40   1.108761 S    
C12   H14   1.112216 S    
C62   H37   1.118949 S    
C8    C65   1.460844 S    
C44   C45   1.414774 A    
C64   H43   1.111759 S    
C15   O24   1.416574 S    
O6    P6    1.768140 S    
C18   C34   1.407767 A    
C61   H36   1.076276 S    
C57   C58   1.459484 S    
C3    C79   1.500935 S    
C56   H32   1.083153 S    
P4    O13   1.580534 S    
C69   H50   1.102490 S    
Ba1   O20   2.992876 S    
C8    H10   1.107900 S    
C43   H30   1.075308 S    
C49   H33   1.083323 S    
C63   H41   1.105171 S    
P5    C55   1.849372 S    
P1    Ba1   3.448811 S    
C71   O35   1.226451 D    
O2    Ba2   2.831553 S    
C39   C40   1.400059 A    
C63   H42   1.108988 S    
P7    O22   1.777368 S    
C9    H12   1.115551 S    
C65   H46   1.063478 S    
C66   O30   1.221801 D    
P4    O15   1.766997 S    
O33   C69   1.432088 S    
C74   H62   1.118977 S    
C47   H34   1.061350 S    
O27   C63   1.410865 S    
C73   H58   1.105045 S    
C5    H5    1.113700 S    
C23   C24   1.412584 A    
C60   H35   1.081903 S    
O16   P7    1.764954 S    
C78   H71   1.083076 S    
C5    H6    1.115302 S    
H22   C16   1.113681 S    
C32   C33   1.429867 A    
C70   H55   1.110072 S    
C81   O45   1.208871 D    
C10   H13   1.105808 S    
C45   C46   1.404330 A    
C6    H7    1.106754 S    
C78   O42   1.219442 D    
C55   C56   1.408422 A    
C75   H64   1.123933 S    
C33   C34   1.405879 A    
C80   O44   1.221532 D    
O16   Ba2   2.991866 S    
C1    C10   1.554291 S    
P5    O18   1.548100 D    
C50   C51   1.432022 A    
C77   H69   1.109217 S    
