data_mof_unit_39990.cif
_audit_creation_date              2012-12-10T19:50:03-0500
_audit_creation_method            fapswitch 2.2
_symmetry_space_group_name_H-M    P1
_symmetry_Int_Tables_number       1
_space_group_crystal_system       triclinic
_cell_length_a                    14.265038
_cell_length_b                    15.033136
_cell_length_c                    15.413701
_cell_angle_alpha                 92.10185
_cell_angle_beta                  68.739994
_cell_angle_gamma                 89.772429
_cell_volume                      3077.88615543

loop_
_atom_site_label
_atom_site_type_symbol
_atom_type_description
_atom_site_fract_x
_atom_site_fract_y
_atom_site_fract_z
_atom_type_partial_charge
C1    C     C_R   0.501605 0.672176 0.494785 0.918758
C2    C     C_R   0.500520 0.328611 0.499636 0.929115
C3    C     C_R   0.397620 0.616106 0.096448 0.404400
C4    C     C_R   0.629693 0.568399 0.895304 0.358536
C5    C     C_R   0.324336 0.616987 0.054964 0.326922
C6    C     C_R   0.700466 0.549210 0.936317 0.333005
C7    C     C_R   0.416394 0.910524 0.502524 -0.095527
C8    C     C_R   0.566541 0.095253 0.412469 -0.079052
C9    C     C_R   0.414500 0.817717 0.501567 0.370543
C10   C     C_R   0.564817 0.187916 0.417048 0.365590
C11   C     C_R   0.505027 0.768381 0.483250 -0.326785
C12   C     C_R   0.502563 0.233573 0.498779 -0.271180
C13   C     C_R   0.598516 0.812133 0.455419 -0.173111
C14   C     C_R   0.443983 0.188967 0.578414 -0.188578
C15   C     C_R   0.597917 0.904390 0.470791 0.496301
C16   C     C_R   0.454919 0.096245 0.577652 0.478970
C17   C     C_R   0.507854 0.953148 0.490489 -0.007802
C18   C     C_R   0.511180 0.049838 0.493493 -0.019227
C19   C     C_R   0.878476 0.570052 0.542646 -0.233490
C20   C     C_R   0.131364 0.456204 0.429854 -0.249322
C21   C     C_R   0.779573 0.569036 0.542790 0.132919
C22   C     C_R   0.229909 0.454560 0.430808 0.122113
C23   C     C_R   0.437652 0.502362 0.676248 0.847348
C24   C     C_R   0.562459 0.502077 0.324238 0.849812
C25   C     C_R   0.813973 0.431411 0.456188 0.074450
C26   C     C_R   0.176283 0.545705 0.569791 0.104289
C27   C     C_R   0.911128 0.428412 0.460651 -0.231926
C28   C     C_R   0.076314 0.544050 0.572036 -0.233139
C29   C     C_R   0.945735 0.498736 0.502806 0.034575
C30   C     C_R   0.052221 0.499493 0.501713 0.055296
C31   C     C_R   0.402018 0.521258 0.777124 -0.103579
C32   C     C_R   0.600505 0.515272 0.224274 -0.090625
C33   C     C_R   0.276325 0.579215 0.921105 -0.120202
C34   C     C_R   0.736612 0.519712 0.075317 -0.119241
C35   C     C_R   0.302590 0.547779 0.828820 -0.194756
C36   C     C_R   0.703279 0.508204 0.170798 -0.231545
C37   C     C_R   0.473830 0.524707 0.819137 -0.165815
C38   C     C_R   0.532215 0.538743 0.182847 -0.159706
C39   C     C_R   0.450705 0.561087 0.909201 0.063370
C40   C     C_R   0.564544 0.555715 0.088238 0.049108
C41   C     C_R   0.349656 0.585521 0.962325 -0.016729
C42   C     C_R   0.667746 0.541312 0.032870 -0.005943
C43   C     C_R   0.525369 0.567945 0.949126 -0.168933
C44   C     C_R   0.494843 0.578652 0.046309 -0.167004
H1    H     H_    0.902232 0.627072 0.573863 0.169528
H2    H     H_    0.116862 0.422532 0.372865 0.180565
H3    H     H_    0.960381 0.371970 0.428657 0.185385
H4    H     H_    0.017457 0.578591 0.628718 0.179343
H5    H     H_    0.452850 0.539674 0.224344 0.219514
H6    H     H_    0.548539 0.497954 0.780893 0.193757
H7    H     H_    0.757394 0.491308 0.202218 0.152473
H8    H     H_    0.245773 0.545662 0.797732 0.188110
H9    H     H_    0.198770 0.598888 0.959754 0.179189
H10   H     H_    0.816098 0.510554 0.034868 0.179197
N1    N     N_R   0.747530 0.500020 0.500000 -0.185699
N2    N     N_R   0.252470 0.499980 0.500000 -0.179304
O1    O     O_R   0.420530 0.630930 0.499990 -0.599078
O2    O     O_R   0.579470 0.369070 0.500010 -0.611245
O3    O     O_R   0.579480 0.630940 0.499990 -0.663882
O4    O     O_R   0.420520 0.369060 0.500010 -0.649691
O5    O     O_R   0.375120 0.499990 0.632240 -0.641221
O6    O     O_R   0.624880 0.500010 0.367760 -0.644556
O7    O     O_R   0.534080 0.500000 0.632240 -0.638164
O8    O     O_R   0.465920 0.500000 0.367760 -0.651118
Zn1   Zn    Zn3+2 0.393860 0.499990 0.500000 0.918690
Zn2   Zn    Zn3+2 0.606140 0.500010 0.500000 0.913728
O9    O     O_3   0.231336 0.657165 0.101750 -0.644031
C45   C     C_3   0.168450 0.596703 0.163562 0.089685
H11   H     H_    0.195021 0.585587 0.221945 0.189172
H12   H     H_    0.166667 0.531521 0.127174 0.136385
C46   C     C_3   0.061707 0.636244 0.202712 -0.316000
H13   H     H_    0.062724 0.703237 0.235355 0.251003
H14   H     H_    0.033313 0.643748 0.145017 0.227611
C47   C     C_3   0.990687 0.577481 0.275426 -0.939611
H15   H     H_    0.987312 0.510162 0.244603 0.258288
H16   H     H_    0.913869 0.607834 0.302611 0.281741
H17   H     H_    0.017520 0.571632 0.334010 0.277377
O10   O     O_3   0.802476 0.544109 0.883328 -0.634950
C48   C     C_3   0.823150 0.469571 0.820045 0.100429
H18   H     H_    0.813169 0.488929 0.754922 0.188875
H19   H     H_    0.773701 0.412117 0.849322 0.115598
C49   C     C_3   0.932127 0.438983 0.796631 -0.343116
H20   H     H_    0.982979 0.495430 0.769703 0.266564
H21   H     H_    0.942029 0.417293 0.861004 0.224746
C50   C     C_3   0.961193 0.362007 0.723968 -0.913894
H22   H     H_    0.914397 0.303235 0.751607 0.264180
H23   H     H_    0.041535 0.343314 0.706507 0.284114
H24   H     H_    0.950578 0.381687 0.659368 0.270507
C51   C     C_2   0.711950 0.644052 0.589862 0.440967
H25   H     H_    0.633823 0.632773 0.630143 0.120832
O11   O     O_2   0.743318 0.719880 0.584694 -0.628382
C52   C     C_2   0.306366 0.400035 0.357255 0.408091
H26   H     H_    0.367020 0.368443 0.370759 0.109931
O12   O     O_2   0.300989 0.388018 0.280401 -0.615206
C53   C     C_2   0.788094 0.362141 0.398726 0.444428
H27   H     H_    0.734508 0.376175 0.366294 0.142027
O13   O     O_2   0.828709 0.288583 0.384679 -0.572225
C54   C     C_2   0.196680 0.600448 0.642517 0.384107
H28   H     H_    0.271203 0.622420 0.632883 0.166734
O14   O     O_2   0.128531 0.624716 0.714389 -0.616197
O15   O     O_3   0.376744 0.659910 0.182211 -0.662035
C55   C     C_3   0.392744 0.752340 0.169533 0.109127
H29   H     H_    0.340297 0.788467 0.232433 0.160179
H30   H     H_    0.375217 0.777262 0.109626 0.152404
C56   C     C_3   0.500461 0.776178 0.159303 -0.410057
H31   H     H_    0.516424 0.752923 0.220297 0.238533
H32   H     H_    0.554674 0.743047 0.095075 0.224572
C57   C     C_3   0.515706 0.876384 0.152554 -0.856096
H33   H     H_    0.499977 0.900841 0.091951 0.246744
H34   H     H_    0.594920 0.891405 0.142827 0.295736
H35   H     H_    0.465086 0.911683 0.217295 0.287681
O16   O     O_3   0.663276 0.600271 0.806421 -0.684017
C58   C     C_3   0.684207 0.692161 0.811248 0.127291
H36   H     H_    0.749134 0.706519 0.747445 0.198378
H37   H     H_    0.708510 0.712214 0.870282 0.137161
C59   C     C_3   0.592845 0.749181 0.816320 -0.337809
H38   H     H_    0.561829 0.723902 0.763904 0.234919
H39   H     H_    0.533018 0.745070 0.886349 0.209836
C60   C     C_3   0.620647 0.846385 0.798646 -0.963887
H40   H     H_    0.684066 0.852356 0.731208 0.289159
H41   H     H_    0.642207 0.875935 0.855694 0.266003
H42   H     H_    0.554928 0.883771 0.795483 0.262816
C61   C     C_2   0.321198 0.960805 0.517142 0.506398
H43   H     H_    0.249536 0.934022 0.559988 0.096775
O17   O     O_2   0.321340 0.030467 0.478787 -0.575787
C62   C     C_2   0.624764 0.048954 0.321407 0.512368
H44   H     H_    0.689613 0.080461 0.272162 0.102681
O18   O     O_2   0.599044 0.977278 0.298614 -0.609683
O19   O     O_3   0.322662 0.776000 0.523376 -0.646456
C63   C     C_3   0.297663 0.764931 0.442575 0.076806
H45   H     H_    0.330227 0.700659 0.405842 0.200094
H46   H     H_    0.326474 0.818931 0.392341 0.116437
C64   C     C_3   0.182844 0.764181 0.472106 -0.347829
H47   H     H_    0.149879 0.725006 0.535232 0.248677
H48   H     H_    0.152316 0.833309 0.490168 0.215474
C65   C     C_3   0.149529 0.724256 0.395722 -0.902541
H49   H     H_    0.174375 0.766166 0.333972 0.268186
H50   H     H_    0.066162 0.720963 0.421959 0.275489
H51   H     H_    0.180972 0.655697 0.375202 0.272621
O20   O     O_3   0.625841 0.234177 0.341613 -0.648466
C66   C     C_3   0.573500 0.250987 0.281477 0.044190
H52   H     H_    0.525680 0.311577 0.307592 0.148151
H53   H     H_    0.525262 0.194504 0.275552 0.149633
C67   C     C_3   0.649745 0.267478 0.184390 -0.332318
H54   H     H_    0.698760 0.323245 0.188900 0.230512
H55   H     H_    0.698092 0.207030 0.157081 0.223284
C68   C     C_3   0.597655 0.289909 0.116935 -0.906250
H56   H     H_    0.553678 0.232287 0.106808 0.268710
H57   H     H_    0.654962 0.305821 0.048483 0.257235
H58   H     H_    0.546240 0.348408 0.144065 0.281657
C69   C     C_2   0.694833 0.763624 0.400829 0.570411
H59   H     H_    0.693585 0.700267 0.365292 0.044864
O21   O     O_2   0.776710 0.794461 0.391740 -0.534410
C70   C     C_2   0.372482 0.239233 0.661579 0.465282
H60   H     H_    0.381787 0.309768 0.672583 0.040205
O22   O     O_2   0.300852 0.202927 0.717841 -0.528795
O23   O     O_3   0.686841 0.949122 0.455971 -0.610870
C71   C     C_3   0.710459 0.950140 0.537703 0.135346
H61   H     H_    0.778768 0.907869 0.523962 0.228993
H62   H     H_    0.650372 0.923544 0.599810 0.108758
C72   C     C_3   0.733676 0.045476 0.560564 -0.365002
H63   H     H_    0.798247 0.069796 0.501182 0.266094
H64   H     H_    0.667604 0.089648 0.570855 0.208571
C73   C     C_3   0.759371 0.050899 0.648463 -0.954428
H65   H     H_    0.694399 0.030068 0.709484 0.258841
H66   H     H_    0.777520 0.120583 0.661961 0.276786
H67   H     H_    0.825585 0.007436 0.639768 0.277643
O24   O     O_3   0.403346 0.049246 0.656127 -0.610098
C74   C     C_3   0.453699 0.056807 0.719936 0.086171
H68   H     H_    0.475803 0.126549 0.729183 0.141821
H69   H     H_    0.522449 0.013999 0.695121 0.113217
C75   C     C_3   0.384450 0.025268 0.814559 -0.270220
H70   H     H_    0.308699 0.056849 0.833384 0.269496
H71   H     H_    0.376368 0.951896 0.810072 0.210040
C76   C     C_3   0.425333 0.049388 0.891124 -0.969461
H72   H     H_    0.503654 0.023982 0.872095 0.260087
H73   H     H_    0.377511 0.019722 0.957177 0.274725
H74   H     H_    0.424320 0.122834 0.902549 0.275742

loop_
_geom_bond_atom_site_label_1
_geom_bond_atom_site_label_2
_ccdc_geom_bond_type
C62   H44   S    
C27   C29   A    
C74   H68   S    
C53   H27   S    
C34   C42   A    
C5    O9    S    
C2    C12   S    
N1    Zn2   S    
C72   H63   S    
C61   H43   S    
C39   C41   A    
C38   H5    S    
C20   C30   A    
C50   H22   S    
C59   H38   S    
C56   H32   S    
O15   C55   S    
C47   H16   S    
C15   O23   S    
C32   C36   A    
C73   H65   S    
C68   H57   S    
O19   C63   S    
C66   H53   S    
O3    Zn2   S    
C2    O4    A    
C61   O17   D    
N2    Zn1   S    
C57   H33   S    
C76   H73   S    
C55   C56   S    
C7    C9    A    
C71   C72   S    
C33   C35   A    
O2    Zn2   S    
O23   C71   S    
C68   H56   S    
C59   H39   S    
C45   H11   S    
C7    C17   A    
C47   H17   S    
C1    C11   S    
C64   C65   S    
C24   O6    A    
C69   H59   S    
C2    O2    A    
C32   C38   A    
C51   O11   D    
C70   O22   D    
C75   C76   S    
C16   C18   A    
C58   C59   S    
C3    O15   S    
C23   O7    A    
C4    O16   S    
O7    Zn2   S    
C24   O8    A    
C14   C70   S    
C71   H62   S    
C74   H69   S    
C10   O20   S    
C67   C68   S    
O16   C58   S    
C72   H64   S    
C75   H71   S    
C76   H74   S    
C60   H41   S    
C33   H9    S    
C56   C57   S    
C3    C44   A    
C47   H15   S    
O6    Zn2   S    
C50   H23   S    
O9    C45   S    
C25   N1    A    
C68   H58   S    
O20   C66   S    
C13   C69   S    
C4    C6    A    
C66   C67   S    
O1    Zn1   S    
C46   H14   S    
O10   C48   S    
C65   H49   S    
C22   N2    A    
C49   H20   S    
C8    C18   A    
C31   C37   A    
C23   C31   S    
C63   H46   S    
C43   C44   A    
C24   C32   S    
C29   C30   S    
C1    O1    A    
C48   C49   S    
C40   C42   A    
C76   H72   S    
C23   O5    A    
C52   O12   D    
C17   C18   S    
C57   H35   S    
C55   H30   S    
C9    C11   A    
C70   H60   S    
C36   H7    S    
C10   C12   A    
C26   C54   S    
C67   H55   S    
O24   C74   S    
C1    O3    A    
C12   C14   A    
O4    Zn1   S    
C25   C53   S    
C49   H21   S    
C13   C15   A    
C64   H47   S    
C74   C75   S    
C14   C16   A    
C63   C64   S    
C20   C22   A    
C19   C29   A    
C72   C73   S    
C75   H70   S    
C65   H50   S    
C21   N1    A    
C58   H36   S    
C50   H24   S    
C27   H3    S    
C15   C17   A    
C5    C41   A    
C53   O13   D    
C28   H4    S    
C62   O18   D    
C19   C21   A    
C73   H67   S    
C21   C51   S    
C7    C61   S    
C67   H54   S    
C3    C5    A    
C26   N2    A    
C46   C47   S    
C39   C43   A    
C60   H40   S    
C19   H1    S    
C34   H10   S    
C4    C43   A    
C9    O19   S    
C25   C27   A    
C49   C50   S    
C56   H31   S    
C26   C28   A    
C59   C60   S    
C33   C41   A    
O8    Zn1   S    
C73   H66   S    
C63   H45   S    
C46   H13   S    
C37   C39   A    
C66   H52   S    
C65   H51   S    
C38   C40   A    
C37   H6    S    
C11   C13   A    
C71   H61   S    
C16   O24   S    
C45   C46   S    
C28   C30   A    
C52   H26   S    
C60   H42   S    
C34   C36   A    
C57   H34   S    
C31   C35   A    
C69   O21   D    
C48   H19   S    
C55   H29   S    
C54   O14   D    
C6    O10   S    
C48   H18   S    
O5    Zn1   S    
C40   C44   A    
C8    C10   A    
C54   H28   S    
C6    C42   A    
C35   H8    S    
C64   H48   S    
C45   H12   S    
C22   C52   S    
C51   H25   S    
C20   H2    S    
C8    C62   S    
C58   H37   S    
