data_mof_unit_11856.cif
_audit_creation_date              2012-12-10T17:25:33-0500
_audit_creation_method            fapswitch 2.2
_symmetry_space_group_name_H-M    P1
_symmetry_Int_Tables_number       1
_space_group_crystal_system       triclinic
_cell_length_a                    10.130078
_cell_length_b                    10.807449
_cell_length_c                    23.380159
_cell_angle_alpha                 90.501761
_cell_angle_beta                  80.661114
_cell_angle_gamma                 95.932549
_cell_volume                      2512.12956755

loop_
_atom_site_label
_atom_site_type_symbol
_atom_type_description
_atom_site_fract_x
_atom_site_fract_y
_atom_site_fract_z
_atom_type_partial_charge
C1    C     C_R   0.557010 0.732716 0.499746 0.814575
C2    C     C_R   0.380550 0.447946 0.307072 -0.212528
C3    C     C_R   0.612589 0.496884 0.755304 -0.169848
C4    C     C_R   0.379770 0.440216 0.247943 -0.203196
C5    C     C_R   0.489457 0.469732 0.791878 0.201597
C6    C     C_R   0.496219 0.478912 0.209057 0.254571
C7    C     C_2   0.591499 0.864574 0.509227 0.294500
C8    C     C_2   0.406141 0.132766 0.518654 0.300252
C9    C     C_2   0.489718 0.933143 0.525993 -0.232065
C10   C     C_2   0.508919 0.067193 0.523842 -0.206502
C11   C     C_2   0.929200 0.518347 0.500625 0.079294
C12   C     C_R   0.442005 0.266433 0.506321 0.771026
C13   C     C_2   0.076859 0.502975 0.489857 0.048564
C14   C     C_R   0.499397 0.499223 0.610677 0.864413
C15   C     C_R   0.500001 0.498867 0.389441 0.913597
C16   C     C_R   0.541962 0.378827 0.116822 0.530946
C17   C     C_R   0.434200 0.563245 0.885125 0.564592
C18   C     C_R   0.439069 0.569162 0.124128 0.532398
C19   C     C_R   0.538084 0.373420 0.877511 0.477249
C20   C     C_R   0.434507 0.568478 0.064783 -0.024186
C21   C     C_R   0.538563 0.371760 0.937224 -0.009586
C22   C     C_R   0.486460 0.470456 0.031084 -0.019265
C23   C     C_R   0.369090 0.449558 0.768963 0.550852
C24   C     C_R   0.485333 0.469014 0.971067 -0.021528
C25   C     C_R   0.540574 0.374475 0.057185 -0.020296
C26   C     C_R   0.432084 0.565475 0.944962 -0.034409
C27   C     C_R   0.380638 0.663564 0.038436 -0.159551
C28   C     C_R   0.591369 0.276091 0.963690 -0.159906
C29   C     C_R   0.379432 0.662072 0.979001 -0.157404
C30   C     C_R   0.592314 0.277411 0.023191 -0.164173
C31   C     C_3   0.154603 0.686680 0.596373 0.178415
C32   C     C_3   0.104782 0.699714 0.661217 -0.378487
C33   C     C_3   0.179861 0.811297 0.686505 -0.935809
C34   C     C_R   0.616175 0.522058 0.228703 0.554113
C35   C     C_3   0.840904 0.322106 0.400775 0.206046
C36   C     C_3   0.915745 0.219883 0.368602 -0.415123
C37   C     C_3   0.871785 0.193077 0.309967 -0.922021
C38   C     C_3   0.223895 0.295611 0.818345 0.065856
C39   C     C_3   0.148366 0.225802 0.774113 -0.383658
C40   C     C_3   0.110428 0.089154 0.790872 -0.904259
C41   C     C_3   0.844151 0.513209 0.196257 0.094100
C42   C     C_3   0.949089 0.614164 0.212222 -0.351942
C43   C     C_3   0.075628 0.559083 0.222911 -0.915642
C44   C     C_3   0.167442 0.136082 0.541725 0.125028
C45   C     C_R   0.372762 0.464157 0.709663 -0.312029
C46   C     C_3   0.167962 0.182798 0.604272 -0.402057
C47   C     C_3   0.050608 0.259507 0.623712 -0.855620
C48   C     C_3   0.793951 0.885146 0.542330 0.092690
C49   C     C_3   0.771586 0.972711 0.594144 -0.389479
C50   C     C_3   0.846025 0.936811 0.642290 -0.957557
C51   C     C_R   0.616303 0.529682 0.288568 -0.344773
C52   C     C_R   0.496165 0.491236 0.672951 -0.104757
C53   C     C_R   0.498868 0.492590 0.327499 -0.088861
C54   C     C_R   0.616233 0.506471 0.695919 -0.226943
H1    H     H_    0.339844 0.739565 0.063561 0.191623
H2    H     H_    0.288732 0.404563 0.232124 0.157215
H3    H     H_    0.610827 0.111371 0.522235 0.200207
H4    H     H_    0.387240 0.889558 0.536927 0.191607
H5    H     H_    0.118930 0.455955 0.450974 0.122209
H6    H     H_    0.894517 0.595216 0.527092 0.106589
H7    H     H_    0.125357 0.765454 0.572465 0.114834
H8    H     H_    0.265196 0.690608 0.589788 0.195307
H9    H     H_    0.995357 0.710068 0.668474 0.219211
H10   H     H_    0.120174 0.614233 0.684331 0.247782
H11   H     H_    0.288699 0.799390 0.682031 0.270791
H12   H     H_    0.632558 0.200312 0.938532 0.191736
H13   H     H_    0.138992 0.819527 0.733243 0.286251
H14   H     H_    0.167426 0.897908 0.663847 0.253384
H15   H     H_    0.860978 0.408213 0.373440 0.124378
H16   H     H_    0.732029 0.290163 0.408048 0.191360
H17   H     H_    0.025763 0.248898 0.361788 0.222020
H18   H     H_    0.895705 0.133297 0.395317 0.258603
H19   H     H_    0.761561 0.166300 0.315479 0.274687
H20   H     H_    0.924354 0.115357 0.288847 0.279212
H21   H     H_    0.898277 0.276380 0.281450 0.251782
H22   H     H_    0.160292 0.285173 0.861790 0.181082
H23   H     H_    0.337779 0.737015 0.959829 0.190884
H24   H     H_    0.317727 0.252261 0.821671 0.154429
H25   H     H_    0.055324 0.270023 0.771267 0.246390
H26   H     H_    0.212907 0.230991 0.730851 0.214041
H27   H     H_    0.202260 0.042240 0.792594 0.274443
H28   H     H_    0.055357 0.042137 0.758004 0.267177
H29   H     H_    0.044355 0.080525 0.833778 0.271357
H30   H     H_    0.885471 0.471973 0.154278 0.180336
H31   H     H_    0.826468 0.435784 0.228706 0.122968
H32   H     H_    0.976251 0.683701 0.176391 0.246082
H33   H     H_    0.906828 0.662977 0.251931 0.222593
H34   H     H_    0.634194 0.202621 0.042368 0.193021
H35   H     H_    0.051113 0.490806 0.259299 0.244498
H36   H     H_    0.149494 0.634431 0.234492 0.305440
H37   H     H_    0.121780 0.512367 0.183224 0.268594
H38   H     H_    0.075205 0.070719 0.542529 0.155276
H39   H     H_    0.155334 0.209657 0.510792 0.177648
H40   H     H_    0.160217 0.102260 0.634100 0.210877
H41   H     H_    0.262499 0.241371 0.608231 0.222371
H42   H     H_    0.048443 0.333319 0.591414 0.302548
H43   H     H_    0.061284 0.304331 0.665776 0.250699
H44   H     H_    0.953974 0.199475 0.629033 0.259037
H45   H     H_    0.279444 0.451371 0.692331 0.175355
H46   H     H_    0.902906 0.893951 0.524238 0.160690
H47   H     H_    0.767705 0.786887 0.557382 0.132030
H48   H     H_    0.807229 0.069648 0.579521 0.232839
H49   H     H_    0.662681 0.968275 0.611986 0.228245
H50   H     H_    0.806580 0.841938 0.658911 0.266370
H51   H     H_    0.830871 0.003304 0.678652 0.281088
H52   H     H_    0.955348 0.938916 0.625917 0.261942
H53   H     H_    0.706337 0.566761 0.304801 0.158324
H54   H     H_    0.712380 0.527698 0.668143 0.173111
H55   H     H_    0.289436 0.417772 0.336781 0.155657
H56   H     H_    0.705118 0.512124 0.773125 0.166543
N1    N     N_R   0.491979 0.475252 0.148582 -0.337820
N2    N     N_R   0.486386 0.468146 0.852988 -0.347132
N3    N     N_2   0.842710 0.448880 0.476480 0.037693
N4    N     N_2   0.157290 0.551120 0.523520 0.034766
O1    O     O_R   0.431060 0.692470 0.504730 -0.658005
O2    O     O_2   0.385959 0.655862 0.858988 -0.542043
O3    O     O_2   0.392415 0.663240 0.157193 -0.562461
O4    O     O_2   0.588357 0.281304 0.844120 -0.573814
O5    O     O_3   0.095046 0.573561 0.577637 -0.601110
O6    O     O_3   0.886935 0.342379 0.453963 -0.599750
O7    O     O_3   0.246601 0.424327 0.804814 -0.631274
O8    O     O_3   0.726664 0.567302 0.188523 -0.640245
O9    O     O_3   0.277599 0.068630 0.520413 -0.663960
O10   O     O_3   0.723879 0.918061 0.497815 -0.635342
O11   O     O_R   0.568940 0.307530 0.495270 -0.624256
O12   O     O_R   0.651120 0.659650 0.489640 -0.614162
O13   O     O_R   0.348880 0.340350 0.510360 -0.613478
O14   O     O_R   0.389950 0.516450 0.591390 -0.616057
O15   O     O_R   0.610050 0.483550 0.408610 -0.643993
O16   O     O_R   0.610020 0.483630 0.576300 -0.619274
O17   O     O_R   0.389980 0.516370 0.423700 -0.621358
O18   O     O_2   0.592816 0.287972 0.143015 -0.571497
Zn1   Zn    Zn3+2 0.353060 0.521920 0.510080 0.952832
Zn2   Zn    Zn3+2 0.646940 0.478080 0.489920 0.955758

loop_
_geom_bond_atom_site_label_1
_geom_bond_atom_site_label_2
_ccdc_geom_bond_type
O11   Zn2   S    
C37   H20   S    
C2    H55   S    
C50   H50   S    
C23   C45   A    
C27   C29   A    
C41   C42   S    
C31   H7    S    
C2    C4    A    
C35   C36   S    
C40   H29   S    
C7    O10   S    
C33   H11   S    
C23   O7    S    
C12   O13   A    
C38   H22   S    
C19   N2    A    
C34   C51   A    
C43   H35   S    
C47   H44   S    
C17   C26   A    
C15   C53   S    
C36   C37   S    
C19   C21   A    
C24   C26   A    
C38   C39   S    
C3    C54   A    
C27   H1    S    
C3    H56   S    
C16   C25   A    
C14   O14   A    
C9    H4    S    
C6    N1    S    
C44   H39   S    
C14   C52   S    
C46   H41   S    
C35   H16   S    
C52   C54   A    
C22   C25   A    
C15   O15   A    
C50   H51   S    
C47   H42   S    
C42   H32   S    
C9    C10   S    
C13   N4    D    
C44   H38   S    
C36   H17   S    
C37   H21   S    
C34   O8    S    
C4    H2    S    
C31   H8    S    
C35   O6    S    
O16   Zn2   S    
C16   O18   S    
C35   H15   S    
C44   C46   S    
C48   H46   S    
C43   H36   S    
C17   O2    S    
C40   H28   S    
C10   H3    S    
C1    O12   A    
C32   H10   S    
C4    C6    A    
C45   H45   S    
C49   H48   S    
C12   O11   A    
O1    Zn1   S    
C45   C52   A    
C3    C5    A    
C41   H30   S    
C43   H37   S    
C6    C34   A    
C51   C53   A    
C39   H25   S    
C41   O8    S    
C28   H12   S    
C49   H49   S    
N3    O6    S    
C31   C32   S    
C46   H40   S    
C8    C12   S    
C15   O17   A    
C18   N1    A    
C18   O3    S    
C31   O5    S    
C8    C10   D    
C48   C49   S    
C5    N2    S    
C21   C28   A    
C20   C22   A    
N3    Zn2   S    
C22   C24   A    
C42   C43   S    
C30   H34   S    
C11   H6    S    
C17   N2    A    
C39   C40   S    
C33   H13   S    
C50   H52   S    
C14   O16   A    
C25   C30   A    
C7    C9    D    
C37   H19   S    
C46   C47   S    
C1    C7    S    
C40   H27   S    
O13   Zn1   S    
C32   H9    S    
O17   Zn1   S    
C2    C53   A    
C48   O10   S    
C8    O9    S    
C13   H5    S    
C20   C27   A    
C41   H31   S    
C5    C23   A    
C44   O9    S    
C38   H24   S    
C47   H43   S    
C54   H54   S    
C32   C33   S    
C28   C30   A    
C16   N1    A    
O14   Zn1   S    
C39   H26   S    
C11   C13   S    
N4    O5    S    
C48   H47   S    
N4    Zn1   S    
C18   C20   A    
C11   N3    D    
C38   O7    S    
O15   Zn2   S    
C29   H23   S    
O12   Zn2   S    
C26   C29   A    
C51   H53   S    
C49   C50   S    
C21   C24   A    
C19   O4    S    
C42   H33   S    
C1    O1    A    
C36   H18   S    
C33   H14   S    
