data_mof_unit_8915.cif
_audit_creation_date              2012-12-10T18:59:14-0500
_audit_creation_method            fapswitch 2.2
_symmetry_space_group_name_H-M    P1
_symmetry_Int_Tables_number       1
_space_group_crystal_system       triclinic
_cell_length_a                    11.039624
_cell_length_b                    11.028499
_cell_length_c                    9.732723
_cell_angle_alpha                 92.594485
_cell_angle_beta                  97.337398
_cell_angle_gamma                 91.699092
_cell_volume                      1173.30472873

loop_
_atom_site_label
_atom_site_type_symbol
_atom_type_description
_atom_site_fract_x
_atom_site_fract_y
_atom_site_fract_z
_atom_type_partial_charge
C1    C     C_R   0.497025 0.263437 0.496908 0.811798
C2    C     C_R   0.087580 0.602929 0.571945 0.078751
C3    C     C_R   0.131069 0.517151 0.480614 -0.082705
C4    C     C_R   0.049819 0.434571 0.401103 -0.194595
C5    C     C_R   0.925731 0.432466 0.416137 -0.165321
C6    C     C_R   0.878396 0.510067 0.513853 -0.118190
C7    C     C_R   0.554703 0.075379 0.608333 -0.004190
C8    C     C_R   0.498742 0.131204 0.493579 -0.042769
C9    C     C_R   0.438997 0.057090 0.383350 -0.145148
C10   C     C_R   0.432584 0.930238 0.393873 -0.123445
C11   C     C_R   0.495356 0.873247 0.508199 -0.077335
C12   C     C_R   0.262935 0.499556 0.492306 0.761394
C13   C     C_R   0.561328 0.949762 0.615566 0.085884
C14   C     C_3   0.553440 0.966616 0.771366 -0.131894
C15   C     C_3   0.551763 0.104333 0.758427 -0.267484
C16   C     C_R   0.599026 0.542036 0.090846 0.197047
C17   C     C_R   0.404334 0.452150 0.057693 -0.008051
C18   C     C_R   0.404096 0.452665 0.910497 -0.024896
C19   C     C_R   0.598647 0.545030 0.944907 0.347206
C20   C     C_3   0.644132 0.675880 0.970462 -0.439275
C21   C     C_3   0.665639 0.660535 0.122449 -0.328309
C22   C     C_R   0.499120 0.738071 0.503198 0.821620
C23   C     C_R   0.739734 0.505136 0.506824 0.800615
C24   C     C_R   0.170056 0.688420 0.651246 -0.107648
C25   C     C_R   0.136951 0.750672 0.766095 -0.153435
C26   C     C_R   0.017448 0.748735 0.788107 -0.187997
C27   C     C_R   0.932444 0.675045 0.702299 -0.023810
C28   C     C_R   0.963086 0.597108 0.594499 0.008615
Cu1   Cu    Cu3+1 0.499990 0.499980 0.640670 1.015352
Cu2   Cu    Cu3+1 0.500010 0.500020 0.359330 0.997034
H1    H     H_    0.083271 0.367876 0.331305 0.148469
H2    H     H_    0.637196 0.156516 0.801904 0.146903
H3    H     H_    0.325742 0.413958 0.098565 0.131696
H4    H     H_    0.324898 0.414176 0.844960 0.151510
H5    H     H_    0.732574 0.713357 0.952731 0.227767
H6    H     H_    0.569115 0.734550 0.932441 0.226783
H7    H     H_    0.763103 0.645123 0.161777 0.164053
H8    H     H_    0.263120 0.702354 0.631092 0.181832
H9    H     H_    0.203890 0.796314 0.842541 0.196153
H10   H     H_    0.992750 0.797545 0.879293 0.165300
H11   H     H_    0.865864 0.366934 0.351952 0.161203
H12   H     H_    0.390743 0.097165 0.293556 0.177097
H13   H     H_    0.376293 0.876421 0.312999 0.200118
N1    N     N_R   0.500790 0.500930 0.147930 -0.200440
N2    N     N_R   0.500790 0.500890 0.852020 -0.207995
O1    O     O_R   0.500000 0.319640 0.618810 -0.570935
O2    O     O_R   0.500010 0.319680 0.381230 -0.582723
O3    O     O_R   0.319640 0.499980 0.618820 -0.599816
O4    O     O_R   0.319650 0.500020 0.381230 -0.591099
O5    O     O_R   0.499990 0.680320 0.618770 -0.562000
O6    O     O_R   0.500000 0.680360 0.381190 -0.572357
O7    O     O_R   0.680350 0.499980 0.618770 -0.518629
O8    O     O_R   0.680360 0.500020 0.381180 -0.588847
C29   C     C_2   0.668189 0.943322 0.867694 0.820462
O9    O     O_2   0.764583 0.927800 0.821151 -0.585914
O10   O     O_R   0.668611 0.962101 0.010569 -0.719276
H14   H     H_    0.752884 0.954490 0.064000 0.331648
C30   C     C_2   0.439796 0.162538 0.806013 0.931798
O11   O     O_2   0.440247 0.188186 0.929546 -0.600351
O12   O     O_R   0.334512 0.178612 0.712943 -0.746229
H15   H     H_    0.264712 0.211079 0.760328 0.310023
C31   C     C_2   0.619540 0.767660 0.195456 1.012652
O13   O     O_2   0.516568 0.802089 0.160855 -0.538723
O14   O     O_R   0.699740 0.833778 0.296391 -0.773103
H16   H     H_    0.665931 0.913490 0.326856 0.337463
C32   C     C_2   0.825587 0.651122 0.759207 0.829740
O15   O     O_2   0.735470 0.707843 0.720458 -0.542787
O16   O     O_R   0.821824 0.553578 0.846602 -0.773776
H17   H     H_    0.902790 0.512631 0.866944 0.293249
C33   C     C_2   0.432514 0.915613 0.806443 0.801225
O17   O     O_2   0.419593 0.890289 0.924441 -0.542132
O18   O     O_R   0.329882 0.924917 0.707739 -0.768414
H18   H     H_    0.257584 0.957773 0.749904 0.339584

loop_
_geom_bond_atom_site_label_1
_geom_bond_atom_site_label_2
_ccdc_geom_bond_type
C26   C27   A    
C29   O9    D    
C32   O16   S    
Cu2   O6    S    
C19   N2    A    
C16   C21   S    
C6    C28   A    
C15   C30   S    
C1    C8    S    
C14   C33   S    
C9    C10   A    
C16   N1    A    
C11   C22   S    
C24   H8    S    
C19   C20   S    
C12   O3    A    
Cu1   O1    S    
C22   O5    A    
C25   C26   A    
Cu2   N1    S    
O14   H16   S    
C20   C21   S    
C31   O13   D    
C7    C15   S    
C12   O4    A    
C9    H12   S    
C17   N1    A    
C15   H2    S    
C27   C32   S    
C13   C14   S    
C25   H9    S    
C4    C5    A    
C11   C13   A    
C26   H10   S    
C23   O7    A    
C33   O17   D    
C17   H3    S    
O12   H15   S    
C16   C19   A    
C31   O14   S    
C6    C23   S    
C14   C29   S    
Cu2   O4    S    
C23   O8    A    
C2    C3    A    
Cu1   O5    S    
C18   H4    S    
C2    C24   A    
C5    C6    A    
Cu2   O8    S    
C29   O10   S    
C1    O1    A    
C22   O6    A    
C4    H1    S    
C2    C28   A    
C10   C11   A    
Cu1   O3    S    
C30   O12   S    
C3    C4    A    
C20   H6    S    
C18   N2    A    
Cu2   O2    S    
C7    C13   A    
C21   H7    S    
C24   C25   A    
C17   C18   A    
C7    C8    A    
Cu1   N2    S    
C32   O15   D    
O10   H14   S    
C5    H11   S    
C14   C15   S    
C8    C9    A    
C33   O18   S    
C3    C12   S    
C21   C31   S    
C30   O11   D    
O16   H17   S    
C20   H5    S    
C1    O2    A    
Cu1   Cu2   S    
C10   H13   S    
O18   H18   S    
C27   C28   A    
Cu1   O7    S    
