data_mof_unit_46648.cif
_audit_creation_date              2013-03-05T16:01:35-0500
_audit_creation_method            fapswitch 2.2
_symmetry_space_group_name_H-M    P1
_symmetry_Int_Tables_number       1
_space_group_crystal_system       triclinic
_cell_length_a                    14.002183
_cell_length_b                    15.01384
_cell_length_c                    15.423698
_cell_angle_alpha                 89.907419
_cell_angle_beta                  67.965634
_cell_angle_gamma                 90.026392
_cell_volume                      3005.63137811

loop_
_atom_site_label
_atom_site_type_symbol
_atom_site_description
_atom_site_fract_x
_atom_site_fract_y
_atom_site_fract_z
_atom_type_partial_charge
O1    O     O_R   0.419720 0.632140 0.499980 -0.623808
O2    O     O_R   0.580280 0.367860 0.500020 -0.624502
O3    O     O_R   0.580270 0.632160 0.499970 -0.624783
O4    O     O_R   0.419730 0.367840 0.500030 -0.624809
C1    C     C_R   0.500065 0.673557 0.499838 0.903358
C2    C     C_R   0.499935 0.326438 0.500160 0.901289
O5    O     O_R   0.373870 0.499980 0.632250 -0.614164
O6    O     O_R   0.626130 0.500020 0.367750 -0.614298
O7    O     O_R   0.534420 0.500000 0.632240 -0.618388
O8    O     O_R   0.465580 0.500000 0.367760 -0.618762
C3    C     C_R   0.435904 0.501371 0.676527 0.884612
C4    C     C_R   0.564066 0.501621 0.323440 0.886489
Zn1   Zn    Zn3+2 0.392800 0.499980 0.500010 0.951842
Zn2   Zn    Zn3+2 0.607200 0.500020 0.499990 0.950900
C5    C     C_R   0.396341 0.515397 0.777712 -0.119659
C6    C     C_R   0.603256 0.516327 0.222232 -0.119221
C7    C     C_R   0.257364 0.546103 0.925786 0.101300
C8    C     C_R   0.741429 0.547960 0.073697 0.101559
C9    C     C_R   0.291676 0.526627 0.830343 -0.159485
C10   C     C_R   0.707803 0.527708 0.169061 -0.162329
C11   C     C_R   0.467342 0.525019 0.820003 -0.225598
C12   C     C_R   0.531793 0.525926 0.180393 -0.229429
C13   C     C_R   0.437681 0.550824 0.913113 0.063865
C14   C     C_R   0.560696 0.552261 0.087413 0.065108
C15   C     C_R   0.330543 0.557670 0.969530 -0.016687
C16   C     C_R   0.667663 0.560786 0.030792 -0.016594
C17   C     C_R   0.513861 0.563637 0.951742 0.015387
C18   C     C_R   0.484105 0.563596 0.048931 0.021162
C19   C     C_R   0.378666 0.574552 0.104743 -0.265995
C20   C     C_R   0.618864 0.577121 0.895934 -0.264234
C21   C     C_R   0.302888 0.574036 0.066383 0.317553
C22   C     C_R   0.694667 0.578923 0.934251 0.301216
H1    H     H_    0.452479 0.509832 0.221227 0.168801
H2    H     H_    0.546921 0.509659 0.779412 0.166295
H3    H     H_    0.764016 0.520086 0.201355 0.173661
H4    H     H_    0.235888 0.519818 0.797478 0.175630
H5    H     H_    0.353116 0.587310 0.178970 0.161014
H6    H     H_    0.643590 0.591095 0.821946 0.179378
C23   C     C_R   0.583176 0.184810 0.508294 -0.251649
C24   C     C_R   0.416845 0.815163 0.491661 -0.245870
C25   C     C_R   0.499832 0.230563 0.500349 -0.079206
C26   C     C_R   0.500171 0.769417 0.499644 -0.078910
C27   C     C_R   0.416444 0.184771 0.492484 -0.252795
C28   C     C_R   0.583544 0.815202 0.507541 -0.247863
C29   C     C_R   0.415911 0.092636 0.492234 0.116792
C30   C     C_R   0.584087 0.907335 0.507770 0.116246
C31   C     C_R   0.499943 0.046323 0.500116 0.063208
C32   C     C_R   0.500064 0.953647 0.499869 0.062060
C33   C     C_R   0.583857 0.092675 0.508237 0.117420
C34   C     C_R   0.416158 0.907295 0.491732 0.116784
C35   C     C_R   0.332931 0.046215 0.484133 -0.208370
C36   C     C_R   0.667068 0.953753 0.515867 -0.203557
C37   C     C_R   0.333064 0.953674 0.483862 -0.203523
C38   C     C_R   0.666950 0.046294 0.516109 -0.208676
H7    H     H_    0.647456 0.220716 0.514706 0.160820
H8    H     H_    0.352581 0.779256 0.485218 0.162575
H9    H     H_    0.352100 0.220646 0.486206 0.163613
H10   H     H_    0.647870 0.779325 0.513852 0.165374
H11   H     H_    0.268177 0.081435 0.478017 0.150921
H12   H     H_    0.731815 0.918531 0.521996 0.153744
H13   H     H_    0.268404 0.918421 0.477557 0.152404
H14   H     H_    0.731616 0.081545 0.522402 0.149913
C39   C     C_R   0.178243 0.442414 0.557183 -0.053181
C40   C     C_R   0.821542 0.558075 0.443348 -0.048895
N1    N     N_R   0.249980 0.499930 0.499960 -0.100562
N2    N     N_R   0.750020 0.500070 0.500040 -0.101937
C41   C     C_R   0.225321 0.558018 0.443348 -0.043937
C42   C     C_R   0.774458 0.442522 0.557234 -0.049211
C43   C     C_R   0.125057 0.559806 0.442407 -0.007004
C44   C     C_R   0.874415 0.441411 0.558934 0.025766
C45   C     C_R   0.050353 0.500593 0.500663 0.095883
C46   C     C_R   0.949109 0.500635 0.500681 0.094882
C47   C     C_R   0.076854 0.441317 0.558884 0.025248
C48   C     C_R   0.922642 0.559831 0.442371 -0.006880
C49   C     C_R   0.097827 0.619126 0.384958 -0.115691
C50   C     C_R   0.901352 0.382744 0.617139 -0.156808
C51   C     C_R   0.997516 0.619063 0.384837 -0.113283
C52   C     C_R   0.001712 0.382690 0.617105 -0.163217
H15   H     H_    0.200255 0.397499 0.601445 0.129074
H16   H     H_    0.799564 0.602922 0.399005 0.131881
H17   H     H_    0.283917 0.602945 0.399032 0.127524
H18   H     H_    0.715901 0.397528 0.601464 0.129910
H19   H     H_    0.154217 0.665278 0.339829 0.166212
H20   H     H_    0.844873 0.336847 0.662585 0.139761
H21   H     H_    0.978611 0.665172 0.339589 0.167730
H22   H     H_    0.020569 0.336742 0.662516 0.141005
N3    N     N_R   0.198742 0.587341 0.128812 0.169127
O9    O     O_R   0.150960 0.523557 0.185773 -0.419200
O10   O     O_R   0.162769 0.668020 0.145648 -0.432474
N4    N     N_R   0.797627 0.599321 0.872718 0.179824
O11   O     O_R   0.845516 0.545123 0.804488 -0.408903
O12   O     O_R   0.830760 0.680771 0.868686 -0.393545
N5    N     N_3   0.148161 0.552677 0.974481 -0.443356
H23   H     H_    0.129349 0.616814 0.001514 0.245749
H24   H     H_    0.123641 0.504651 0.027341 0.237169
N6    N     N_3   0.850621 0.551916 0.023696 -0.444536
H25   H     H_    0.871952 0.616674 0.999544 0.248153
H26   H     H_    0.872093 0.506389 0.968545 0.228590

loop_
_geom_bond_atom_site_label_1
_geom_bond_atom_site_label_2
_geom_bond_distance
_ccdc_geom_bond_type
C15   C21   1.417431 A    
N2    C42   1.366054 A    
C1    C26   1.439227 S    
C39   N1    1.365712 A    
C16   C22   1.417911 A    
N5    H23   1.043847 S    
C8    N6    1.432115 S    
C8    C16   1.433347 A    
N3    O9    1.300858 A    
C50   H20   1.083322 S    
C23   C25   1.398766 A    
C39   H15   1.082761 S    
O5    C3    1.290890 A    
O1    C1    1.284454 A    
C18   C19   1.412396 A    
C14   C16   1.428423 A    
C9    H4    1.083881 S    
C29   C35   1.399939 A    
C33   C38   1.399930 A    
C30   C36   1.399916 A    
C20   H6    1.081149 S    
O4    Zn1   2.019639 S    
C43   C45   1.408261 A    
C36   H12   1.084013 S    
C40   H16   1.082799 S    
C10   H3    1.083869 S    
C3    C5    1.462646 S    
C22   N4    1.430021 S    
C4    C6    1.463774 S    
C28   H10   1.084884 S    
N1    C41   1.366120 A    
C48   C51   1.405713 A    
N6    H26   1.044680 S    
O6    Zn2   1.955684 S    
C47   C52   1.405654 A    
C13   C17   1.416634 A    
C6    C10   1.394005 A    
C23   H7    1.084903 S    
C52   H22   1.083310 S    
C24   C26   1.398725 A    
C51   H21   1.083317 S    
N5    H24   1.044195 S    
C17   C20   1.411811 A    
C25   C27   1.398752 A    
O2    C2    1.284491 A    
C26   C28   1.398713 A    
C28   C30   1.383292 A    
C29   C31   1.410863 A    
C30   C32   1.410866 A    
C34   C37   1.399906 A    
C21   N3    1.428603 S    
C46   C48   1.408498 A    
C45   C47   1.408487 A    
Zn1   N1    2.000081 S    
C11   H2    1.078904 S    
C38   H14   1.084014 S    
C24   H8    1.084916 S    
C2    C25   1.439446 S    
C41   C43   1.409695 A    
C40   N2    1.365876 A    
O1    Zn1   2.019509 S    
C5    C9    1.393995 A    
O7    Zn2   1.907756 S    
O7    C3    1.289551 A    
N4    O12   1.300810 A    
C31   C32   1.391434 A    
C5    C11   1.386160 A    
O6    C4    1.291690 A    
N6    H25   1.043233 S    
Zn2   N2    2.000082 S    
C36   C38   1.389407 A    
C27   C29   1.383339 A    
O3    Zn2   2.019636 S    
O8    C4    1.289257 A    
O4    C2    1.284515 A    
C23   C33   1.383335 A    
C41   H17   1.082855 S    
C11   C13   1.392625 A    
C44   C50   1.405639 A    
C12   C14   1.392583 A    
C35   H11   1.084006 S    
C37   H13   1.084020 S    
C12   H1    1.078356 S    
C6    C12   1.386667 A    
C14   C18   1.417325 A    
C50   C52   1.405072 A    
O3    C1    1.284477 A    
O8    Zn1   1.907758 S    
C31   C33   1.410868 A    
C39   C47   1.410125 A    
C42   H18   1.082737 S    
N3    O10   1.300716 A    
C7    C15   1.433258 A    
C45   C46   1.417531 A    
C19   C21   1.395347 A    
C20   C22   1.395434 A    
C49   H19   1.083345 S    
N4    O11   1.301158 A    
C24   C34   1.383288 A    
C32   C34   1.410875 A    
C7    C9    1.397923 A    
C43   C49   1.405331 A    
C8    C10   1.398704 A    
C13   C15   1.428013 A    
O2    Zn2   2.019511 S    
C27   H9    1.084873 S    
O5    Zn1   1.955684 S    
C7    N5    1.432003 S    
C42   C44   1.409763 A    
C49   C51   1.405263 A    
C19   H5    1.081121 S    
C17   C18   1.397142 A    
C40   C48   1.410271 A    
C44   C46   1.408285 A    
C35   C37   1.389407 A    
