data_mof_unit_39549.cif
_audit_creation_date              2012-12-11T16:29:51-0500
_audit_creation_method            fapswitch 2.2
_symmetry_space_group_name_H-M    P1
_symmetry_Int_Tables_number       1
_space_group_crystal_system       triclinic
_cell_length_a                    8.349341
_cell_length_b                    17.41675
_cell_length_c                    22.986381
_cell_angle_alpha                 95.879624
_cell_angle_beta                  90.262349
_cell_angle_gamma                 96.30132
_cell_volume                      3304.54601469

loop_
_atom_site_label
_atom_site_type_symbol
_atom_type_description
_atom_site_fract_x
_atom_site_fract_y
_atom_site_fract_z
_atom_type_partial_charge
Ba1   Ba    Ba6+2 0.852790 0.535910 0.472200 1.624135
Ba2   Ba    Ba6+2 0.337030 0.464150 0.527810 1.634400
C1    C     C_3   0.730533 0.827862 0.325767 0.029110
C2    C     C_3   0.650457 0.746495 0.339588 0.329062
C3    C     C_3   0.452543 0.329936 0.348234 0.381300
C4    C     C_3   0.358820 0.279366 0.297643 -0.040137
C5    C     C_3   0.003101 0.246229 0.682838 0.270989
C6    C     C_3   0.039055 0.214560 0.740701 -0.087596
C7    C     C_3   0.533918 0.258223 0.664423 0.375349
C8    C     C_3   0.484732 0.179946 0.688787 0.033645
C9    C     C_R   0.337263 0.523668 0.332331 -0.264250
C10   C     C_R   0.070417 0.555332 0.945266 -0.020319
C11   C     C_R   0.015089 0.553554 0.886815 0.577088
C12   C     C_3   0.075863 0.698050 0.310541 0.333841
C13   C     C_R   0.997070 0.414675 0.875603 0.592259
C14   C     C_R   0.038373 0.414399 0.935628 -0.041995
C15   C     C_R   0.079381 0.485093 0.970195 -0.053679
C16   C     C_R   0.117562 0.625941 0.979257 -0.076686
C17   C     C_R   0.175683 0.626866 0.036300 -0.083228
C18   C     C_R   0.181294 0.557358 0.062271 -0.012865
C19   C     C_R   0.128677 0.485918 0.029857 -0.064238
C20   C     C_R   0.040686 0.344870 0.961547 -0.062156
C21   C     C_R   0.081559 0.344302 0.021134 0.043324
C22   C     C_R   0.127142 0.415902 0.056621 -0.031171
C23   C     C_3   0.042214 0.722827 0.249033 -0.049952
C24   C     C_R   0.170876 0.420876 0.117565 0.590565
C25   C     C_R   0.238019 0.558539 0.120143 0.564454
C26   C     C_2   0.794541 0.452234 0.770672 -0.100446
C27   C     C_3   0.741945 0.463259 0.709744 -0.083292
C28   C     C_1   0.014917 0.512119 0.687426 0.082942
C29   C     C_2   0.058853 0.518819 0.745017 -0.001053
C30   C     C_2   0.944003 0.483236 0.789395 0.241109
C31   C     C_R   0.415838 0.535111 0.231977 -0.077077
C32   C     C_R   0.450797 0.548597 0.292015 0.018484
C33   C     C_R   0.190841 0.482005 0.313751 0.022503
C34   C     C_3   0.253363 0.711593 0.624969 0.371863
C35   C     C_R   0.153629 0.469229 0.253016 -0.130976
C36   C     C_R   0.265099 0.497288 0.211276 0.211929
C37   C     C_2   0.881229 0.468495 0.668387 -0.282671
C38   C     C_R   0.401522 0.720011 0.478724 -0.261475
C39   C     C_R   0.550730 0.744441 0.505794 0.068712
C40   C     C_R   0.607066 0.823934 0.512458 -0.149355
C41   C     C_R   0.511296 0.878769 0.493958 -0.016887
C42   C     C_R   0.359359 0.853455 0.467946 -0.127281
C43   C     C_R   0.304823 0.773922 0.460233 0.058776
C44   C     C_R   0.588063 0.164046 0.490534 -0.139065
C45   C     C_3   0.339047 0.772688 0.673154 0.172033
C46   C     C_R   0.640159 0.243598 0.496993 0.046074
C47   C     C_R   0.882877 0.219355 0.547704 -0.000871
C48   C     C_R   0.832639 0.138141 0.540698 0.004815
C49   C     C_R   0.681527 0.111098 0.512904 0.011263
C50   C     C_1   0.620967 0.029043 0.506170 0.009092
C51   C     C_1   0.570354 0.960710 0.500846 -0.000502
C52   C     C_R   0.782680 0.270805 0.527775 -0.293283
C53   C     C_3   0.975777 0.301297 0.405345 0.290564
C54   C     C_3   0.937186 0.214292 0.388878 -0.387581
C55   C     C_3   0.726936 0.654329 0.652733 0.427335
C56   C     C_3   0.813611 0.702103 0.705450 -0.314337
H1    H     H_    0.688011 0.738572 0.384852 0.070307
H2    H     H_    0.425309 0.742485 0.697091 0.105443
H3    H     H_    0.864800 0.326172 0.420002 0.023829
H4    H     H_    0.067172 0.311086 0.441273 0.071055
H5    H     H_    0.840804 0.203195 0.354628 0.135748
H6    H     H_    0.896162 0.184852 0.427332 0.070021
H7    H     H_    0.046358 0.188973 0.372075 0.114388
H8    H     H_    0.815709 0.621263 0.627931 0.020844
H9    H     H_    0.899906 0.748284 0.690133 0.116141
H10   H     H_    0.879680 0.664465 0.730972 0.077943
H11   H     H_    0.725816 0.730241 0.734329 0.118754
H12   H     H_    0.360738 0.357480 0.375491 0.030002
H13   H     H_    0.276048 0.233950 0.315966 0.098310
H14   H     H_    0.283644 0.315747 0.274336 0.103655
H15   H     H_    0.861830 0.825641 0.324713 0.149012
H16   H     H_    0.978974 0.307855 0.691901 0.017428
H17   H     H_    0.894630 0.210782 0.662793 -0.028751
H18   H     H_    0.160584 0.239592 0.757575 0.151964
H19   H     H_    0.950526 0.232620 0.773690 0.133309
H20   H     H_    0.664491 0.264897 0.654997 -0.105666
H21   H     H_    0.464610 0.259581 0.623179 0.075485
H22   H     H_    0.972532 0.659369 0.323684 0.117396
H23   H     H_    0.353450 0.174915 0.696188 0.142539
H24   H     H_    0.008612 0.290083 0.935127 0.121706
H25   H     H_    0.213488 0.682658 0.060521 0.116776
H26   H     H_    0.505830 0.554470 0.201334 0.100831
H27   H     H_    0.113153 0.680871 0.961381 0.122656
H28   H     H_    0.707923 0.428293 0.800944 0.098175
H29   H     H_    0.038637 0.438273 0.238438 0.111298
H30   H     H_    0.367028 0.533091 0.378561 0.078160
H31   H     H_    0.179994 0.663822 0.308525 -0.025236
H32   H     H_    0.880816 0.427905 0.629331 0.068474
H33   H     H_    0.477204 0.143173 0.466497 0.081930
H34   H     H_    0.285113 0.895031 0.453038 0.076106
H35   H     H_    0.721859 0.843264 0.534299 0.091260
H36   H     H_    0.357444 0.658890 0.474047 0.071776
H37   H     H_    0.822717 0.332374 0.531733 0.059144
H38   H     H_    0.943838 0.759858 0.251319 0.129128
H39   H     H_    0.345688 0.677581 0.603668 0.036083
N1    N     N_R   0.988656 0.483936 0.851311 -0.423892
N2    N     N_R   0.223465 0.491812 0.148730 -0.422317
O1    O     O_2   0.894270 0.458150 0.360790 -0.456626
O2    O     O_3   0.660939 0.705843 0.619629 -0.647143
O3    O     O_3   0.102515 0.763968 0.351828 -0.640334
O4    O     O_2   0.295430 0.541870 0.639250 -0.463287
O5    O     O_3   0.054960 0.541130 0.568170 -0.476892
O6    O     O_3   0.526510 0.403350 0.604440 -0.477402
O7    O     O_3   0.134167 0.664546 0.651534 -0.674257
O8    O     O_3   0.623640 0.408350 0.471030 -0.472716
O9    O     O_3   0.112120 0.364170 0.575770 -0.462754
O10   O     O_2   0.215234 0.229034 0.537769 -0.487596
O11   O     O_3   0.136727 0.241531 0.646381 -0.599640
O12   O     O_3   0.134750 0.458940 0.431830 -0.486397
O13   O     O_3   0.566070 0.591710 0.528970 -0.483704
O14   O     O_2   0.362610 0.313970 0.472520 -0.459738
O15   O     O_3   0.542581 0.283000 0.379290 -0.655160
O16   O     O_2   0.407898 0.452388 0.705097 -0.460426
O17   O     O_3   0.496817 0.317678 0.706253 -0.598622
O18   O     O_2   0.989480 0.614040 0.867683 -0.604502
O19   O     O_2   0.968439 0.353123 0.845013 -0.624239
O20   O     O_2   0.164615 0.362289 0.142709 -0.604472
O21   O     O_2   0.299333 0.619789 0.145422 -0.630322
O22   O     O_3   0.663190 0.596710 0.395570 -0.481026
O23   O     O_2   0.780546 0.545133 0.293870 -0.502589
O24   O     O_3   0.035209 0.334420 0.355861 -0.646662
O25   O     O_3   0.704895 0.688343 0.299168 -0.639942
O26   O     O_2   0.827090 0.686050 0.527520 -0.462603
O27   O     O_3   0.077580 0.635890 0.424230 -0.494435
O28   O     O_2   0.969729 0.772529 0.455457 -0.492146
P1    P     P_3+3 0.063260 0.435680 0.369690 0.982191
P2    P     P_3+3 0.650710 0.674870 0.544690 0.979430
P3    P     P_3+3 0.111194 0.736862 0.423506 0.926684
P4    P     P_3+3 0.126450 0.564380 0.630310 0.979682
P5    P     P_3+3 0.084169 0.262910 0.576602 0.946478
P6    P     P_3+3 0.649248 0.594249 0.319648 0.918239
P7    P     P_3+3 0.543507 0.310928 0.454926 0.946593
P8    P     P_3+3 0.547534 0.408123 0.680672 0.960362
N3    N     N_3   0.430640 0.838262 0.648880 -0.479057
H40   H     H_    0.514622 0.817752 0.619802 0.181296
H41   H     H_    0.353588 0.868278 0.625910 0.187039
N4    N     N_3   0.227391 0.803380 0.716283 -0.464076
H42   H     H_    0.138674 0.828785 0.695246 0.178623
H43   H     H_    0.172401 0.758643 0.738773 0.191088
N5    N     N_3   0.594448 0.602552 0.671973 -0.478001
H44   H     H_    0.586054 0.552764 0.642415 0.197206
H45   H     H_    0.615034 0.588038 0.714109 0.131352
N6    N     N_3   0.707055 0.890248 0.371549 -0.505777
H46   H     H_    0.749817 0.875795 0.411323 0.189912
H47   H     H_    0.585628 0.898650 0.375296 0.181355
C57   C     C_3   0.467604 0.741149 0.335427 -0.340017
H48   H     H_    0.430935 0.726227 0.289241 0.117443
H49   H     H_    0.414685 0.694055 0.360585 0.033050
H50   H     H_    0.419300 0.795626 0.351775 0.091931
C58   C     C_3   0.677681 0.850055 0.266164 -0.360087
H51   H     H_    0.550354 0.862955 0.267044 0.117959
H52   H     H_    0.754454 0.902671 0.255233 0.127495
H53   H     H_    0.689737 0.802348 0.231094 0.130281
N7    N     N_3   0.559922 0.390980 0.325248 -0.523608
H54   H     H_    0.596106 0.432271 0.360295 0.206426
H55   H     H_    0.663269 0.367732 0.309220 0.204631
N8    N     N_3   0.463766 0.241446 0.255576 -0.482800
H56   H     H_    0.529532 0.283467 0.233216 0.193716
H57   H     H_    0.544951 0.212603 0.277651 0.208309
C59   C     C_3   0.983964 0.652770 0.205331 -0.372984
H58   H     H_    0.050946 0.603133 0.211964 0.137060
H59   H     H_    0.854418 0.634300 0.211242 0.153152
H60   H     H_    0.997317 0.667326 0.159544 0.136699
N9    N     N_3   0.029555 0.129678 0.734211 -0.491526
H61   H     H_    0.098903 0.111202 0.698831 0.194853
H62   H     H_    0.910215 0.106961 0.724340 0.184095
N10   N     N_3   0.566080 0.174994 0.744610 -0.471482
H63   H     H_    0.523071 0.214511 0.776519 0.214285
H64   H     H_    0.689157 0.191314 0.740626 0.174118
C60   C     C_3   0.516914 0.111272 0.645527 -0.433078
H65   H     H_    0.647954 0.112076 0.637980 0.124762
H66   H     H_    0.472947 0.055978 0.663321 0.158915
H67   H     H_    0.451890 0.113465 0.603598 0.111767
C61   C     C_3   0.077153 0.266036 0.044354 -0.317385
H68   H     H_    0.041679 0.217396 0.010022 0.087534
H69   H     H_    0.198467 0.257721 0.060961 0.154766
H70   H     H_    0.987363 0.261587 0.079661 0.154156
C62   C     C_3   0.201497 0.574727 0.768932 -0.292148
H71   H     H_    0.302987 0.580330 0.738861 0.146064
H72   H     H_    0.162861 0.633370 0.779360 0.125894
H73   H     H_    0.252052 0.554927 0.808767 0.109677
C63   C     C_3   0.936417 0.079860 0.561076 -0.398236
H74   H     H_    0.050203 0.106700 0.582807 0.135436
H75   H     H_    0.869305 0.045145 0.592830 0.105663
H76   H     H_    0.967678 0.040088 0.522963 0.122766
C64   C     C_3   0.186299 0.772123 0.225569 -0.385975
H77   H     H_    0.231924 0.820560 0.258732 0.132506
H78   H     H_    0.284734 0.736702 0.212904 0.180325
H79   H     H_    0.148854 0.797900 0.186086 0.119777
N11   N     N_3   0.176172 0.749911 0.580632 -0.534171
H80   H     H_    0.079695 0.776733 0.599132 0.180411
H81   H     H_    0.126113 0.706269 0.549206 0.198784

loop_
_geom_bond_atom_site_label_1
_geom_bond_atom_site_label_2
_ccdc_geom_bond_type
C53   C54   S    
C3    O15   S    
C40   H35   S    
C39   C40   A    
C17   C18   A    
C5    O11   S    
Ba1   P1    S    
C55   H8    S    
N6    H46   S    
C55   C56   S    
C5    C6    S    
C12   H31   S    
O17   P8    S    
C25   O21   D    
C50   C51   T    
C8    N10   S    
C4    H14   S    
C10   C11   A    
C25   N2    Am   
C1    C58   S    
C3    H12   S    
C55   N5    S    
C64   H79   S    
C3    C4    S    
C20   H24   S    
C46   P7    S    
C26   C27   S    
C33   C35   A    
C22   C24   A    
Ba1   Ba2   S    
O8    P7    S    
Ba1   P2    S    
Ba1   O13   S    
C28   C29   D    
C45   N3    S    
Ba2   O14   S    
C12   O3    S    
O27   P3    S    
C8    C60   S    
C54   H7    S    
C2    C57   S    
C53   H4    S    
Ba2   O8    S    
C6    H18   S    
C63   H74   S    
C2    O25   S    
C34   C45   S    
C64   H78   S    
C16   C17   A    
C7    H21   S    
Ba2   O9    S    
C11   N1    Am   
C45   H2    S    
C41   C51   S    
C61   H70   S    
N8    H56   S    
C62   H72   S    
C14   C15   A    
O5    P4    S    
C10   C15   A    
C21   C22   A    
N8    H57   S    
O11   P5    S    
C34   H39   S    
C12   H22   S    
O13   P2    S    
C7    C8    S    
C9    H30   S    
C37   H32   S    
C42   H34   S    
C60   H67   S    
C24   N2    Am   
O6    P8    S    
C61   H69   S    
C43   P3    S    
C47   C52   A    
C34   N11   S    
N9    H62   S    
N10   H64   S    
C38   C43   A    
C17   H25   S    
Ba1   O1    S    
N6    H47   S    
C60   H66   S    
C31   C32   A    
C5    H16   S    
C59   H59   S    
C20   C21   A    
O7    P4    S    
C47   P5    S    
C44   C46   A    
Ba2   O12   S    
C16   H27   S    
Ba2   P4    S    
C34   O7    S    
C49   C50   S    
N10   H63   S    
C26   C30   D    
C57   H50   S    
C57   H48   S    
N3    H41   S    
C36   N2    S    
C5    H17   S    
C21   C61   S    
C32   P6    S    
C44   C49   A    
C15   C19   A    
C64   H77   S    
N11   H81   S    
C46   C52   A    
C41   C42   A    
O23   P6    D    
C35   C36   A    
C23   C64   S    
C59   H60   S    
C29   C30   S    
C58   H53   S    
Ba2   O5    S    
C23   C59   S    
Ba2   O13   S    
C57   H49   S    
C27   C37   S    
O10   P5    D    
C54   H6    S    
C48   C49   A    
O15   P7    S    
C54   H5    S    
C24   O20   D    
Ba1   O5    S    
C52   H37   S    
C6    N9    S    
Ba1   O8    S    
C63   H76   S    
O25   P6    S    
C56   H10   S    
C38   C39   A    
C27   P8    S    
C58   H52   S    
C1    N6    S    
O14   P7    D    
C26   H28   S    
N9    H61   S    
N5    H45   S    
C40   C41   A    
C13   N1    Am   
C10   C16   A    
C1    C2    S    
C53   O24   S    
C42   C43   A    
C59   H58   S    
N7    H54   S    
C14   C20   A    
C8    H23   S    
O1    P1    D    
C7    O17   S    
C35   H29   S    
C9    C32   A    
C48   C63   S    
Ba1   O27   S    
O3    P3    S    
C38   H36   S    
N3    H40   S    
C4    N8    S    
C11   O18   D    
N4    H42   S    
C62   H73   S    
C56   H11   S    
C44   H33   S    
C18   C25   A    
C3    N7    S    
C55   O2    S    
Ba2   O6    S    
C31   C36   A    
C63   H75   S    
C13   O19   D    
C29   C62   S    
Ba1   O26   S    
N11   H80   S    
C9    C33   A    
O28   P3    D    
Ba1   O12   S    
C39   P2    S    
N4    H43   S    
O24   P1    S    
C6    H19   S    
O16   P8    D    
Ba2   O4    S    
C53   H3    S    
C2    H1    S    
N7    H55   S    
C28   P4    S    
C30   N1    S    
C28   C37   D    
C7    H20   S    
C12   C23   S    
C33   P1    S    
C1    H15   S    
C31   H26   S    
Ba1   O22   S    
O9    P5    S    
C61   H68   S    
C60   H65   S    
O26   P2    D    
C56   H9    S    
C18   C19   A    
C23   H38   S    
C47   C48   A    
C19   C22   A    
C45   N4    S    
O12   P1    S    
N5    H44   S    
C58   H51   S    
O22   P6    S    
O4    P4    D    
C62   H71   S    
C13   C14   A    
C4    H13   S    
O2    P2    S    
