data_mof_unit_8207.cif
_audit_creation_date              2012-12-10T20:21:42-0500
_audit_creation_method            fapswitch 2.2
_symmetry_space_group_name_H-M    P1
_symmetry_Int_Tables_number       1
_space_group_crystal_system       triclinic
_cell_length_a                    19.217055
_cell_length_b                    18.48287
_cell_length_c                    8.927927
_cell_angle_alpha                 90.001436
_cell_angle_beta                  90.086238
_cell_angle_gamma                 90.006108
_cell_volume                      3171.07400885

loop_
_atom_site_label
_atom_site_type_symbol
_atom_type_description
_atom_site_fract_x
_atom_site_fract_y
_atom_site_fract_z
_atom_type_partial_charge
C1    C     C_R   0.366042 0.499994 0.499383 0.976108
C2    C     C_R   0.633959 0.500004 0.500620 0.976020
C3    C     C_R   0.550512 0.726102 0.575811 0.012582
C4    C     C_R   0.550583 0.273910 0.424735 0.012438
C5    C     C_R   0.449489 0.726091 0.424192 0.012620
C6    C     C_R   0.449417 0.273903 0.575270 0.012454
C7    C     C_R   0.551589 0.802075 0.576880 -0.253306
C8    C     C_R   0.551654 0.197937 0.423667 -0.253672
C9    C     C_R   0.448414 0.802064 0.423128 -0.253321
C10   C     C_R   0.448345 0.197930 0.576345 -0.253650
C11   C     C_R   0.500002 0.841276 0.500005 0.207293
C12   C     C_R   0.499999 0.158730 0.500007 0.207731
C13   C     C_R   0.500686 0.961533 0.363268 0.116972
C14   C     C_R   0.500650 0.038478 0.636749 0.116999
C15   C     C_R   0.499316 0.961536 0.636745 0.116969
C16   C     C_R   0.499349 0.038476 0.363266 0.116991
C17   C     C_R   0.499999 0.077256 0.500008 -0.033014
C18   C     C_R   0.500002 0.922753 0.500006 -0.032941
C19   C     C_R   0.500004 0.499999 0.218413 0.975537
C20   C     C_R   0.499994 0.500000 0.781587 0.975378
C21   C     C_1   0.500001 0.499997 0.065294 -0.208969
C22   C     C_1   0.499994 0.499998 0.934706 -0.209081
C23   C     C_R   0.743955 0.501221 0.362415 0.161167
C24   C     C_R   0.255141 0.497661 0.362656 0.110228
C25   C     C_R   0.255963 0.501112 0.637319 0.161265
C26   C     C_R   0.744941 0.497706 0.637059 0.110356
C27   C     C_R   0.816573 0.501178 0.361046 0.020647
C28   C     C_R   0.182161 0.495349 0.363962 0.047610
C29   C     C_R   0.183343 0.500950 0.638468 0.020800
C30   C     C_R   0.817924 0.495498 0.635559 0.047383
C31   C     C_R   0.852974 0.498113 0.497817 -0.027001
C32   C     C_R   0.147049 0.497775 0.501609 -0.027393
C33   C     C_R   0.708880 0.499955 0.500138 -0.159986
C34   C     C_R   0.291121 0.499906 0.499683 -0.160013
C35   C     C_R   0.964102 0.563441 0.487733 -0.197297
C36   C     C_R   0.035989 0.432066 0.511541 -0.194122
C37   C     C_R   0.036199 0.563363 0.489403 -0.185936
C38   C     C_R   0.963850 0.432140 0.509817 -0.182328
C39   C     C_R   0.071785 0.497704 0.501626 0.177842
C40   C     C_R   0.928265 0.497826 0.497569 0.177718
H1    H     H_    0.936188 0.614193 0.478887 0.133372
H2    H     H_    0.063942 0.381348 0.520565 0.133035
H3    H     H_    0.064305 0.614032 0.481380 0.133795
H4    H     H_    0.935728 0.381485 0.517885 0.133308
H5    H     H_    0.590250 0.696406 0.635530 0.120059
H6    H     H_    0.590378 0.303619 0.365450 0.120173
H7    H     H_    0.409750 0.696388 0.364472 0.120022
H8    H     H_    0.409622 0.303607 0.634553 0.120184
H9    H     H_    0.592637 0.830047 0.636605 0.143219
H10   H     H_    0.592749 0.169970 0.364368 0.143051
H11   H     H_    0.407366 0.830028 0.363405 0.143197
H12   H     H_    0.407249 0.169956 0.635647 0.143050
N1    N     N_R   0.500000 0.689440 0.500000 -0.092168
N2    N     N_R   0.500000 0.310560 0.500000 -0.092194
O1    O     O_R   0.398180 0.560840 0.499960 -0.633421
O2    O     O_R   0.601820 0.439160 0.500040 -0.631720
O3    O     O_R   0.601820 0.560840 0.500040 -0.633479
O4    O     O_R   0.398180 0.439160 0.499960 -0.631734
O5    O     O_R   0.500000 0.560800 0.285330 -0.618529
O6    O     O_R   0.500000 0.439200 0.714670 -0.617994
O7    O     O_R   0.500000 0.560800 0.714670 -0.618538
O8    O     O_R   0.500000 0.439200 0.285330 -0.618005
Zn1   Zn    Zn3+2 0.500000 0.581210 0.500000 0.947887
Zn2   Zn    Zn3+2 0.500000 0.418790 0.500000 0.949150
N3    N     N_2   0.705643 0.503164 0.225757 -0.307483
H13   H     H_    0.726774 0.536965 0.146055 0.247680
C41   C     C_3   0.688791 0.432582 0.165819 -0.799288
H14   H     H_    0.736734 0.405152 0.125733 0.238517
H15   H     H_    0.652011 0.438625 0.070734 0.242235
H16   H     H_    0.663420 0.398392 0.251943 0.251358
N4    N     N_2   0.292908 0.496550 0.225343 -0.313670
H17   H     H_    0.272026 0.463491 0.144099 0.231467
C42   C     C_3   0.311687 0.567178 0.168257 -0.807098
H18   H     H_    0.348695 0.560914 0.073880 0.244951
H19   H     H_    0.337426 0.600145 0.255937 0.256198
H20   H     H_    0.264755 0.596269 0.127738 0.227678
N5    N     N_2   0.294197 0.503147 0.774072 -0.307461
H21   H     H_    0.272998 0.536932 0.853714 0.248021
C43   C     C_3   0.311106 0.432598 0.834077 -0.800224
H22   H     H_    0.263185 0.405141 0.874240 0.238142
H23   H     H_    0.347909 0.438703 0.929104 0.242416
H24   H     H_    0.336480 0.398400 0.747975 0.251484
N6    N     N_2   0.707250 0.496525 0.774474 -0.313763
H25   H     H_    0.728223 0.463514 0.855686 0.231454
C44   C     C_3   0.688353 0.567113 0.831587 -0.806783
H26   H     H_    0.651307 0.560770 0.925871 0.244809
H27   H     H_    0.662613 0.600066 0.743898 0.256202
H28   H     H_    0.735227 0.596272 0.872238 0.227692
N7    N     N_3   0.852577 0.502376 0.220264 -0.474277
H29   H     H_    0.884186 0.456464 0.213498 0.194964
H30   H     H_    0.884307 0.548270 0.216901 0.188330
N8    N     N_3   0.142805 0.491173 0.227320 -0.453278
H31   H     H_    0.156277 0.534749 0.158735 0.197553
H32   H     H_    0.155362 0.442985 0.172429 0.178554
N9    N     N_3   0.147202 0.502905 0.779043 -0.474417
H33   H     H_    0.116272 0.456569 0.787577 0.193871
H34   H     H_    0.114758 0.548293 0.780253 0.189801
N10   N     N_3   0.857348 0.491576 0.772143 -0.453562
H35   H     H_    0.843776 0.535156 0.840620 0.198366
H36   H     H_    0.844964 0.443384 0.827208 0.177624
N11   N     N_2   0.501817 0.922470 0.225583 -0.306664
H37   H     H_    0.472730 0.944805 0.140334 0.232023
C45   C     C_3   0.570272 0.899574 0.177906 -0.807812
H38   H     H_    0.565425 0.864598 0.077345 0.245359
H39   H     H_    0.596405 0.867794 0.267320 0.257661
H40   H     H_    0.602777 0.947315 0.149345 0.223821
N12   N     N_2   0.501743 0.077547 0.774436 -0.306592
H41   H     H_    0.472639 0.055205 0.859468 0.232035
C46   C     C_3   0.570186 0.100466 0.822629 -0.808088
H42   H     H_    0.565311 0.135458 0.923125 0.245350
H43   H     H_    0.596346 0.132236 0.733398 0.257595
H44   H     H_    0.602681 0.052736 0.851478 0.223846
N13   N     N_2   0.498185 0.922475 0.774429 -0.306666
H45   H     H_    0.527271 0.944817 0.859679 0.232024
C47   C     C_3   0.429730 0.899562 0.822104 -0.807794
H46   H     H_    0.434578 0.864589 0.922662 0.245357
H47   H     H_    0.403597 0.867776 0.732688 0.257669
H48   H     H_    0.397225 0.947296 0.850669 0.223819
N14   N     N_2   0.498253 0.077541 0.225579 -0.306601
H49   H     H_    0.527357 0.055206 0.140546 0.232033
C48   C     C_3   0.429810 0.100443 0.177391 -0.808034
H50   H     H_    0.434682 0.135435 0.076896 0.245346
H51   H     H_    0.403650 0.132208 0.266624 0.257611
H52   H     H_    0.397315 0.052705 0.148542 0.223842

loop_
_geom_bond_atom_site_label_1
_geom_bond_atom_site_label_2
_ccdc_geom_bond_type
C15   C18   A    
C11   C18   S    
C26   N6    S    
C42   H19   S    
C42   H18   S    
C36   H2    S    
N9    H33   S    
C9    H11   S    
C4    C8    A    
C10   H12   S    
C2    O3    A    
C4    H6    S    
N5    H21   S    
C7    C11   A    
C5    H7    S    
N11   H37   S    
C6    H8    S    
C13   C18   A    
C25   N5    S    
C5    N1    A    
C35   C37   A    
C29   C32   A    
C3    C7    A    
C46   H43   S    
C30   C31   A    
N3    C41   S    
C19   O8    A    
C47   H46   S    
N10   H35   S    
C31   C40   S    
C32   C39   S    
C20   O7    A    
O7    Zn1   S    
C48   H52   S    
O8    Zn2   S    
C16   C17   A    
C23   C33   A    
O1    Zn1   S    
C12   C17   S    
C1    C34   S    
N12   H41   S    
O2    Zn2   S    
C23   C27   A    
N7    H30   S    
C25   C34   A    
N14   C48   S    
N11   C45   S    
C21   C22   T    
C3    N1    A    
O4    Zn2   S    
N12   C46   S    
C14   C17   A    
C6    N2    A    
C38   H4    S    
O3    Zn1   S    
C44   H27   S    
C25   C29   A    
C27   C31   A    
C41   H14   S    
C28   C32   A    
C7    H9    S    
C28   N8    S    
C16   N14   S    
C43   H23   S    
C19   O5    A    
C44   H26   S    
C3    H5    S    
C24   C34   A    
C41   H15   S    
C37   H3    S    
C5    C9    A    
C26   C33   A    
N6    H25   S    
C8    C12   A    
C47   H48   S    
N8    H32   S    
N5    C43   S    
C45   H39   S    
C9    C11   A    
C48   H50   S    
C10   C12   A    
C2    C33   S    
C14   N12   S    
N6    C44   S    
C20   C22   S    
C26   C30   A    
N10   H36   S    
C42   H20   S    
C46   H44   S    
C20   O6    A    
C13   N11   S    
C8    H10   S    
N4    C42   S    
N13   H45   S    
C44   H28   S    
C47   H47   S    
C4    N2    A    
C15   N13   S    
C36   C39   A    
C24   C28   A    
C6    C10   A    
C43   H24   S    
N14   H49   S    
N9    H34   S    
C30   N10   S    
O5    Zn1   S    
O6    Zn2   S    
C41   H16   S    
C23   N3    S    
C36   C38   A    
C35   C40   A    
C1    O1    A    
N4    H17   S    
C37   C39   A    
C2    O2    A    
C1    O4    A    
C38   C40   A    
N1    Zn1   S    
N2    Zn2   S    
N8    H31   S    
C27   N7    S    
C45   H40   S    
C35   H1    S    
C48   H51   S    
C29   N9    S    
C43   H22   S    
N3    H13   S    
C13   C16   A    
C45   H38   S    
C14   C15   A    
N13   C47   S    
N7    H29   S    
C46   H42   S    
C24   N4    S    
C19   C21   S    
