data_mof_unit_68356.cif
_audit_creation_date              2012-12-10T18:59:53-0500
_audit_creation_method            fapswitch 2.2
_symmetry_space_group_name_H-M    P1
_symmetry_Int_Tables_number       1
_space_group_crystal_system       triclinic
_cell_length_a                    10.980356
_cell_length_b                    10.734337
_cell_length_c                    10.141436
_cell_angle_alpha                 92.522031
_cell_angle_beta                  87.913529
_cell_angle_gamma                 89.468701
_cell_volume                      1193.31867724

loop_
_atom_site_label
_atom_site_type_symbol
_atom_type_description
_atom_site_fract_x
_atom_site_fract_y
_atom_site_fract_z
_atom_type_partial_charge
C1    C     C_R   0.504733 0.261350 0.497659 0.890474
C2    C     C_R   0.501170 0.739368 0.502186 0.892790
C3    C     C_R   0.871275 0.491124 0.496058 -0.146232
C4    C     C_R   0.124623 0.486514 0.497697 -0.181902
C5    C     C_R   0.936251 0.524715 0.609214 0.048895
C6    C     C_R   0.063567 0.468156 0.377087 -0.037267
C7    C     C_R   0.431066 0.064040 0.416484 -0.243477
C8    C     C_R   0.588341 0.937585 0.575609 -0.223892
C9    C     C_R   0.422075 0.936813 0.424284 -0.104627
C10   C     C_R   0.591875 0.066598 0.575388 -0.115012
C11   C     C_R   0.500660 0.873204 0.504733 -0.031040
C12   C     C_R   0.512590 0.128781 0.493902 -0.023062
C13   C     C_R   0.474337 0.604745 0.078723 -0.114855
C14   C     C_R   0.529403 0.395881 0.921720 -0.061607
C15   C     C_R   0.480088 0.607170 0.937793 0.027217
C16   C     C_R   0.528318 0.394785 0.062840 0.029711
C17   C     C_R   0.259440 0.497592 0.500733 0.914246
C18   C     C_R   0.739022 0.498915 0.498343 0.934894
C19   C     C_R   0.130266 0.678122 0.102886 0.234440
C20   C     C_R   0.833858 0.679822 0.938827 0.137890
C21   C     C_R   0.104762 0.633924 0.226298 -0.164712
C22   C     C_R   0.862479 0.588490 0.839614 -0.172331
C23   C     C_R   0.114495 0.507897 0.250302 0.032046
C24   C     C_R   0.893695 0.621952 0.710593 0.046619
C25   C     C_R   0.160016 0.423423 0.151348 0.178524
C26   C     C_R   0.898349 0.750025 0.683732 0.087620
C27   C     C_R   0.186519 0.466463 0.024291 0.093321
C28   C     C_R   0.884774 0.840743 0.787782 0.142950
C29   C     C_R   0.168228 0.594622 0.999360 0.040995
C30   C     C_R   0.842158 0.806736 0.912974 0.153424
C31   C     C_R   0.938088 0.444642 0.383142 -0.109771
C32   C     C_R   0.053092 0.471567 0.613300 -0.162565
H1    H     H_    0.072335 0.698188 0.303338 0.236463
H2    H     H_    0.857841 0.491590 0.863470 0.233249
H3    H     H_    0.370272 0.113415 0.355021 0.184293
H4    H     H_    0.657540 0.887323 0.624916 0.167649
H5    H     H_    0.460128 0.690090 0.137085 0.200091
H6    H     H_    0.551691 0.311587 0.863810 0.196413
N1    N     N_R   0.499970 0.499970 0.857200 -0.129741
N2    N     N_R   0.500030 0.500030 0.142800 -0.134820
O1    O     O_R   0.499990 0.316750 0.614620 -0.630086
O2    O     O_R   0.500010 0.683250 0.385380 -0.631567
O3    O     O_R   0.499990 0.316780 0.385290 -0.606654
O4    O     O_R   0.500010 0.683220 0.614710 -0.580805
O5    O     O_R   0.316760 0.500000 0.614660 -0.588152
O6    O     O_R   0.683240 0.500000 0.385340 -0.582768
O7    O     O_R   0.316760 0.500020 0.385330 -0.613807
O8    O     O_R   0.683240 0.499980 0.614670 -0.592458
Zn1   Zn    Zn3+2 0.500000 0.499980 0.653120 1.042428
Zn2   Zn    Zn3+2 0.500000 0.500020 0.346880 1.030555
I1    I     I_    0.189712 0.670588 0.811876 -0.222914
I2    I     I_    0.775173 0.946490 0.056231 -0.223623
C33   C     C_2   0.490885 0.732239 0.887549 0.976266
O9    O     O_2   0.414140 0.812574 0.918293 -0.573939
O10   O     O_R   0.600013 0.764851 0.826230 -0.810082
H7    H     H_    0.608642 0.858385 0.827728 0.325001
C34   C     C_2   0.562025 0.276938 0.118333 0.992390
O11   O     O_2   0.650413 0.271959 0.186844 -0.570358
O12   O     O_R   0.498175 0.168995 0.084778 -0.787708
H8    H     H_    0.532391 0.093230 0.127086 0.346655
I3    I     I_    0.100221 0.872223 0.082265 -0.068873
I4    I     I_    0.787203 0.622683 0.128866 -0.278593
I5    I     I_    0.185166 0.232678 0.198100 -0.192360
I6    I     I_    0.914233 0.811474 0.487918 -0.256373
I7    I     I_    0.250454 0.333486 0.877228 -0.158310
I8    I     I_    0.957367 0.021368 0.764855 0.038412
C35   C     C_2   0.889555 0.344869 0.295537 1.052730
O13   O     O_2   0.899552 0.349945 0.175502 -0.558235
O14   O     O_R   0.842142 0.238610 0.352430 -0.730583
H9    H     H_    0.827894 0.168144 0.285182 0.391827
C36   C     C_2   0.049659 0.342908 0.663414 1.044123
O15   O     O_2   0.980993 0.321728 0.756953 -0.516871
O16   O     O_R   0.119330 0.243030 0.605799 -0.711357
H10   H     H_    0.174392 0.263155 0.527866 0.294768
C37   C     C_2   0.332880 0.872396 0.342908 0.975567
O17   O     O_2   0.252146 0.812465 0.395074 -0.580185
O18   O     O_R   0.342389 0.877072 0.206052 -0.743892
H11   H     H_    0.416731 0.923357 0.173759 0.328771
C38   C     C_2   0.678300 0.134261 0.660432 0.976570
O19   O     O_2   0.750546 0.206575 0.612177 -0.515622
O20   O     O_R   0.676008 0.119450 0.796535 -0.757388
H12   H     H_    0.603530 0.069903 0.828271 0.320200

loop_
_geom_bond_atom_site_label_1
_geom_bond_atom_site_label_2
_ccdc_geom_bond_type
O4    Zn1   S    
O10   H7    S    
C16   N2    A    
C27   C29   A    
O16   H10   S    
O20   H12   S    
C20   C30   A    
O18   H11   S    
C31   C35   S    
C15   C33   S    
C19   C21   A    
C24   C26   A    
C8    H4    S    
C19   I3    S    
C34   O12   S    
C21   H1    S    
C3    C18   S    
C25   I5    S    
C26   I6    S    
C13   N2    A    
C14   N1    A    
C1    O3    A    
C2    O4    A    
O7    Zn2   S    
C13   H5    S    
C5    C32   A    
C6    C31   A    
O12   H8    S    
C1    C12   S    
C2    C11   S    
C18   O6    A    
O1    Zn1   S    
C32   C36   S    
C33   O10   S    
C7    C12   A    
C22   H2    S    
C35   O13   D    
C4    C6    A    
C38   O20   S    
C33   O9    D    
C35   O14   S    
C28   I8    S    
C37   O17   D    
C27   I7    S    
C14   H6    S    
C37   O18   S    
O5    Zn1   S    
C3    C31   A    
C9    C11   A    
C15   N1    A    
C4    C32   A    
C10   C12   A    
O2    Zn2   S    
C4    C17   S    
C1    O1    A    
O8    Zn1   S    
N1    Zn1   S    
C20   C22   A    
C13   C15   A    
C14   C16   A    
C19   C29   A    
C36   O16   S    
C29   I1    S    
C7    C9    A    
C30   I2    S    
C7    H3    S    
C17   O7    A    
C17   O5    A    
C3    C5    A    
C18   O8    A    
C10   C38   S    
O3    Zn2   S    
C25   C27   A    
O6    Zn2   S    
C26   C28   A    
C21   C23   A    
C36   O15   D    
C34   O11   D    
C5    C24   S    
C2    O2    A    
C8    C11   A    
N2    Zn2   S    
C6    C23   S    
C28   C30   A    
C22   C24   A    
C16   C34   S    
C23   C25   A    
C20   I4    S    
O14   H9    S    
C38   O19   D    
C8    C10   A    
C9    C37   S    
