data_mof_unit_47187.cif
_audit_creation_date              2012-12-11T15:22:41-0500
_audit_creation_method            fapswitch 2.2
_symmetry_space_group_name_H-M    P1
_symmetry_Int_Tables_number       1
_space_group_crystal_system       triclinic
_cell_length_a                    22.823107
_cell_length_b                    7.234259
_cell_length_c                    20.788909
_cell_angle_alpha                 90.000045
_cell_angle_beta                  93.33012
_cell_angle_gamma                 89.999931
_cell_volume                      3426.62481736

loop_
_atom_site_label
_atom_site_type_symbol
_atom_type_description
_atom_site_fract_x
_atom_site_fract_y
_atom_site_fract_z
_atom_type_partial_charge
O1    O     O_R   0.438030 0.494310 0.439340 -0.543070
O2    O     O_R   0.561970 0.994310 0.560660 -0.543071
O3    O     O_R   0.556900 0.822900 0.435960 -0.535451
O4    O     O_R   0.443100 0.322900 0.564040 -0.535450
C1    C     C_R   0.575673 0.655509 0.420952 0.708320
C2    C     C_R   0.424327 0.155510 0.579048 0.708322
O5    O     O_R   0.438170 0.823950 0.431660 -0.515408
O6    O     O_R   0.561830 0.323950 0.568340 -0.515408
O7    O     O_R   0.442390 0.995390 0.556340 -0.536377
O8    O     O_R   0.557610 0.495390 0.443660 -0.536377
C3    C     C_R   0.418776 0.655327 0.415382 0.727453
C4    C     C_R   0.581224 0.155327 0.584617 0.727454
O9    O     O_3   0.501520 0.661170 0.540910 -0.371894
O10   O     O_3   0.498480 0.161170 0.459090 -0.371894
V1    V     V_3+5 0.499720 0.935580 0.492410 1.449310
V2    V     V_3+5 0.500280 0.435580 0.507590 1.449309
C5    C     C_R   0.824858 0.222414 0.873775 -0.179978
C6    C     C_R   0.175144 0.722408 0.126223 -0.179979
C7    C     C_R   0.867661 0.084793 0.867991 -0.084552
C8    C     C_R   0.132339 0.584793 0.132008 -0.084550
C9    C     C_R   0.862087 0.960499 0.816348 -0.224092
C10   C     C_R   0.137912 0.460502 0.183653 -0.224090
C11   C     C_R   0.815206 0.976140 0.769867 0.127549
C12   C     C_R   0.184794 0.476142 0.230134 0.127551
C13   C     C_R   0.771863 0.114523 0.775982 0.030078
C14   C     C_R   0.228138 0.614522 0.224017 0.030076
C15   C     C_R   0.776100 0.237614 0.828867 0.022779
C16   C     C_R   0.223902 0.737608 0.171130 0.022778
C17   C     C_R   0.811217 0.855331 0.717129 -0.197138
C18   C     C_R   0.188782 0.355336 0.282873 -0.197132
C19   C     C_R   0.765033 0.870581 0.670505 -0.191715
C20   C     C_R   0.234966 0.370586 0.329496 -0.191712
C21   C     C_R   0.721272 0.004665 0.676312 0.121932
C22   C     C_R   0.278728 0.504666 0.323688 0.121932
C23   C     C_R   0.724208 0.127415 0.729391 -0.079856
C24   C     C_R   0.275792 0.627413 0.270608 -0.079859
C25   C     C_R   0.679437 0.260619 0.735994 -0.146409
C26   C     C_R   0.320564 0.760616 0.264005 -0.146409
C27   C     C_R   0.684401 0.386292 0.788606 0.451815
C28   C     C_R   0.315601 0.886284 0.211391 0.451814
C29   C     C_R   0.731675 0.372226 0.835748 0.053460
C30   C     C_R   0.268328 0.872216 0.164248 0.053462
C31   C     C_R   0.674499 0.015770 0.629870 -0.294989
C32   C     C_R   0.325501 0.515771 0.370130 -0.294982
C33   C     C_R   0.629553 0.145478 0.635549 -0.172522
C34   C     C_R   0.370447 0.645478 0.364451 -0.172527
C35   C     C_R   0.630602 0.263363 0.689911 0.435782
C36   C     C_R   0.369398 0.763362 0.310089 0.435791
H1    H     H_    0.829867 0.315827 0.914339 0.134691
H2    H     H_    0.170136 0.815819 0.085658 0.134690
H3    H     H_    0.895071 0.854299 0.811501 0.123869
H4    H     H_    0.104927 0.354306 0.188501 0.123867
H5    H     H_    0.844026 0.748997 0.711803 0.124616
H6    H     H_    0.155971 0.249005 0.288200 0.124614
H7    H     H_    0.763074 0.775357 0.630195 0.121225
H8    H     H_    0.236924 0.275364 0.369807 0.121224
H9    H     H_    0.673153 0.923237 0.588755 0.140889
H10   H     H_    0.326847 0.423240 0.411246 0.140888
C37   C     C_3   0.218522 0.299629 0.772865 -0.457128
C38   C     C_3   0.781479 0.799628 0.227137 -0.457128
C39   C     C_3   0.268832 0.025572 0.823733 0.054707
C40   C     C_3   0.731167 0.525579 0.176266 0.054707
C41   C     C_3   0.316850 0.028480 0.773092 -0.326846
C42   C     C_3   0.683150 0.528484 0.226908 -0.326848
H11   H     H_    0.304900 0.402866 0.748384 0.150525
H12   H     H_    0.695101 0.902868 0.251618 0.150525
H13   H     H_    0.229318 0.384981 0.816503 0.157163
H14   H     H_    0.770684 0.884985 0.183500 0.157162
H15   H     H_    0.282422 0.127777 0.861887 0.128051
H16   H     H_    0.717578 0.627788 0.138114 0.128052
H17   H     H_    0.356046 0.104559 0.793510 0.122806
H18   H     H_    0.643954 0.604566 0.206490 0.122807
H19   H     H_    0.331770 0.885938 0.762191 0.151090
H20   H     H_    0.668230 0.385942 0.237807 0.151090
C43   C     C_1   0.379040 0.146445 0.625168 -0.188345
C44   C     C_1   0.620960 0.646445 0.374832 -0.188346
C45   C     C_3   0.208417 0.094529 0.792235 0.277434
C46   C     C_3   0.791583 0.594529 0.207764 0.277434
C47   C     C_3   0.269056 0.315873 0.725937 -0.363412
C48   C     C_3   0.730944 0.815873 0.274064 -0.363411
C49   C     C_3   0.293393 0.122239 0.709551 0.230359
C50   C     C_3   0.706607 0.622239 0.290449 0.230359
C51   C     C_3   0.241917 0.003466 0.680297 -0.326574
C52   C     C_3   0.758083 0.503462 0.319702 -0.326574
C53   C     C_3   0.191219 0.989854 0.727585 0.054224
C54   C     C_3   0.808780 0.489849 0.272414 0.054223
C55   C     C_1   0.340743 0.136923 0.663318 -0.082672
C56   C     C_1   0.659257 0.636923 0.336682 -0.082672
C57   C     C_1   0.160462 0.088383 0.838223 -0.080393
C58   C     C_1   0.839538 0.588383 0.161777 -0.080393
C59   C     C_1   0.121643 0.082545 0.875820 -0.188261
C60   C     C_1   0.878357 0.582545 0.124180 -0.188261
H21   H     H_    0.152547 0.063574 0.704581 0.123744
H22   H     H_    0.847453 0.563564 0.295418 0.123744
H23   H     H_    0.224589 0.066236 0.634138 0.122616
H24   H     H_    0.775411 0.566229 0.365862 0.122616
H25   H     H_    0.177523 0.358263 0.749478 0.161379
H26   H     H_    0.822478 0.858258 0.250524 0.161380
H27   H     H_    0.252472 0.386862 0.681002 0.152733
H28   H     H_    0.747529 0.886858 0.318999 0.152733
H29   H     H_    0.258751 0.864139 0.668055 0.148342
H30   H     H_    0.741248 0.364135 0.331944 0.148342
O11   O     O_R   0.942420 0.735670 0.056390 -0.530569
O12   O     O_R   0.057580 0.235670 0.943610 -0.530569
O13   O     O_R   0.061840 0.404850 0.068350 -0.539181
O14   O     O_R   0.938160 0.904850 0.931650 -0.539181
C61   C     C_R   0.081857 0.573577 0.083869 0.693906
C62   C     C_R   0.918143 0.073577 0.916131 0.693907
O15   O     O_R   0.943100 0.406010 0.064050 -0.537752
O16   O     O_R   0.056900 0.906010 0.935950 -0.537751
O17   O     O_R   0.938020 0.234710 0.939330 -0.537580
O18   O     O_R   0.061980 0.734710 0.060670 -0.537579
C63   C     C_R   0.924223 0.574380 0.078752 0.717371
C64   C     C_R   0.075777 0.074380 0.921248 0.717371
O19   O     O_3   0.998500 0.567790 0.959120 -0.374713
O20   O     O_3   0.001500 0.067790 0.040880 -0.374713
V3    V     V_3+5 0.000280 0.293330 0.007580 1.405258
V4    V     V_3+5 0.999720 0.793330 0.992420 1.405258
C65   C     C_3   0.267606 0.838863 0.859345 -0.809396
H31   H     H_    0.308259 0.824782 0.891033 0.205028
H32   H     H_    0.229819 0.829835 0.890422 0.219547
H33   H     H_    0.266606 0.720007 0.825997 0.217385
C66   C     C_3   0.732393 0.338874 0.140651 -0.809394
H34   H     H_    0.691739 0.324798 0.108964 0.205028
H35   H     H_    0.770179 0.329848 0.109574 0.219547
H36   H     H_    0.733392 0.220014 0.173997 0.217385
C67   C     C_3   0.170719 0.788600 0.735106 -0.815967
H37   H     H_    0.208199 0.692607 0.741621 0.222039
H38   H     H_    0.141793 0.772942 0.775821 0.225877
H39   H     H_    0.145350 0.745029 0.690447 0.200812
C68   C     C_3   0.829278 0.288594 0.264891 -0.815968
H40   H     H_    0.791798 0.192605 0.258375 0.222040
H41   H     H_    0.858204 0.272936 0.224175 0.225878
H42   H     H_    0.854647 0.245017 0.309549 0.200812
O21   O     O_3   0.583828 0.381719 0.697325 -0.531117
C69   C     C_3   0.540267 0.285752 0.729401 -0.145517
H43   H     H_    0.503440 0.381980 0.736878 0.151312
H44   H     H_    0.557257 0.236277 0.777660 0.135525
H45   H     H_    0.522297 0.167726 0.700158 0.079744
O22   O     O_3   0.416172 0.881720 0.302675 -0.531113
C70   C     C_3   0.459734 0.785753 0.270601 -0.145511
H46   H     H_    0.496561 0.881982 0.263124 0.151312
H47   H     H_    0.442745 0.736271 0.222343 0.135522
H48   H     H_    0.477705 0.667731 0.299846 0.079741
O23   O     O_3   0.641617 0.519039 0.795931 -0.538662
C71   C     C_3   0.658422 0.682129 0.764729 -0.152597
H49   H     H_    0.662732 0.658612 0.712321 0.155866
H50   H     H_    0.700039 0.738935 0.787157 0.128949
H51   H     H_    0.623812 0.787994 0.769710 0.152134
O24   O     O_3   0.358385 0.019032 0.204068 -0.538662
C72   C     C_3   0.341578 0.182125 0.235266 -0.152589
H52   H     H_    0.337249 0.158607 0.287670 0.155841
H53   H     H_    0.299971 0.238954 0.212825 0.128947
H54   H     H_    0.376194 0.287970 0.230304 0.152143
C73   C     C_3   0.733976 0.499701 0.893754 -0.761561
H55   H     H_    0.695136 0.591136 0.895397 0.242970
H56   H     H_    0.735654 0.416622 0.938743 0.199098
H57   H     H_    0.773460 0.589312 0.893202 0.199924
C74   C     C_3   0.266030 0.999679 0.106239 -0.761560
H58   H     H_    0.304873 0.091106 0.104595 0.242968
H59   H     H_    0.264352 0.916590 0.061252 0.199097
H60   H     H_    0.226548 0.089299 0.106788 0.199924

loop_
_geom_bond_atom_site_label_1
_geom_bond_atom_site_label_2
_ccdc_geom_bond_type
C26   C28   A    
H11   C47   S    
C73   H56   S    
C52   H30   S    
C61   O18   A    
C30   C74   S    
O1    C3    A    
C68   H42   S    
O2    C4    A    
C37   C45   S    
C2    O7    A    
O23   C71   S    
O15   V3    S    
O21   C69   S    
C27   C29   A    
C46   C58   S    
O5    C3    A    
O13   C61   A    
C45   C57   S    
O14   C62   A    
C41   C49   S    
C11   C17   A    
C47   H27   S    
O11   C63   A    
C12   C14   A    
C71   H49   S    
C38   H26   S    
C70   H47   S    
C43   C55   T    
C54   C68   S    
C66   H35   S    
C39   C65   S    
C39   H15   S    
O20   V3    S    
C40   H16   S    
C52   H24   S    
C72   H54   S    
C39   C41   S    
C40   C42   S    
C54   H22   S    
C37   H13   S    
C53   H21   S    
C32   H10   S    
C72   H52   S    
C74   H59   S    
C25   C35   A    
C60   C63   S    
O16   C64   A    
C26   C36   A    
O15   C63   A    
C72   H53   S    
C8    C61   S    
C7    C62   S    
C46   C54   S    
C65   H32   S    
C45   C53   S    
O6    V2    S    
C48   H28   S    
C73   H57   S    
O13   V3    S    
O16   V4    S    
C69   H45   S    
C40   C66   S    
C49   C51   S    
C32   C34   A    
C71   H50   S    
C33   C35   A    
C58   C60   T    
C34   C36   A    
C36   O22   S    
C5    C15   A    
C66   H34   S    
C6    C16   A    
O22   C70   S    
O4    C2    A    
C70   H48   S    
C37   C47   S    
C47   C49   S    
C4    C33   S    
C66   H36   S    
O5    V1    S    
C41   H19   S    
C68   H41   S    
C21   C31   A    
O4    V2    S    
C67   H38   S    
C7    C9    A    
C18   C20   A    
C71   H51   S    
C18   H6    S    
C15   C29   A    
C28   C30   A    
C74   H58   S    
O6    C4    A    
O19   V4    S    
C38   C46   S    
C27   O23   S    
C19   C21   A    
C74   H60   S    
C28   O24   S    
O1    V2    S    
C51   H23   S    
O2    V1    S    
C31   C33   A    
C42   C50   S    
C49   C55   S    
C13   C23   A    
O12   C64   A    
C48   C50   S    
C51   C53   S    
C41   H17   S    
C39   C45   S    
C9    C11   A    
C37   H25   S    
C10   C12   A    
C53   C67   S    
O11   V4    S    
C57   C59   T    
C5    H1    S    
C68   H40   S    
C9    H3    S    
O3    V1    S    
C6    H2    S    
C69   H44   S    
C10   H4    S    
O12   V3    S    
C65   H33   S    
C14   C24   A    
C22   C32   A    
C44   C56   T    
C38   C48   S    
C51   H29   S    
C35   O21   S    
O10   V1    S    
C14   C16   A    
C40   C46   S    
C8    C10   A    
C69   H43   S    
O3    C1    A    
C65   H31   S    
C62   O17   A    
C13   C15   A    
H12   C48   S    
C50   C52   S    
C59   C64   S    
O17   V3    S    
C1    C44   S    
C24   C26   A    
O7    V1    S    
C67   H39   S    
C23   C25   A    
C17   C19   A    
O8    V2    S    
C70   H46   S    
O18   V4    S    
C17   H5    S    
C50   C56   S    
C16   C30   A    
C21   C23   A    
C22   C24   A    
C6    C8    A    
C42   H18   S    
C12   C18   A    
C31   H9    S    
C5    C7    A    
C1    O8    A    
C11   C13   A    
C38   H14   S    
C25   C27   A    
O9    V2    S    
C73   H55   S    
C42   H20   S    
O24   C72   S    
C52   C54   S    
C3    C34   S    
C19   H7    S    
C20   H8    S    
O14   V4    S    
C67   H37   S    
C20   C22   A    
C29   C73   S    
C2    C43   S    
