data_mof_unit_10472.cif
_audit_creation_date              2012-12-11T16:57:23-0500
_audit_creation_method            fapswitch 2.2
_symmetry_space_group_name_H-M    P1
_symmetry_Int_Tables_number       1
_space_group_crystal_system       triclinic
_cell_length_a                    14.363373
_cell_length_b                    16.397557
_cell_length_c                    6.972978
_cell_angle_alpha                 89.882686
_cell_angle_beta                  98.705939
_cell_angle_gamma                 90.079243
_cell_volume                      1623.37858861

loop_
_atom_site_label
_atom_site_type_symbol
_atom_type_description
_atom_site_fract_x
_atom_site_fract_y
_atom_site_fract_z
_atom_type_partial_charge
O1    O     O_R   0.584990 0.413650 0.534420 -0.555819
O2    O     O_R   0.584990 0.586350 0.534420 -0.555967
O3    O     O_R   0.596190 0.585230 0.208380 -0.516746
O4    O     O_R   0.596190 0.414770 0.208380 -0.515547
O5    O     O_R   0.415010 0.586420 0.976930 -0.535606
O6    O     O_R   0.415010 0.413580 0.976930 -0.533346
C1    C     C_R   0.620591 0.612627 0.384835 0.724244
C2    C     C_R   0.620295 0.387204 0.384445 0.731750
O7    O     O_3   0.440560 0.500000 0.319140 -0.374098
V1    V     V_3+5 0.511030 0.500000 0.068070 1.451653
O8    O     O_R   0.403810 0.414840 0.643540 -0.546014
O9    O     O_R   0.403810 0.585160 0.643540 -0.542704
C3    C     C_R   0.381022 0.386824 0.806499 0.759617
C4    C     C_R   0.381596 0.613295 0.805639 0.768174
V2    V     V_3+5 0.488970 0.500000 0.560620 1.384952
O10   O     O_3   0.559440 0.500000 0.859420 -0.387188
H1    H     H_    0.321544 0.695329 0.095301 0.181904
H2    H     H_    0.341365 0.288415 0.089533 0.157911
C5    C     C_2   0.309831 0.677902 0.793536 -0.376489
C6    C     C_2   0.303971 0.326466 0.800055 -0.371403
C7    C     C_2   0.285182 0.713262 0.953515 -0.171776
C8    C     C_2   0.289215 0.284247 0.959793 -0.142732
C9    C     C_2   0.195508 0.818184 0.107588 0.235897
C10   C     C_2   0.205409 0.172397 0.104332 0.229955
C11   C     C_2   0.209738 0.776318 0.944334 0.214021
C12   C     C_2   0.203207 0.233708 0.970077 0.215871
H3    H     H_    0.276309 0.695169 0.649496 0.179345
H4    H     H_    0.256184 0.320849 0.665938 0.139294
C13   C     C_R   0.750545 0.690055 0.594575 -0.073196
C14   C     C_R   0.760236 0.316441 0.580562 -0.052210
C15   C     C_R   0.691596 0.679941 0.415553 -0.223538
C16   C     C_R   0.692014 0.320678 0.413252 -0.228237
C17   C     C_R   0.692414 0.742721 0.275795 0.525201
C18   C     C_R   0.688905 0.255446 0.279265 0.498630
C19   C     C_R   0.760476 0.806100 0.305003 -0.255653
C20   C     C_R   0.753197 0.189390 0.314082 -0.253453
H5    H     H_    0.761654 0.852424 0.196767 0.131162
H6    H     H_    0.748454 0.139749 0.214200 0.153276
C21   C     C_R   0.819680 0.815952 0.482631 -0.137913
C22   C     C_R   0.816753 0.182385 0.486545 -0.158113
C23   C     C_R   0.805935 0.761650 0.630236 -0.019070
C24   C     C_R   0.814209 0.245002 0.622468 -0.003974
C25   C     C_3   0.757212 0.784043 0.797281 0.184628
C26   C     C_3   0.785900 0.240249 0.821316 0.163338
C27   C     C_3   0.713541 0.699683 0.782389 0.158309
C28   C     C_3   0.743156 0.324707 0.786019 0.121998
H7    H     H_    0.806884 0.799241 0.929780 0.117724
H8    H     H_    0.844724 0.235169 0.944266 0.127770
H9    H     H_    0.635307 0.700277 0.767850 0.139439
H10   H     H_    0.667493 0.327961 0.803063 0.155436
O11   O     O_R   0.921430 0.915960 0.371040 -0.542167
O12   O     O_R   0.921430 0.084040 0.371040 -0.541164
O13   O     O_R   0.910450 0.087500 0.697310 -0.543217
O14   O     O_R   0.910450 0.912500 0.697310 -0.535692
O15   O     O_R   0.091710 0.087460 0.928430 -0.539737
O16   O     O_R   0.091710 0.912540 0.928430 -0.525452
C29   C     C_R   0.886006 0.113093 0.519657 0.696950
C30   C     C_R   0.887263 0.886077 0.519329 0.735534
O17   O     O_3   0.065970 0.000000 0.586140 -0.365078
V3    V     V_3+5 0.995640 0.000000 0.837400 1.409142
O18   O     O_R   0.103020 0.915700 0.261710 -0.528035
O19   O     O_R   0.103020 0.084300 0.261710 -0.548366
C31   C     C_R   0.124577 0.885436 0.099560 0.691989
C32   C     C_R   0.125548 0.113813 0.099291 0.716294
V4    V     V_3+5 0.017940 0.000000 0.344880 1.391494
O20   O     O_3   0.947330 0.000000 0.046180 -0.388467
N1    N     N_2   0.152801 0.792649 0.762011 -0.504909
H11   H     H_    0.189560 0.805533 0.649747 0.287138
C33   C     C_3   0.075075 0.736786 0.710836 -0.499352
H12   H     H_    0.028470 0.737276 0.824248 0.177122
H13   H     H_    0.033089 0.756006 0.571239 0.186189
H14   H     H_    0.101441 0.673941 0.694180 0.187373
N2    N     N_2   0.114986 0.260579 0.866984 -0.562282
H15   H     H_    0.104316 0.322394 0.879557 0.252678
C34   C     C_3   0.090019 0.232535 0.669119 -0.491543
H16   H     H_    0.113874 0.276223 0.565271 0.155940
H17   H     H_    0.119512 0.171390 0.647653 0.212223
H18   H     H_    0.012518 0.229557 0.634684 0.186633
N3    N     N_2   0.754834 0.642131 0.931606 -0.482201
H19   H     H_    0.717127 0.588581 0.929055 0.275039
C35   C     C_3   0.855835 0.628510 0.965349 -0.575599
H20   H     H_    0.873607 0.586529 0.090607 0.196092
H21   H     H_    0.894749 0.686155 0.001912 0.188096
H22   H     H_    0.879119 0.600185 0.836089 0.198185
N4    N     N_2   0.797579 0.389724 0.893591 -0.505929
H23   H     H_    0.760009 0.443197 0.894471 0.264693
C36   C     C_3   0.894592 0.403518 0.866596 -0.561139
H24   H     H_    0.927451 0.448415 0.975167 0.190513
H25   H     H_    0.897482 0.428293 0.719229 0.197358
H26   H     H_    0.936120 0.346493 0.888371 0.204664
O21   O     O_3   0.245756 0.796171 0.285827 -0.572236
C37   C     C_3   0.315951 0.855309 0.341758 -0.331659
H27   H     H_    0.284639 0.913969 0.379640 0.167511
H28   H     H_    0.361063 0.865241 0.227192 0.131865
H29   H     H_    0.362218 0.833058 0.473324 0.164360
O22   O     O_3   0.290871 0.150347 0.211748 -0.572149
C38   C     C_3   0.296546 0.183869 0.398703 -0.310807
H30   H     H_    0.282260 0.250569 0.393120 0.126256
H31   H     H_    0.369247 0.175217 0.476024 0.166774
H32   H     H_    0.248201 0.151745 0.483399 0.162087
O23   O     O_3   0.623102 0.745835 0.115447 -0.549439
C39   C     C_3   0.540830 0.779994 0.170545 -0.313413
H33   H     H_    0.555170 0.839790 0.244841 0.117176
H34   H     H_    0.507224 0.737825 0.264492 0.136678
H35   H     H_    0.489283 0.790813 0.037627 0.167311
O24   O     O_3   0.620831 0.254750 0.116488 -0.548860
C40   C     C_3   0.546235 0.203790 0.152581 -0.225064
H36   H     H_    0.513871 0.226131 0.278011 0.116903
H37   H     H_    0.569728 0.139455 0.176695 0.131187
H38   H     H_    0.490923 0.204737 0.023021 0.168149
N5    N     N_2   0.686655 0.846267 0.732699 -0.515951
H39   H     H_    0.628763 0.829449 0.634134 0.246186
C41   C     C_3   0.669897 0.909841 0.863858 -0.587202
H40   H     H_    0.625849 0.957187 0.780530 0.189351
H41   H     H_    0.737897 0.936318 0.932335 0.204137
H42   H     H_    0.629844 0.886602 0.974980 0.230180
N6    N     N_2   0.710327 0.181593 0.828355 -0.498903
H43   H     H_    0.650105 0.189359 0.728344 0.256558
C42   C     C_3   0.735214 0.097530 0.861152 -0.534987
H44   H     H_    0.734183 0.065664 0.720615 0.194819
H45   H     H_    0.682065 0.069921 0.940969 0.178543
H46   H     H_    0.805095 0.091255 0.951816 0.222924

loop_
_geom_bond_atom_site_label_1
_geom_bond_atom_site_label_2
_ccdc_geom_bond_type
C36   H24   S    
O23   C39   S    
O1    C2    A    
C40   H37   S    
N2    H15   S    
O2    C1    A    
C11   N1    S    
O4    C2    A    
C38   H32   S    
C38   H30   S    
C21   C23   A    
O14   V3    S    
N4    H23   S    
C25   N5    S    
C17   O23   S    
C19   H5    S    
C10   C12   D    
O3    C1    A    
C10   O22   S    
O24   C40   S    
V2    O10   S    
C12   N2    S    
C39   H35   S    
C33   H13   S    
O11   V4    S    
O18   C31   A    
O19   C32   A    
C35   H21   S    
O8    V2    S    
N5    H39   S    
C40   H36   S    
C15   C17   A    
O1    V2    S    
C5    H3    S    
O7    V1    S    
O19   V4    S    
C28   N4    S    
C9    C31   S    
V3    O20   S    
O17   V3    S    
C10   C32   S    
O15   V3    S    
O22   C38   S    
C23   C25   S    
C33   H12   S    
C24   C26   S    
C38   H31   S    
O13   V3    S    
C26   C28   S    
C35   H20   S    
C42   H45   S    
C1    C15   S    
N4    C36   S    
N1    H11   S    
C18   O24   S    
C20   C22   A    
N5    C41   S    
O21   C37   S    
N3    C35   S    
O13   C29   A    
C6    H4    S    
C21   C30   S    
C37   H29   S    
H1    C7    S    
O16   V3    S    
C13   C27   S    
N1    C33   S    
C16   C18   A    
C33   H14   S    
C19   C21   A    
C34   H16   S    
C25   C27   S    
O9    V2    S    
C27   H9    S    
O15   C32   A    
C37   H28   S    
O16   C31   A    
C27   N3    S    
O11   C30   A    
C39   H34   S    
O2    V2    S    
C34   H17   S    
O5    C4    A    
O9    C4    A    
C36   H25   S    
C40   H38   S    
C9    O21   S    
N2    C34   S    
O4    V1    S    
C35   H22   S    
C41   H40   S    
O14   C30   A    
C42   H46   S    
C7    C11   S    
C22   C29   S    
C3    C6    S    
C13   C23   A    
H2    C8    S    
C4    C5    S    
C14   C28   S    
C6    C8    D    
C22   C24   A    
O6    V1    S    
C42   H44   S    
C28   H10   S    
C41   H42   S    
N6    C42   S    
O7    V2    S    
O5    V1    S    
C13   C15   A    
O3    V1    S    
V1    O10   S    
N6    H43   S    
O17   V4    S    
O6    C3    A    
C14   C16   A    
O8    C3    A    
C2    C16   S    
C26   N6    S    
C20   H6    S    
C37   H27   S    
C17   C19   A    
C18   C20   A    
C9    C11   D    
C39   H33   S    
C34   H18   S    
O12   C29   A    
N3    H19   S    
O18   V4    S    
V4    O20   S    
C8    C12   S    
C36   H26   S    
C14   C24   A    
C41   H41   S    
C25   H7    S    
O12   V4    S    
C26   H8    S    
C5    C7    D    
