data_mof_unit_51206.cif
_audit_creation_date              2013-03-05T15:45:15-0500
_audit_creation_method            fapswitch 2.2
_symmetry_space_group_name_H-M    P1
_symmetry_Int_Tables_number       1
_space_group_crystal_system       triclinic
_cell_length_a                    8.228544
_cell_length_b                    13.239597
_cell_length_c                    19.130138
_cell_angle_alpha                 96.31207
_cell_angle_beta                  94.420988
_cell_angle_gamma                 98.009445
_cell_volume                      2042.18635802

loop_
_atom_site_label
_atom_site_type_symbol
_atom_site_description
_atom_site_fract_x
_atom_site_fract_y
_atom_site_fract_z
_atom_type_partial_charge
P1    P     P_3+3 0.986780 0.745970 0.554690 0.487205
O1    O     O_2   0.160820 0.763040 0.533820 -0.335822
O2    O     O_3   0.890970 0.628600 0.535400 -0.402383
O3    O     O_3   0.385950 0.698560 0.408070 -0.390673
O4    O     O_2   0.290084 0.876557 0.436315 -0.350862
O5    O     O_3   0.015287 0.766566 0.647513 -0.564671
O6    O     O_3   0.384541 0.839288 0.309845 -0.485874
H1    H     H_    0.370398 0.684391 0.275515 0.139390
C1    C     C_3   0.434967 0.775078 0.191510 0.071195
H2    H     H_    0.446119 0.857908 0.184892 0.144986
P2    P     P_3+3 0.341450 0.417130 0.341310 0.479080
P3    P     P_3+3 0.926899 0.633338 0.280916 0.535770
O7    O     O_2   0.172860 0.449730 0.330520 -0.354766
O8    O     O_3   0.962080 0.644700 0.373110 -0.395614
O9    O     O_2   0.042508 0.560054 0.251202 -0.296486
O10   O     O_3   0.295662 0.284806 0.318975 -0.564720
O11   O     O_3   0.002491 0.747742 0.249280 -0.425367
C2    C     C_3   0.946207 0.832226 0.286021 0.341000
H3    H     H_    0.052693 0.878022 0.320364 0.128493
H4    H     H_    0.849015 0.811453 0.321462 -0.050336
C3    C     C_3   0.880191 0.899226 0.232574 0.084913
H5    H     H_    0.901095 0.980575 0.256464 0.118035
C4    C     C_3   0.688067 0.278051 0.318266 0.416265
H6    H     H_    0.589295 0.296601 0.350942 0.102518
C5    C     C_3   0.610587 0.223558 0.245809 -0.947841
H7    H     H_    0.493405 0.173499 0.251082 0.249660
H8    H     H_    0.577142 0.280222 0.209971 0.221902
H9    H     H_    0.698408 0.177791 0.220099 0.293346
Ba1   Ba    Ba6+2 0.160910 0.552960 0.466220 1.628035
C6    C     C_3   0.042749 0.677251 0.677102 0.300045
H10   H     H_    0.171992 0.666420 0.673451 0.085441
H11   H     H_    0.962381 0.607418 0.650915 0.136175
C7    C     C_3   0.003992 0.688195 0.754406 -0.744125
H12   H     H_    0.996826 0.612712 0.774805 0.162918
H13   H     H_    0.881256 0.713483 0.757545 0.231434
C8    C     C_3   0.233716 0.236534 0.374901 0.340824
H14   H     H_    0.143517 0.279761 0.400175 0.090976
H15   H     H_    0.336824 0.232762 0.415119 0.122618
C9    C     C_3   0.147880 0.126699 0.347004 -0.761848
H16   H     H_    0.012749 0.123825 0.343457 0.195215
H17   H     H_    0.177906 0.072560 0.384976 0.200652
P4    P     P_3+3 0.823520 0.254020 0.445250 0.473088
O12   O     O_2   0.649470 0.236890 0.466160 -0.349057
O13   O     O_3   0.919320 0.371390 0.464540 -0.400394
O14   O     O_3   0.424350 0.301430 0.591880 -0.389467
O15   O     O_3   0.790435 0.218990 0.352353 -0.599770
P5    P     P_3+3 0.865738 0.363386 0.719375 0.479122
O16   O     O_3   0.382770 0.553920 0.582990 -0.409304
O17   O     O_3   0.848220 0.355290 0.626830 -0.351409
O18   O     O_2   0.745190 0.434546 0.747214 -0.391339
O19   O     O_3   0.789102 0.244455 0.745644 -0.473154
Ba2   Ba    Ba6+2 0.649260 0.447030 0.533730 1.583187
P6    P     P_3+3 0.426991 0.827534 0.399649 0.516989
C10   C     C_3   0.444200 0.759371 0.269747 0.383107
H18   H     H_    0.575178 0.758353 0.287787 -0.102297
H19   H     H_    0.539001 0.744553 0.167034 0.054100
O20   O     O_3   0.427530 0.446070 0.416950 -0.400239
C11   C     C_3   0.530638 0.760527 0.653201 0.285462
H20   H     H_    0.617322 0.727838 0.617994 0.023722
H21   H     H_    0.411102 0.761416 0.622463 0.152400
C12   C     C_3   0.612170 0.868668 0.683854 0.018806
H22   H     H_    0.742185 0.865479 0.702722 0.116785
P7    P     P_3+3 0.458619 0.574925 0.673223 0.457559
O21   O     O_2   0.637430 0.550200 0.669460 -0.352356
O22   O     O_3   0.497276 0.703101 0.708056 -0.514629
H23   H     H_    0.745830 0.876214 0.219419 0.080617
C13   C     C_3   0.920606 0.185875 0.752605 0.390126
H24   H     H_    0.943658 0.150088 0.698868 0.141247
H25   H     H_    0.036886 0.232375 0.779198 0.006556
C14   C     C_3   0.877092 0.103416 0.800427 -0.744832
H26   H     H_    0.805069 0.034118 0.769054 0.296758
H27   H     H_    0.992332 0.080891 0.825114 0.206766
H28   H     H_    0.804472 0.132336 0.843391 0.250372
P8    P     P_3+3 0.381482 0.169384 0.591572 0.522355
C15   C     C_3   0.367939 0.209553 0.724560 0.562633
H29   H     H_    0.235508 0.208234 0.707476 -0.093217
O23   O     O_2   0.511880 0.129640 0.546881 -0.327291
O24   O     O_3   0.440491 0.144740 0.677096 -0.433121
H30   H     H_    0.433575 0.289627 0.728684 0.104102
H31   H     H_    0.317445 0.221514 0.834442 0.186079
C16   C     C_3   0.380884 0.173279 0.797205 -0.884142
H32   H     H_    0.512693 0.179800 0.817662 0.283960
H33   H     H_    0.321541 0.091818 0.793955 0.279354
C17   C     C_R   0.075585 0.178058 0.521102 -0.444501
C18   C     C_R   0.732452 0.817814 0.474675 -0.381232
C19   C     C_R   0.705540 0.986420 0.439204 -0.275160
C20   C     C_R   0.641427 0.882187 0.440051 0.157504
C21   C     C_R   0.884044 0.853556 0.513592 0.177588
C22   C     C_R   0.945275 0.965239 0.518793 -0.022641
C23   C     C_R   0.855559 0.033497 0.480029 -0.045618
C24   C     C_R   0.919332 0.144991 0.486116 0.245092
C25   C     C_R   0.166871 0.112789 0.553969 0.110001
C26   C     C_R   0.091909 0.011783 0.561417 -0.182842
H34   H     H_    0.129184 0.257747 0.522428 0.146409
H35   H     H_    0.681638 0.737509 0.472532 0.160406
C27   C     C_R   0.599301 0.553237 0.297847 -0.464603
C28   C     C_R   0.454929 0.485002 0.275581 0.272510
C29   C     C_R   0.404768 0.463363 0.202739 -0.216715
C30   C     C_R   0.505943 0.504012 0.152765 0.013853
C31   C     C_R   0.663996 0.557319 0.177028 -0.267274
C32   C     C_R   0.711461 0.580558 0.249176 0.244408
C33   C     C_R   0.497347 0.572773 0.035400 -0.093189
C34   C     C_R   0.445954 0.564455 0.963477 -0.122838
C35   C     C_R   0.345806 0.475490 0.929449 0.136142
C36   C     C_R   0.297356 0.395093 0.969467 -0.159571
C37   C     C_R   0.348725 0.403517 0.041809 -0.131373
C38   C     C_R   0.449804 0.492578 0.075770 0.173209
C39   C     C_R   0.127707 0.425208 0.827420 -0.296323
C40   C     C_R   0.076658 0.417486 0.755202 0.214146
C41   C     C_R   0.344711 0.499003 0.732653 0.306567
C42   C     C_R   0.398575 0.506136 0.804629 -0.180295
C43   C     C_R   0.290962 0.467438 0.852762 0.027370
C44   C     C_R   0.186498 0.451622 0.708121 -0.514469
H36   H     H_    0.522054 0.544059 0.823007 0.153932
H37   H     H_    0.482401 0.628780 0.934770 0.159549
H38   H     H_    0.572569 0.643377 0.059542 0.142477
H39   H     H_    0.287322 0.416070 0.185615 0.182263
H40   H     H_    0.221418 0.325020 0.944599 0.126659
H41   H     H_    0.311568 0.339595 0.070714 0.138766
H42   H     H_    0.040244 0.398705 0.863390 0.152709
H43   H     H_    0.750973 0.580479 0.139993 0.177410
H44   H     H_    0.145172 0.448147 0.652662 0.160842
H45   H     H_    0.632143 0.576483 0.353736 0.200208
C45   C     C_2   0.131674 0.763083 0.800781 1.224053
O25   O     O_2   0.270550 0.742203 0.812249 -0.585226
O26   O     O_R   0.089930 0.855145 0.832315 -0.788041
H46   H     H_    0.189671 0.903589 0.857579 0.340734
Cl1   Cl    Cl    0.248772 0.708605 0.144056 -0.500392
C46   C     C_2   0.191596 0.089567 0.274527 1.215983
O27   O     O_2   0.149743 0.131637 0.223482 -0.570611
O28   O     O_R   0.277363 0.006354 0.265330 -0.760699
H47   H     H_    0.314032 0.996095 0.215619 0.330059
C47   C     C_2   0.606360 0.938030 0.627506 1.043006
O29   O     O_2   0.691398 0.022615 0.635173 -0.563147
O30   O     O_R   0.497563 0.905220 0.566941 -0.805711
H48   H     H_    0.481997 0.960030 0.536084 0.369807
Cl2   Cl    Cl    0.510277 0.916796 0.757153 -0.544858
C48   C     C_2   0.622294 0.034463 0.384810 1.170272
O31   O     O_2   0.493753 0.067759 0.395209 -0.611978
O32   O     O_R   0.673730 0.021648 0.317073 -0.855962
H49   H     H_    0.590694 0.036915 0.279171 0.336641
C49   C     C_2   0.130083 0.974150 0.629035 1.077354
O33   O     O_2   0.266722 0.952431 0.644614 -0.562813
O34   O     O_R   0.010906 0.968938 0.677328 -0.843694
H50   H     H_    0.054067 0.948372 0.723873 0.353075
Cl3   Cl    Cl    0.975531 0.892573 0.151518 -0.482417
C50   C     C_2   0.793774 0.371821 0.307823 0.915238
O35   O     O_2   0.879168 0.374874 0.258268 -0.563964
O36   O     O_R   0.812182 0.450242 0.362366 -0.792442
H51   H     H_    0.931002 0.477244 0.372743 0.398420

loop_
_geom_bond_atom_site_label_1
_geom_bond_atom_site_label_2
_geom_bond_distance
_ccdc_geom_bond_type
P7    O22   1.730101 S    
O26   H46   1.021052 S    
H31   C16   1.112648 S    
O3    P6    1.721606 S    
C2    C3    1.541250 S    
C18   H35   1.082041 S    
C39   H42   1.083351 S    
C50   O35   1.223641 D    
C28   C29   1.408826 A    
C12   C47   1.493160 S    
O30   H48   0.999929 S    
P5    O17   1.755341 S    
C5    H9    1.114697 S    
O1    Ba1   2.935682 S    
O7    Ba1   2.813052 S    
C8    H14   1.106817 S    
C50   O36   1.372308 S    
C31   H43   1.083037 S    
C6    H10   1.099168 S    
C37   H41   1.082743 S    
O12   Ba2   2.936367 S    
C37   C38   1.406826 A    
C11   H21   1.108593 S    
C39   C40   1.401090 A    
C2    H3    1.114743 S    
P4    O15   1.776624 S    
P8    C25   1.874655 S    
O2    Ba1   2.910288 S    
C41   C42   1.402465 A    
C31   C32   1.393632 A    
C3    H5    1.107463 S    
C44   H44   1.082875 S    
C42   C43   1.413323 A    
P8    O23   1.535894 D    
P3    O11   1.744834 S    
C7    C45   1.498844 S    
C4    H6    1.100824 S    
C14   H26   1.107139 S    
C17   C24   1.392388 A    
C1    H2    1.109661 S    
O3    Ba1   2.859507 S    
C6    C7    1.532368 S    
C40   C44   1.390514 A    
O13   Ba2   2.911215 S    
C11   C12   1.526726 S    
C4    O15   1.399005 S    
C27   C32   1.401076 A    
C33   C34   1.395724 A    
P4    O13   1.630946 S    
C35   C36   1.409244 A    
C16   H33   1.113240 S    
C16   H32   1.112652 S    
P5    O18   1.544895 D    
C18   C20   1.397000 A    
C1    Cl1   1.783298 S    
Ba1   O16   2.771548 S    
C13   H24   1.124845 S    
O32   H49   1.013790 S    
C9    H17   1.112952 S    
Ba2   O21   2.813071 S    
H1    C10   1.110333 S    
C9    H16   1.103837 S    
C35   C43   1.489076 S    
C19   C20   1.409379 A    
C15   C16   1.520351 S    
O16   P7    1.768193 S    
P5    O19   1.753768 S    
C9    C46   1.506561 S    
O14   Ba2   2.858883 S    
C11   H20   1.116107 S    
P5    C40   1.832267 S    
C4    C50   1.455391 S    
C39   C43   1.408159 A    
O14   P8    1.733884 S    
P1    O2    1.630973 S    
C3    H23   1.106743 S    
C34   H37   1.083446 S    
C15   H29   1.110468 S    
P2    O10   1.737920 S    
C11   O22   1.384296 S    
C30   C31   1.408570 A    
P3    O9    1.545557 D    
O17   Ba2   2.812083 S    
C27   C28   1.395400 A    
C14   H28   1.117806 S    
P1    Ba1   3.448267 S    
O11   C2    1.407582 S    
C33   C38   1.409931 A    
P6    C20   1.882919 S    
C1    H19   1.109957 S    
C17   H34   1.082144 S    
C41   C44   1.386409 A    
C48   O32   1.394021 S    
O5    C6    1.404170 S    
P3    O8    1.751521 S    
Ba1   O13   2.893640 S    
C19   C23   1.432542 A    
C47   O29   1.222677 D    
C49   O34   1.398130 S    
C36   H40   1.083064 S    
P4    O12   1.510077 D    
O6    P6    1.754719 S    
O8    Ba1   2.811571 S    
O28   H47   1.020345 S    
C34   C35   1.402994 A    
Ba2   O20   2.771058 S    
C29   H39   1.082021 S    
C45   O26   1.398009 S    
C46   O27   1.226214 D    
C18   C21   1.396066 A    
O4    P6    1.551725 D    
C10   H18   1.108409 S    
C27   H45   1.082025 S    
C8    C9    1.543793 S    
Ba1   O20   2.931724 S    
O34   H50   1.012229 S    
O2    Ba2   2.894229 S    
C5    H8    1.118086 S    
C30   C38   1.494136 S    
C36   C37   1.403235 A    
P2    C28   1.859060 S    
C13   C14   1.522551 S    
C3    Cl3   1.790066 S    
P7    C41   1.826052 S    
C8    H15   1.110806 S    
C5    H7    1.109413 S    
P3    C32   1.842595 S    
O36   H51   0.990059 S    
O10   C8    1.398766 S    
C6    H11   1.104443 S    
P2    O7    1.515143 D    
C12   Cl2   1.791333 S    
C23   C24   1.484861 A    
O19   C13   1.422865 S    
P1    C21   1.959859 S    
P1    O1    1.509690 D    
C25   C26   1.419389 A    
C7    H13   1.111234 S    
C7    H12   1.107856 S    
C42   H36   1.082593 S    
C2    H4    1.112748 S    
C4    C5    1.537519 S    
C22   C26   1.425160 A    
C12   H22   1.110417 S    
C15   O24   1.404333 S    
C33   H38   1.081656 S    
C48   O31   1.223004 D    
C19   C48   1.453845 S    
P7    O21   1.556470 D    
O16   Ba2   2.930761 S    
C21   C22   1.484060 A    
P2    Ba1   3.390835 S    
C29   C30   1.416921 A    
P8    O24   1.748730 S    
P1    O5    1.758988 S    
C47   O30   1.397717 S    
C49   O33   1.221855 D    
C14   H27   1.118877 S    
C1    C10   1.531146 S    
C17   C25   1.390623 A    
O6    C10   1.404726 S    
C13   H25   1.115908 S    
C22   C23   1.469854 A    
P2    O20   1.544921 S    
C15   H30   1.112345 S    
C26   C49   1.463853 S    
P4    C24   1.945949 S    
P4    Ba2   3.448947 S    
C45   O25   1.221946 D    
C46   O28   1.391400 S    
Ba1   Ba2   4.577242 S    
