data_mof_unit_44353.cif
_audit_creation_date              2012-12-11T15:25:53-0500
_audit_creation_method            fapswitch 2.2
_symmetry_space_group_name_H-M    P1
_symmetry_Int_Tables_number       1
_space_group_crystal_system       triclinic
_cell_length_a                    24.51102
_cell_length_b                    17.089734
_cell_length_c                    15.56387
_cell_angle_alpha                 89.908133
_cell_angle_beta                  50.732609
_cell_angle_gamma                 90.048515
_cell_volume                      5047.37940314

loop_
_atom_site_label
_atom_site_type_symbol
_atom_type_description
_atom_site_fract_x
_atom_site_fract_y
_atom_site_fract_z
_atom_type_partial_charge
C1    C     C_R   0.340729 0.127872 0.782710 -0.133152
C2    C     C_2   0.305682 0.849494 0.981772 -0.223684
C3    C     C_2   0.341438 0.235212 0.891837 -0.216124
C4    C     C_2   0.694343 0.849827 0.018463 -0.221298
C5    C     C_2   0.139990 0.760102 0.153113 -0.218124
C6    C     C_2   0.860215 0.239597 0.846351 -0.218661
C7    C     C_2   0.859859 0.759447 0.847427 -0.219137
C8    C     C_2   0.190444 0.337092 0.028511 -0.217740
C9    C     C_2   0.764629 0.148156 0.957340 -0.106666
C10   C     C_2   0.235632 0.851347 0.042217 -0.109835
C11   C     C_2   0.302499 0.283705 0.882972 -0.109576
C12   C     C_R   0.667238 0.893154 0.197978 -0.129440
C13   C     C_2   0.764385 0.850564 0.958548 -0.106720
C14   C     C_2   0.192435 0.799899 0.138136 -0.106778
C15   C     C_2   0.807681 0.199812 0.861545 -0.106531
C16   C     C_2   0.807144 0.798977 0.863051 -0.106196
C17   C     C_2   0.260194 0.341311 0.968453 -0.116626
C18   C     C_R   0.591708 0.142897 0.590938 -0.121178
C19   C     C_R   0.412766 0.854865 0.407488 -0.125190
C20   C     C_R   0.412426 0.144224 0.406251 -0.126208
C21   C     C_R   0.587217 0.854890 0.592817 -0.125069
C22   C     C_R   0.114703 0.603048 0.592134 -0.133213
C23   C     C_R   0.667349 0.106760 0.197612 -0.128712
C24   C     C_R   0.886087 0.396496 0.407023 -0.122291
C25   C     C_R   0.885259 0.603112 0.407900 -0.134337
C26   C     C_R   0.115094 0.397120 0.591568 -0.135066
C27   C     C_R   0.663525 0.143751 0.406216 -0.128460
C28   C     C_R   0.337802 0.855185 0.592695 -0.126199
C29   C     C_R   0.334976 0.142570 0.590989 -0.124689
C30   C     C_R   0.662130 0.855372 0.407592 -0.126560
C31   C     C_R   0.188970 0.602533 0.408194 -0.140022
C32   C     C_R   0.811095 0.397805 0.591198 -0.140069
C33   C     C_R   0.811114 0.602545 0.591850 -0.138495
C34   C     C_R   0.332760 0.892810 0.802090 -0.128990
C35   C     C_R   0.188738 0.396830 0.407362 -0.122760
C36   C     C_R   0.577228 0.106487 0.196711 -0.158996
C37   C     C_R   0.422909 0.893126 0.803011 -0.161432
C38   C     C_R   0.431310 0.127885 0.782995 -0.144860
C39   C     C_R   0.577143 0.893432 0.196942 -0.159511
C40   C     C_R   0.057838 0.642603 0.243564 -0.149085
C41   C     C_R   0.942276 0.357257 0.756131 -0.150076
C42   C     C_R   0.942186 0.642450 0.756458 -0.150173
C43   C     C_R   0.074855 0.387807 0.201580 -0.148118
C44   C     C_R   0.368852 0.164573 0.825558 0.149192
C45   C     C_R   0.851276 0.642860 0.755285 -0.120887
C46   C     C_R   0.647649 0.874836 0.134512 0.155881
C47   C     C_R   0.647810 0.124968 0.134019 0.155522
C48   C     C_R   0.352393 0.874346 0.865512 0.154724
C49   C     C_R   0.884381 0.685538 0.786552 0.149047
C50   C     C_R   0.144509 0.366008 0.141873 0.147776
C51   C     C_R   0.115609 0.685849 0.213591 0.149234
C52   C     C_R   0.884551 0.313935 0.785973 0.148727
C53   C     C_R   0.641258 0.187563 0.497941 0.040784
C54   C     C_R   0.362227 0.810368 0.500236 0.040035
C55   C     C_R   0.360515 0.187634 0.498168 0.040715
C56   C     C_R   0.165361 0.386836 0.203195 -0.117618
C57   C     C_R   0.637719 0.810544 0.500249 0.040183
C58   C     C_R   0.183731 0.618091 0.500249 0.048627
C59   C     C_R   0.816877 0.382325 0.498567 0.045350
C60   C     C_R   0.816307 0.618204 0.499838 0.048449
C61   C     C_R   0.183945 0.381963 0.499117 0.044878
C62   C     C_R   0.273837 0.294840 0.597618 -0.167915
C63   C     C_R   0.726951 0.705631 0.399763 -0.167474
C64   C     C_R   0.730612 0.292387 0.396074 -0.167738
C65   C     C_R   0.272845 0.705139 0.600869 -0.167009
C66   C     C_R   0.692261 0.658162 0.600540 -0.171747
C67   C     C_R   0.148754 0.643070 0.244717 -0.121616
C68   C     C_R   0.307605 0.341071 0.397100 -0.170252
C69   C     C_R   0.307879 0.657954 0.399952 -0.171469
C70   C     C_R   0.692762 0.344084 0.597263 -0.171737
C71   C     C_R   0.646455 0.705514 0.600635 -0.168761
C72   C     C_R   0.352684 0.292333 0.396750 -0.168953
C73   C     C_R   0.353709 0.705258 0.400001 -0.168643
C74   C     C_R   0.647873 0.295295 0.596920 -0.169769
C75   C     C_R   0.228487 0.343299 0.598070 -0.168861
C76   C     C_R   0.772848 0.658352 0.399575 -0.170661
C77   C     C_R   0.775372 0.341387 0.396319 -0.170689
C78   C     C_R   0.851376 0.356781 0.754939 -0.121203
C79   C     C_R   0.226970 0.657827 0.600916 -0.170774
C80   C     C_R   0.667603 0.736580 0.500242 0.144071
C81   C     C_R   0.331565 0.261840 0.497327 0.145065
C82   C     C_R   0.332375 0.736255 0.500399 0.143879
C83   C     C_R   0.670882 0.261927 0.496764 0.145478
C84   C     C_R   0.241693 0.359350 0.498053 0.142598
C85   C     C_R   0.758892 0.641306 0.499963 0.143046
C86   C     C_R   0.760033 0.359948 0.497271 0.143623
C87   C     C_R   0.241098 0.641000 0.500401 0.142797
C88   C     C_2   0.694576 0.149550 0.017608 -0.221161
H1    H     H_    0.287807 0.134291 0.811371 0.085949
H2    H     H_    0.442469 0.839508 0.321382 0.091876
H3    H     H_    0.442860 0.159644 0.319927 0.092089
H4    H     H_    0.557553 0.839432 0.678992 0.091873
H5    H     H_    0.093716 0.598440 0.677362 0.081585
H6    H     H_    0.907924 0.400336 0.321311 0.081363
H7    H     H_    0.906109 0.598608 0.322755 0.081479
H8    H     H_    0.094572 0.401738 0.676537 0.082535
H9    H     H_    0.703010 0.158848 0.319959 0.092203
H10   H     H_    0.297640 0.839971 0.678753 0.091933
H11   H     H_    0.290353 0.155352 0.675283 0.083252
H12   H     H_    0.720145 0.896483 0.170507 0.078890
H13   H     H_    0.702255 0.840337 0.321593 0.091862
H14   H     H_    0.236675 0.597455 0.323253 0.082103
H15   H     H_    0.763196 0.402958 0.675956 0.083630
H16   H     H_    0.763461 0.597416 0.676881 0.082613
H17   H     H_    0.235965 0.401086 0.321846 0.080596
H18   H     H_    0.548196 0.102661 0.165994 0.091458
H19   H     H_    0.451997 0.896722 0.833650 0.092370
H20   H     H_    0.461467 0.135807 0.810925 0.086262
H21   H     H_    0.548097 0.897058 0.166231 0.091499
H22   H     H_    0.020721 0.658677 0.230981 0.099218
H23   H     H_    0.720292 0.103275 0.169933 0.078717
H24   H     H_    0.979464 0.341139 0.768554 0.099937
H25   H     H_    0.979282 0.658489 0.769121 0.099559
H26   H     H_    0.045051 0.388542 0.172045 0.092753
H27   H     H_    0.259261 0.277350 0.676534 0.101730
H28   H     H_    0.742322 0.724028 0.320666 0.107893
H29   H     H_    0.747260 0.272361 0.316893 0.107719
H30   H     H_    0.257323 0.723482 0.679992 0.108065
H31   H     H_    0.677746 0.641871 0.679735 0.104449
H32   H     H_    0.321756 0.356883 0.318014 0.104445
H33   H     H_    0.322496 0.641805 0.320722 0.104358
H34   H     H_    0.279833 0.895941 0.829632 0.080572
H35   H     H_    0.677160 0.362086 0.676539 0.104836
H36   H     H_    0.598469 0.723911 0.679806 0.106109
H37   H     H_    0.399748 0.272493 0.317529 0.106164
H38   H     H_    0.401865 0.723728 0.320858 0.106128
H39   H     H_    0.599017 0.277836 0.675867 0.107049
H40   H     H_    0.180248 0.361041 0.677357 0.104737
H41   H     H_    0.821890 0.642176 0.320338 0.105089
H42   H     H_    0.824849 0.357144 0.317245 0.105020
H43   H     H_    0.177810 0.641516 0.680117 0.105125
H44   H     H_    0.211401 0.878525 0.010736 0.125712
H45   H     H_    0.803944 0.657436 0.767570 0.090132
H46   H     H_    0.788879 0.121277 0.988965 0.123973
H47   H     H_    0.788773 0.877112 0.990113 0.123846
H48   H     H_    0.292027 0.272131 0.825913 0.127996
H49   H     H_    0.787858 0.216380 0.818447 0.128189
H50   H     H_    0.212121 0.783425 0.181464 0.128259
H51   H     H_    0.284302 0.373510 0.996801 0.127617
H52   H     H_    0.787164 0.782512 0.820179 0.128045
H53   H     H_    0.329215 0.821653 0.014212 0.128723
H54   H     H_    0.671026 0.177071 0.985008 0.128042
H55   H     H_    0.670657 0.822635 0.985913 0.127981
H56   H     H_    0.217749 0.385679 0.178096 0.082307
H57   H     H_    0.351493 0.246694 0.949418 0.129594
H58   H     H_    0.879292 0.222886 0.890625 0.128174
H59   H     H_    0.121059 0.776718 0.108599 0.128301
H60   H     H_    0.167127 0.303875 0.999364 0.129836
H61   H     H_    0.879107 0.776092 0.891446 0.128098
H62   H     H_    0.196088 0.657762 0.232447 0.089977
H63   H     H_    0.804127 0.342023 0.766968 0.090636
H64   H     H_    0.568373 0.155931 0.675242 0.085806
N1    N     N_R   0.388930 0.078160 0.705470 -0.041274
N2    N     N_R   0.419500 0.922160 0.443350 -0.040699
N3    N     N_R   0.419500 0.077840 0.443350 -0.040379
N4    N     N_R   0.580500 0.922160 0.556650 -0.040703
N5    N     N_R   0.080500 0.577840 0.556650 -0.035229
N6    N     N_R   0.919500 0.422160 0.443350 -0.036441
N7    N     N_R   0.919500 0.577840 0.443350 -0.035588
N8    N     N_R   0.080500 0.422160 0.556650 -0.036226
N9    N     N_R   0.626210 0.077590 0.443410 -0.041062
N10   N     N_R   0.373790 0.922410 0.556590 -0.041323
N11   N     N_R   0.373790 0.077590 0.556590 -0.040102
N12   N     N_R   0.611070 0.921840 0.294530 -0.041923
N13   N     N_R   0.626210 0.922410 0.443410 -0.041349
N14   N     N_R   0.126210 0.577590 0.443410 -0.036254
N15   N     N_R   0.873790 0.422410 0.556590 -0.036875
N16   N     N_R   0.873790 0.577590 0.556590 -0.035815
N17   N     N_R   0.126210 0.422410 0.443410 -0.037022
N18   N     N_R   0.554800 0.077270 0.294580 -0.038493
N19   N     N_R   0.445200 0.922730 0.705420 -0.039345
N20   N     N_R   0.445200 0.077270 0.705420 -0.038513
N21   N     N_R   0.554800 0.922730 0.294580 -0.038445
N22   N     N_R   0.054800 0.577270 0.294580 -0.042559
N23   N     N_R   0.611070 0.078160 0.294530 -0.041937
N24   N     N_R   0.945200 0.422730 0.705420 -0.043347
N25   N     N_R   0.945200 0.577270 0.705420 -0.043222
N26   N     N_R   0.054800 0.422730 0.294580 -0.041802
N27   N     N_R   0.388930 0.921840 0.705470 -0.042751
N28   N     N_R   0.888930 0.578160 0.705470 -0.046197
N29   N     N_R   0.111070 0.421840 0.294530 -0.045375
N30   N     N_R   0.111070 0.578160 0.294530 -0.045951
N31   N     N_R   0.888930 0.421840 0.705470 -0.046317
N32   N     N_R   0.580500 0.077840 0.556650 -0.040246
Ni1   Ni    Ni4+2 0.382710 1.000000 0.629850 0.211888
Ni2   Ni    Ni4+2 0.617290 0.000000 0.370150 0.209397
Ni3   Ni    Ni4+2 0.882710 0.500000 0.629850 0.208393
Ni4   Ni    Ni4+2 0.117290 0.500000 0.370150 0.206620
Ni5   Ni    Ni4+2 0.513020 1.000000 0.629850 0.212649
Ni6   Ni    Ni4+2 0.486980 0.000000 0.370150 0.211301
Ni7   Ni    Ni4+2 0.013020 0.500000 0.629850 0.207891
Ni8   Ni    Ni4+2 0.986980 0.500000 0.370150 0.207593

loop_
_geom_bond_atom_site_label_1
_geom_bond_atom_site_label_2
_ccdc_geom_bond_type
N24   N31   A    
C43   N26   A    
C5    H59   S    
C20   N3    A    
C27   N9    A    
C33   H16   S    
C64   C77   A    
C29   N11   A    
C74   C83   A    
C39   N21   A    
C58   C87   S    
N22   N30   A    
C4    H55   S    
C79   C87   A    
C28   N10   A    
C4    C46   S    
C21   C57   A    
C74   H39   S    
C65   C79   A    
C9    H46   S    
C31   C58   A    
N3    Ni6   S    
C26   C61   A    
C37   H19   S    
N31   Ni3   S    
C9    C88   D    
C6    H58   S    
C24   N6    A    
C75   C84   A    
C23   N23   A    
C56   N29   A    
C42   N25   A    
C73   H38   S    
C30   C57   A    
N21   Ni6   S    
N7    N16   A    
N19   Ni5   S    
C36   C47   A    
C75   H40   S    
C4    C13   D    
C1    C44   A    
C18   C53   A    
C6    C15   D    
C7    H61   S    
C70   H35   S    
C11   C17   S    
C14   H50   S    
C41   H24   S    
C70   C74   A    
N8    N17   A    
C69   C73   A    
C25   C60   A    
C69   H33   S    
C55   C81   S    
C41   C52   A    
N12   Ni2   S    
C72   C81   A    
C45   N28   A    
C68   C72   A    
C63   C80   A    
N4    Ni5   S    
N2    Ni6   S    
N15   Ni3   S    
C34   H34   S    
N16   Ni3   S    
C67   H62   S    
C13   H47   S    
C57   C80   S    
N19   N27   A    
C34   N27   A    
C16   H52   S    
C66   C85   A    
C20   C55   A    
C52   C78   A    
C88   H54   S    
C71   C80   A    
N29   Ni4   S    
C78   H63   S    
N18   N23   A    
C26   H8    S    
C20   H3    S    
C3    C44   S    
C23   C47   A    
C29   H11   S    
C36   H18   S    
C68   C84   A    
C31   H14   S    
C71   H36   S    
C7    C49   S    
C35   C61   A    
C10   C14   S    
C28   C54   A    
C25   N7    A    
N24   Ni7   S    
C40   H22   S    
C29   C55   A    
C2    C48   S    
C50   C56   A    
C64   H29   S    
C12   H12   S    
N5    Ni7   S    
C64   C83   A    
C38   C44   A    
N9    Ni2   S    
C35   H17   S    
N28   Ni3   S    
C24   H6    S    
C12   N12   A    
N26   Ni8   S    
C76   H41   S    
C42   H25   S    
C66   C71   A    
C31   N14   A    
C18   N32   A    
N6    Ni8   S    
C65   H30   S    
N25   N28   A    
C79   H43   S    
C45   C49   A    
C32   H15   S    
N12   N21   A    
C17   H51   S    
C51   C67   A    
N13   Ni2   S    
C37   C48   A    
C1    N1    A    
C5    C14   D    
C39   C46   A    
C63   H28   S    
C19   C54   A    
C12   C46   A    
C7    C16   D    
N17   Ni4   S    
C62   C81   A    
C77   C86   A    
C25   H7    S    
C33   C60   A    
C66   H31   S    
C35   N17   A    
C22   H5    S    
N14   Ni4   S    
N6    N15   A    
C13   C16   S    
C33   N16   A    
C34   C48   A    
C70   C86   A    
C8    C50   S    
C73   C82   A    
C54   C82   S    
C26   N8    A    
C28   H10   S    
C2    H53   S    
C27   H9    S    
C1    H1    S    
C36   N18   A    
N7    Ni8   S    
N2    N10   A    
C8    C17   D    
N8    Ni7   S    
C61   C84   S    
C69   C87   A    
N5    N14   A    
C22   C58   A    
N10   Ni1   S    
C60   C85   S    
C27   C53   A    
C43   C50   A    
C38   N20   A    
N27   Ni1   S    
C22   N5    A    
N20   Ni5   S    
C40   C51   A    
C23   H23   S    
N18   Ni6   S    
C45   H45   S    
N25   Ni7   S    
C53   C83   S    
C72   H37   S    
N11   Ni1   S    
N3    N11   A    
C47   C88   S    
N9    N32   A    
C3    H57   S    
C9    C15   S    
C59   C86   S    
C62   H27   S    
C43   H26   S    
C19   H2    S    
C11   H48   S    
C8    H60   S    
N23   Ni2   S    
C40   N22   A    
C65   C82   A    
N1    Ni1   S    
N4    N13   A    
C24   C59   A    
N1    N20   A    
C15   H49   S    
C21   N4    A    
C30   H13   S    
C77   H42   S    
C38   H20   S    
C62   C75   A    
C10   H44   S    
C37   N19   A    
N26   N29   A    
C3    C11   D    
C42   C49   A    
C41   N24   A    
C56   H56   S    
C39   H21   S    
C63   C76   A    
C32   N15   A    
C19   N2    A    
N32   Ni5   S    
C5    C51   S    
C30   N13   A    
C32   C59   A    
C6    C52   S    
N30   Ni4   S    
C76   C85   A    
C68   H32   S    
C78   N31   A    
C67   N30   A    
N22   Ni8   S    
C18   H64   S    
C21   H4    S    
C2    C10   D    
