data_mof_unit_20043.cif
_audit_creation_date              2012-12-10T17:49:34-0500
_audit_creation_method            fapswitch 2.2
_symmetry_space_group_name_H-M    P1
_symmetry_Int_Tables_number       1
_space_group_crystal_system       triclinic
_cell_length_a                    14.72503
_cell_length_b                    14.698056
_cell_length_c                    15.866533
_cell_angle_alpha                 76.945658
_cell_angle_beta                  102.815507
_cell_angle_gamma                 114.769325
_cell_volume                      3005.92031214

loop_
_atom_site_label
_atom_site_type_symbol
_atom_type_description
_atom_site_fract_x
_atom_site_fract_y
_atom_site_fract_z
_atom_type_partial_charge
C1    C     C_R   0.880419 0.312269 0.514158 0.790621
C2    C     C_3   0.041022 0.421371 0.073292 -0.475845
C3    C     C_3   0.999806 0.499366 0.082727 0.262732
C4    C     C_3   0.067901 0.606267 0.040578 0.349026
C5    C     C_3   0.065497 0.605711 0.942074 -0.416527
C6    C     C_1   0.000066 0.498692 0.175220 -0.066684
C7    C     C_1   0.998374 0.498969 0.824814 -0.090436
C8    C     C_1   0.998664 0.499315 0.749230 -0.178718
C9    C     C_R   0.812849 0.204748 0.518077 -0.054240
C10   C     C_R   0.187211 0.795783 0.472660 -0.172966
C11   C     C_R   0.783597 0.027981 0.530223 -0.196945
C12   C     C_R   0.999592 0.499783 0.659659 0.823074
C13   C     C_R   0.850332 0.128586 0.531921 -0.175272
C14   C     C_R   0.708485 0.179161 0.503662 -0.258382
C15   C     C_R   0.639590 0.079041 0.498174 0.086765
C16   C     C_R   0.678806 0.002686 0.513390 0.156049
C17   C     C_R   0.533184 0.052798 0.479104 0.065033
C18   C     C_R   0.467054 0.948741 0.483451 0.089715
C19   C     C_R   0.509457 0.875115 0.497081 -0.227794
C20   C     C_R   0.613264 0.901971 0.511253 -0.226561
C21   C     C_R   0.490770 0.127143 0.454016 -0.235072
C22   C     C_R   0.387102 0.100447 0.438667 -0.198082
C23   C     C_R   0.119619 0.687859 0.484890 0.831041
C24   C     C_R   0.321632 0.999091 0.448761 0.073246
C25   C     C_R   0.360647 0.922104 0.472297 0.092918
C26   C     C_R   0.217106 0.974074 0.435651 -0.275074
C27   C     C_R   0.150036 0.873171 0.446845 0.604297
C28   C     C_R   0.291699 0.821056 0.486006 -0.351938
C29   C     C_R   0.719900 0.675431 0.363881 -0.309746
C30   C     C_R   0.799682 0.643556 0.383233 0.127045
C31   C     C_R   0.714204 0.507476 0.487055 0.042588
C32   C     C_R   0.633131 0.539740 0.475122 -0.003602
C33   C     C_R   0.636416 0.623720 0.409101 0.148572
C34   C     C_R   0.000100 0.499717 0.340348 0.816299
C35   C     C_R   0.548554 0.491188 0.523665 -0.023992
C36   C     C_R   0.463483 0.520983 0.495894 0.041407
C37   C     C_R   0.470920 0.604158 0.428736 -0.213290
C38   C     C_R   0.556346 0.655445 0.387822 -0.202306
C39   C     C_R   0.546628 0.417128 0.600053 0.400712
C40   C     C_R   0.459446 0.369533 0.640799 -0.258878
C41   C     C_R   0.374090 0.391850 0.609299 0.036961
C42   C     C_R   0.374695 0.468872 0.537854 -0.018560
C43   C     C_R   0.288938 0.339216 0.651880 -0.378310
C44   C     C_R   0.204700 0.365446 0.626171 0.674188
C45   C     C_3   0.041182 0.421825 0.975583 -0.400993
C46   C     C_R   0.285705 0.490178 0.512370 -0.075086
C47   C     C_3   0.890054 0.469802 0.935061 -0.370794
C48   C     C_3   0.890583 0.469948 0.032771 -0.355606
C49   C     C_1   0.000258 0.498983 0.250805 -0.166434
C50   C     C_3   0.998737 0.498989 0.917044 0.271158
Cu1   Cu    Cu3+1 0.081750 0.475690 0.522550 0.966578
Cu2   Cu    Cu3+1 0.918250 0.524310 0.477450 0.973358
H1    H     H_    0.993482 0.344062 0.102823 0.189034
H2    H     H_    0.119649 0.441708 0.964168 0.165825
H3    H     H_    0.119207 0.439732 0.109035 0.166697
H4    H     H_    0.642404 0.843136 0.521162 0.159636
H5    H     H_    0.317745 0.760325 0.509291 0.179738
H6    H     H_    0.357989 0.159907 0.419548 0.143985
H7    H     H_    0.813917 0.969926 0.541346 0.150733
H8    H     H_    0.930910 0.146737 0.543421 0.178331
H9    H     H_    0.682857 0.239085 0.497911 0.147610
H10   H     H_    0.994646 0.344495 0.958480 0.175515
H11   H     H_    0.464606 0.795828 0.494733 0.145870
H12   H     H_    0.535334 0.207271 0.443011 0.134449
H13   H     H_    0.187202 0.032918 0.416854 0.162142
H14   H     H_    0.558889 0.719865 0.337576 0.141289
H15   H     H_    0.278427 0.546406 0.457688 0.142478
H16   H     H_    0.459403 0.317449 0.701092 0.140178
H17   H     H_    0.723775 0.740663 0.314295 0.145060
H18   H     H_    0.865361 0.684900 0.350086 0.160641
H19   H     H_    0.714130 0.439350 0.528680 0.180010
H20   H     H_    0.857915 0.524337 0.893739 0.184225
H21   H     H_    0.412554 0.633678 0.407384 0.127259
H22   H     H_    0.288127 0.278135 0.705137 0.151057
H23   H     H_    0.840387 0.393264 0.917557 0.163728
H24   H     H_    0.841308 0.393362 0.062121 0.156207
H25   H     H_    0.858112 0.524021 0.038444 0.202897
H26   H     H_    0.143917 0.628956 0.928809 0.122137
H27   H     H_    0.035836 0.662061 0.900527 0.190902
H28   H     H_    0.146883 0.621738 0.074778 0.035886
N1    N     N_R   0.795410 0.560790 0.443550 -0.201553
N2    N     N_R   0.204590 0.439170 0.556520 -0.216169
O1    O     O_R   0.977910 0.338120 0.529720 -0.534950
O2    O     O_R   0.839850 0.379180 0.491640 -0.613202
O3    O     O_R   0.069060 0.479460 0.639610 -0.563854
O4    O     O_R   0.931000 0.520530 0.601530 -0.563320
O5    O     O_R   0.160150 0.620820 0.508360 -0.605809
O6    O     O_R   0.022090 0.661880 0.470280 -0.524843
O7    O     O_R   0.069000 0.479470 0.398470 -0.585722
O8    O     O_R   0.930940 0.520540 0.360390 -0.579464
O9    O     O_3   0.032431 0.679264 0.049659 -0.574195
C51   C     C_3   0.113157 0.774399 0.055743 0.051352
H29   H     H_    0.155811 0.799207 0.999252 0.134279
H30   H     H_    0.165426 0.770805 0.117827 0.140614
C52   C     C_3   0.071132 0.852891 0.055721 -0.763589
H31   H     H_    0.029265 0.830834 0.112180 0.252507
H32   H     H_    0.134011 0.927996 0.060851 0.194517
H33   H     H_    0.019127 0.858734 0.994140 0.246245
F1    F     F_    0.049366 0.851991 0.433182 -0.672485
O10   O     O_3   0.117561 0.311598 0.664711 -0.560700
C53   C     C_3   0.136995 0.306265 0.756958 0.056050
H34   H     H_    0.089442 0.337849 0.776333 0.174469
H35   H     H_    0.216552 0.350880 0.783805 0.111857
C54   C     C_3   0.105943 0.195956 0.799810 -0.841425
H36   H     H_    0.151620 0.160952 0.782337 0.241237
H37   H     H_    0.117852 0.191518 0.871985 0.206993
H38   H     H_    0.024745 0.152894 0.777613 0.258954
O11   O     O_3   0.634918 0.406259 0.644785 -0.586781
C55   C     C_3   0.623100 0.303296 0.660132 0.033153
H39   H     H_    0.592019 0.269018 0.598801 0.130151
H40   H     H_    0.573297 0.257885 0.710504 0.150879
C56   C     C_3   0.725419 0.296557 0.695179 -0.783682
H41   H     H_    0.757186 0.328458 0.757401 0.246144
H42   H     H_    0.716778 0.216106 0.707386 0.202745
H43   H     H_    0.778824 0.339304 0.647328 0.250830

loop_
_geom_bond_atom_site_label_1
_geom_bond_atom_site_label_2
_ccdc_geom_bond_type
C10   C27   A    
C53   H34   S    
C11   C13   A    
C41   C42   A    
C45   H10   S    
Cu2   O8    S    
C52   H31   S    
C9    C14   A    
C3    C6    S    
Cu1   O3    S    
C56   H42   S    
C52   H33   S    
C7    C8    T    
C13   H8    S    
C28   H5    S    
C25   C28   A    
C27   F1    S    
C26   C27   A    
C37   C38   A    
C12   O3    A    
C36   C37   A    
C24   C26   A    
C4    H28   S    
C44   N2    A    
C2    H3    S    
C55   H40   S    
C15   C16   A    
C29   C33   A    
C3    C48   S    
O11   C55   S    
C18   C19   A    
C42   C46   A    
Cu2   O2    S    
C9    C13   A    
C54   H36   S    
C21   H12   S    
C46   N2    A    
C36   C42   A    
C38   H14   S    
C19   H11   S    
C5    H27   S    
C16   C20   A    
C4    O9    S    
C43   H22   S    
C31   H19   S    
C53   H35   S    
C23   O5    A    
C21   C22   A    
C41   C43   A    
C18   C25   A    
C11   H7    S    
C54   H37   S    
C56   H41   S    
C30   H18   S    
C47   C50   S    
C29   H17   S    
C2    C45   S    
C39   O11   S    
Cu1   Cu2   S    
C32   C35   A    
Cu2   O6    S    
C1    C9    S    
C24   C25   A    
C55   C56   S    
Cu1   O5    S    
O9    C51   S    
C14   H9    S    
C51   C52   S    
C17   C21   A    
C1    O2    A    
C35   C36   A    
C48   H25   S    
C35   C39   A    
C43   C44   A    
C34   O8    A    
C29   C30   A    
C11   C16   A    
C47   C48   S    
C8    C12   S    
C51   H30   S    
C17   C18   A    
Cu1   N2    S    
C40   C41   A    
C45   H2    S    
C53   C54   S    
C23   O6    A    
C22   C24   A    
C5    C50   S    
C3    C4    S    
Cu1   O1    S    
C39   C40   A    
C10   C28   A    
C15   C17   A    
C37   H21   S    
C34   C49   S    
C26   H13   S    
C31   C32   A    
C7    C50   S    
C4    C5    S    
C2    H1    S    
C22   H6    S    
C52   H32   S    
C10   C23   S    
C1    O1    A    
C33   C38   A    
C31   N1    A    
C12   O4    A    
C32   C33   A    
C19   C20   A    
Cu2   O4    S    
C2    C3    S    
C34   O7    A    
C47   H23   S    
C46   H15   S    
C55   H39   S    
Cu1   O7    S    
C44   O10   S    
C45   C50   S    
C30   N1    A    
C51   H29   S    
C20   H4    S    
C54   H38   S    
C6    C49   T    
Cu2   N1    S    
C47   H20   S    
C48   H24   S    
C40   H16   S    
C14   C15   A    
O10   C53   S    
C5    H26   S    
C56   H43   S    
