data_mof_unit_39706.cif
_audit_creation_date              2013-03-05T15:52:54-0500
_audit_creation_method            fapswitch 2.2
_symmetry_space_group_name_H-M    P1
_symmetry_Int_Tables_number       1
_space_group_crystal_system       triclinic
_cell_length_a                    10.770759
_cell_length_b                    10.712295
_cell_length_c                    17.075009
_cell_angle_alpha                 99.670968
_cell_angle_beta                  99.360619
_cell_angle_gamma                 61.48864
_cell_volume                      1698.82484928

loop_
_atom_site_label
_atom_site_type_symbol
_atom_site_description
_atom_site_fract_x
_atom_site_fract_y
_atom_site_fract_z
_atom_type_partial_charge
O1    O     O_R   0.749810 0.499790 0.438040 -0.529912
O2    O     O_R   0.477660 0.726260 0.439290 -0.516017
C1    C     C_R   0.355388 0.777064 0.401644 0.571944
O3    O     O_R   0.260150 0.743000 0.412270 -0.486760
O4    O     O_R   0.297740 0.466550 0.394720 -0.512318
C2    C     C_R   0.373691 0.348223 0.356722 0.539973
O5    O     O_R   0.488080 0.253500 0.386430 -0.521072
O6    O     O_R   0.722670 0.303800 0.421940 -0.478024
C3    C     C_R   0.784974 0.370998 0.407879 0.584197
O7    O     O_R   0.751130 0.502220 0.613520 -0.473717
O8    O     O_R   0.478890 0.728510 0.601960 -0.501058
C4    C     C_R   0.379848 0.716447 0.631300 0.558807
O9    O     O_R   0.261470 0.745430 0.587750 -0.472236
O10   O     O_R   0.298970 0.468800 0.557390 -0.520226
C5    C     C_R   0.368590 0.344090 0.583255 0.516895
O11   O     O_R   0.489400 0.255930 0.561910 -0.525532
O12   O     O_R   0.723890 0.306050 0.584610 -0.495460
C6    C     C_R   0.772664 0.381010 0.629890 0.561886
Cr1   Cr    Cr6+3 0.608100 0.610860 0.522250 1.026304
Cr2   Cr    Cr6+3 0.288890 0.599990 0.488420 1.040875
Cr3   Cr    Cr6+3 0.603040 0.289190 0.489390 1.029288
O13   O     O_3   0.500010 0.500010 0.500020 -0.277982
C7    C     C_1   0.350568 0.338196 0.273223 -0.035497
C8    C     C_1   0.337059 0.328851 0.202395 0.010922
H1    H     H_    0.957957 0.457965 0.371961 0.113146
C9    C     C_R   0.912675 0.307893 0.183178 0.009848
C10   C     C_R   0.847418 0.230528 0.202909 -0.025769
C11   C     C_R   0.857530 0.208053 0.283160 0.027081
C12   C     C_R   0.937526 0.386688 0.324606 -0.175488
C13   C     C_R   0.959469 0.386677 0.246777 -0.034569
C14   C     C_R   0.765972 0.180679 0.146143 -0.114298
C15   C     C_R   0.721325 0.088718 0.165586 -0.130769
C16   C     C_R   0.754612 0.047100 0.241917 -0.123143
C17   C     C_R   0.829022 0.099365 0.300519 0.040493
C18   C     C_R   0.875325 0.309062 0.341988 0.033596
H2    H     H_    0.731671 0.215862 0.087495 0.158594
H3    H     H_    0.666277 0.044574 0.120501 0.157909
H4    H     H_    0.721214 0.975103 0.255810 0.121464
H5    H     H_    0.122625 0.879940 0.309176 0.191365
C19   C     C_R   0.321030 0.841025 0.164047 -0.007358
C20   C     C_R   0.451240 0.812002 0.209498 0.009267
C21   C     C_R   0.458476 0.821910 0.293603 0.019608
C22   C     C_R   0.212846 0.867596 0.282784 -0.120600
C23   C     C_R   0.204994 0.855588 0.201540 -0.009034
C24   C     C_R   0.575330 0.769023 0.172707 -0.086446
C25   C     C_R   0.701019 0.747691 0.218219 -0.119560
C26   C     C_R   0.707085 0.767270 0.301024 -0.135843
C27   C     C_R   0.585940 0.808937 0.338563 -0.066844
C28   C     C_R   0.339262 0.840187 0.329047 -0.021158
H6    H     H_    0.577577 0.748619 0.108617 0.149341
H7    H     H_    0.790624 0.726555 0.188488 0.203520
H8    H     H_    0.804597 0.755402 0.336044 0.097917
H9    H     H_    0.593159 0.834815 0.402495 0.132766
C29   C     C_R   0.327778 0.338628 0.821617 0.018400
C30   C     C_R   0.457957 0.255524 0.788303 0.035647
C31   C     C_R   0.451789 0.218823 0.705682 -0.003894
C32   C     C_R   0.208505 0.410799 0.690599 -0.018565
C33   C     C_R   0.205161 0.419505 0.772921 -0.112326
C34   C     C_R   0.591133 0.193374 0.834835 0.012818
C35   C     C_R   0.706268 0.075729 0.800910 -0.117082
C36   C     C_R   0.693079 0.022638 0.721267 -0.000874
C37   C     C_R   0.564737 0.091310 0.674808 -0.101826
C38   C     C_R   0.335534 0.314502 0.656656 -0.043084
H10   H     H_    0.104424 0.481989 0.798257 0.191827
H11   H     H_    0.806542 0.025035 0.836727 0.164271
H12   H     H_    0.554558 0.045855 0.613932 0.124983
C39   C     C_1   0.817170 0.342005 0.709006 -0.008423
C40   C     C_1   0.844828 0.313302 0.776608 -0.018474
C41   C     C_1   0.357008 0.766350 0.713485 -0.012732
C42   C     C_1   0.324592 0.812864 0.780481 0.001715
O14   O     O_R   0.171100 0.914680 0.053100 -0.542859
O15   O     O_R   0.941680 0.184840 0.050710 -0.548296
C43   C     C_R   0.951202 0.287882 0.100817 0.563006
O16   O     O_R   0.922080 0.403420 0.072610 -0.440541
O17   O     O_R   0.196880 0.369150 0.083850 -0.436724
C44   C     C_R   0.320062 0.300737 0.119322 0.576170
O18   O     O_R   0.411730 0.181020 0.091530 -0.544900
O19   O     O_R   0.365010 0.944360 0.063320 -0.510331
C45   C     C_R   0.291734 0.891539 0.085501 0.536511
O20   O     O_R   0.159380 0.906670 0.876210 -0.470583
O21   O     O_R   0.930820 0.177420 0.886730 -0.516903
C46   C     C_R   0.886813 0.296888 0.858878 0.562929
O22   O     O_R   0.910360 0.395420 0.895720 -0.500557
O23   O     O_R   0.186010 0.361730 0.919870 -0.509087
C47   C     C_R   0.307459 0.294558 0.893194 0.587167
O24   O     O_R   0.400000 0.173010 0.914630 -0.512190
O25   O     O_R   0.354140 0.936940 0.899340 -0.500390
C48   C     C_R   0.280315 0.881583 0.857696 0.573315
Cr4   Cr    Cr6+3 0.053960 0.052250 0.967380 1.009336
Cr5   Cr    Cr6+3 0.059890 0.373160 0.992710 1.102142
Cr6   Cr    Cr6+3 0.373370 0.061690 0.991710 1.012295
O26   O     O_3   0.162410 0.162370 0.983930 -0.285218
C49   C     C_2   0.075941 0.490470 0.639916 0.270718
H13   H     H_    0.072488 0.470844 0.575373 0.109416
O27   O     O_2   0.967249 0.576472 0.669807 -0.478675
C50   C     C_2   0.617487 0.253017 0.916891 0.244700
H14   H     H_    0.711568 0.188592 0.953828 0.106506
O28   O     O_2   0.538784 0.375162 0.942622 -0.512288
C51   C     C_2   0.815639 0.902317 0.684128 0.286036
H15   H     H_    0.801927 0.857377 0.623408 0.108177
O29   O     O_2   0.933955 0.854040 0.720131 -0.456702
C52   C     C_2   0.021193 0.481787 0.240139 0.203481
H16   H     H_    0.068397 0.519877 0.293447 0.121719
O30   O     O_2   0.013508 0.528127 0.178609 -0.435959
C53   C     C_2   0.883221 0.030307 0.376107 0.250334
H17   H     H_    0.845094 0.959921 0.389673 0.078034
O31   O     O_2   0.972910 0.048753 0.423076 -0.515622
C54   C     C_2   0.075145 0.849165 0.160157 0.248031
H18   H     H_    0.001178 0.926173 0.120182 0.151821
O32   O     O_2   0.045549 0.759330 0.174417 -0.486714

loop_
_geom_bond_atom_site_label_1
_geom_bond_atom_site_label_2
_geom_bond_distance
_ccdc_geom_bond_type
C4    C41   1.431879 S    
C49   H13   1.084639 S    
C30   C34   1.423857 A    
C43   O16   1.281686 A    
C30   C31   1.399044 A    
C42   C48   1.432110 S    
O14   C45   1.249206 A    
O21   C46   1.280910 A    
C1    C28   1.457216 S    
O4    Cr2   1.939927 S    
C47   O24   1.274861 A    
C53   O31   1.221636 D    
O8    Cr1   1.934691 S    
C9    C10   1.421725 A    
O11   Cr3   2.053295 S    
O25   Cr6   1.940669 S    
O24   Cr6   2.052604 S    
O4    C2    1.266208 A    
C5    O11   1.258308 A    
C9    C43   1.483075 S    
C54   H18   1.079811 S    
O12   C6    1.257199 A    
C20   C21   1.414209 A    
O20   Cr4   2.052695 S    
O17   Cr5   1.953390 S    
C29   C30   1.407018 A    
C26   C27   1.390170 A    
C11   C18   1.409513 A    
C54   O32   1.218130 D    
O6    C3    1.264039 A    
C50   O28   1.221796 D    
C7    C8    1.187347 T    
O21   Cr4   1.944705 S    
C11   C17   1.422873 A    
C34   C35   1.399299 A    
C49   O27   1.219227 D    
C32   C49   1.482849 S    
Cr3   O13   1.974816 S    
C33   H10   1.083755 S    
C36   C51   1.476286 S    
O23   Cr5   1.935667 S    
C32   C38   1.407720 A    
C23   C54   1.487987 S    
H1    C12   1.086434 S    
C27   H9    1.079746 S    
O1    Cr1   2.053837 S    
C37   H12   1.083256 S    
C10   C14   1.410995 A    
C52   H16   1.084556 S    
O10   Cr2   1.934549 S    
Cr1   O13   1.983460 S    
O1    C3    1.279849 A    
C44   O18   1.258504 A    
Cr6   O26   1.988511 S    
O19   C45   1.296952 A    
C8    C44   1.400333 S    
H5    C22   1.079177 S    
C6    C39   1.420260 S    
O5    Cr3   2.070759 S    
C25   H7    1.073575 S    
O12   Cr3   1.951342 S    
C39   C40   1.198172 T    
C35   C36   1.395485 A    
O17   C44   1.274245 A    
C12   C13   1.387077 A    
Cr5   O26   1.974920 S    
C51   H15   1.085764 S    
O14   Cr4   2.062738 S    
O7    Cr1   2.067169 S    
C50   H14   1.082409 S    
C13   C52   1.484185 S    
O6    Cr3   1.935713 S    
C31   C38   1.428719 A    
C21   C27   1.415742 A    
C15   H3    1.079204 S    
O23   C47   1.273372 A    
Cr4   O26   1.982904 S    
C52   O30   1.210283 D    
C2    O5    1.257389 A    
C19   C20   1.405922 A    
C51   O29   1.221540 D    
Cr2   O13   1.989169 S    
C35   H11   1.082675 S    
C9    C13   1.437255 A    
C22   C23   1.363966 A    
C31   C37   1.415622 A    
C34   C50   1.481513 S    
C1    O3    1.287800 A    
C19   C45   1.460919 S    
C29   C33   1.406648 A    
O22   Cr5   2.071672 S    
C25   C26   1.389514 A    
O18   Cr6   2.062264 S    
C5    C38   1.477979 S    
O9    Cr2   2.055981 S    
O2    Cr1   1.947186 S    
C14   H2    1.074660 S    
C17   C53   1.489059 S    
C14   C15   1.387798 A    
C22   C28   1.382225 A    
O15   C43   1.312698 A    
C29   C47   1.464249 S    
O8    C4    1.316379 A    
C26   H8    1.081945 S    
O19   Cr6   1.934719 S    
C53   H17   1.084449 S    
C12   C18   1.381247 A    
C16   H4    1.065174 S    
C40   C46   1.417461 S    
C15   C16   1.384434 A    
O16   Cr5   2.054360 S    
O2    C1    1.265579 A    
O20   C48   1.280649 A    
O15   Cr4   1.935289 S    
C32   C33   1.398226 A    
C24   H6    1.081271 S    
O7    C6    1.277182 A    
C2    C7    1.401752 S    
C16   C17   1.391524 A    
C36   C37   1.396384 A    
C41   C42   1.204631 T    
C21   C28   1.423484 A    
O3    Cr2   2.054024 S    
C24   C25   1.382362 A    
C19   C23   1.427147 A    
C4    O9    1.290839 A    
O25   C48   1.270467 A    
C46   O22   1.246888 A    
C10   C11   1.408812 A    
C3    C18   1.463561 S    
C20   C24   1.407637 A    
O10   C5    1.294685 A    
