data_mof_unit_60311.cif
_audit_creation_date              2012-12-10T19:27:59-0500
_audit_creation_method            fapswitch 2.2
_symmetry_space_group_name_H-M    P1
_symmetry_Int_Tables_number       1
_space_group_crystal_system       monoclinic
_cell_length_a                    30.688069
_cell_length_b                    30.688072
_cell_length_c                    32.820071
_cell_angle_alpha                 89.999948
_cell_angle_beta                  90.0
_cell_angle_gamma                 90.0
_cell_volume                      30908.5536274

loop_
_atom_site_label
_atom_site_type_symbol
_atom_type_description
_atom_site_fract_x
_atom_site_fract_y
_atom_site_fract_z
_atom_type_partial_charge
C1    C     C_R   0.118855 0.381145 0.250000 -0.073327
C2    C     C_R   0.881400 0.381400 0.250000 -0.106172
C3    C     C_R   0.084491 0.415509 0.750000 0.867962
C4    C     C_R   0.584581 0.084581 0.250000 0.863122
C5    C     C_R   0.415509 0.915509 0.750000 0.867963
C6    C     C_R   0.084581 0.415419 0.250000 0.863123
C7    C     C_R   0.915509 0.584491 0.750000 0.867962
C8    C     C_R   0.415419 0.084581 0.750000 0.863123
C9    C     C_R   0.584491 0.915509 0.250000 0.867962
C10   C     C_R   0.915419 0.415419 0.750000 0.863123
C11   C     C_R   0.084491 0.584491 0.250000 0.867962
C12   C     C_R   0.584581 0.915419 0.750000 0.863123
C13   C     C_R   0.381145 0.118855 0.750000 -0.073326
C14   C     C_R   0.415509 0.084491 0.250000 0.867962
C15   C     C_R   0.084581 0.584581 0.750000 0.863123
C16   C     C_R   0.915509 0.415509 0.250000 0.867962
C17   C     C_1   0.500000 1.000000 0.399203 -0.160588
C18   C     C_1   0.500000 0.000000 0.600797 -0.160588
C19   C     C_1   1.000000 0.500000 0.399203 -0.160588
C20   C     C_1   0.000000 0.500000 0.600797 -0.160588
C21   C     C_1   0.000000 0.500000 0.899203 -0.160588
C22   C     C_1   1.000000 0.500000 0.100797 -0.160588
C23   C     C_1   0.500000 1.000000 0.899203 -0.160588
C24   C     C_R   0.618600 0.881400 0.250000 -0.106173
C25   C     C_1   0.500000 0.000000 0.100797 -0.160588
C26   C     C_1   0.500000 0.000000 0.436795 -0.016239
C27   C     C_1   0.500000 1.000000 0.563205 -0.016239
C28   C     C_1   1.000000 0.500000 0.436795 -0.016239
C29   C     C_1   1.000000 0.500000 0.563205 -0.016239
C30   C     C_1   0.000000 0.500000 0.936795 -0.016239
C31   C     C_1   1.000000 0.500000 0.063205 -0.016239
C32   C     C_1   0.500000 1.000000 0.936795 -0.016239
C33   C     C_1   0.500000 0.000000 0.063205 -0.016239
C34   C     C_R   0.123886 0.353309 0.284069 0.014734
C35   C     C_R   0.881145 0.381145 0.750000 -0.073326
C36   C     C_R   0.871726 0.641614 0.713868 0.055439
C37   C     C_R   0.353309 0.876113 0.284069 0.014734
C38   C     C_R   0.641614 0.128275 0.713868 0.055440
C39   C     C_R   0.876114 0.646691 0.284069 0.014735
C40   C     C_R   0.128274 0.358386 0.713868 0.055440
C41   C     C_R   0.646692 0.123886 0.284069 0.014735
C42   C     C_R   0.358386 0.871725 0.713868 0.055440
C43   C     C_R   0.123886 0.646691 0.715931 0.014734
C44   C     C_R   0.871726 0.358386 0.286132 0.055440
C45   C     C_R   0.353309 0.123886 0.715931 0.014734
C46   C     C_R   0.118600 0.618600 0.250000 -0.106173
C47   C     C_R   0.641614 0.871726 0.286132 0.055439
C48   C     C_R   0.876113 0.353309 0.715931 0.014734
C49   C     C_R   0.128274 0.641614 0.286132 0.055440
C50   C     C_R   0.646691 0.876114 0.715931 0.014734
C51   C     C_R   0.358386 0.128274 0.286132 0.055440
C52   C     C_R   0.623886 0.853309 0.784069 0.014734
C53   C     C_R   0.371726 0.141614 0.213868 0.055440
C54   C     C_R   0.853309 0.376113 0.784069 0.014734
C55   C     C_R   0.141614 0.628274 0.213868 0.055440
C56   C     C_R   0.376113 0.146691 0.784069 0.014734
C57   C     C_R   0.618855 0.881145 0.750000 -0.073326
C58   C     C_R   0.628274 0.858386 0.213868 0.055440
C59   C     C_R   0.146691 0.623886 0.784069 0.014734
C60   C     C_R   0.858386 0.371726 0.213868 0.055440
C61   C     C_R   0.623886 0.146692 0.215931 0.014734
C62   C     C_R   0.371725 0.858386 0.786132 0.055439
C63   C     C_R   0.853309 0.623886 0.215931 0.014734
C64   C     C_R   0.141614 0.371725 0.786132 0.055440
C65   C     C_R   0.376113 0.853309 0.215931 0.014735
C66   C     C_R   0.628275 0.141613 0.786132 0.055439
C67   C     C_R   0.146691 0.376113 0.215931 0.014734
C68   C     C_R   0.381400 0.118600 0.250000 -0.106173
C69   C     C_R   0.858386 0.628274 0.786132 0.055440
C70   C     C_R   0.156336 0.320682 0.283872 0.030374
C71   C     C_R   0.839306 0.673985 0.713842 0.050501
C72   C     C_R   0.320682 0.843664 0.283872 0.030373
C73   C     C_R   0.673984 0.160694 0.713842 0.050501
C74   C     C_R   0.843664 0.679318 0.283872 0.030373
C75   C     C_R   0.160694 0.326015 0.713842 0.050501
C76   C     C_R   0.679318 0.156336 0.283871 0.030374
C77   C     C_R   0.326015 0.839306 0.713842 0.050501
C78   C     C_R   0.156336 0.679318 0.716128 0.030373
C79   C     C_R   0.183922 0.316078 0.250000 0.036006
C80   C     C_R   0.839307 0.326015 0.286158 0.050501
C81   C     C_R   0.320682 0.156336 0.716128 0.030374
C82   C     C_R   0.673985 0.839306 0.286158 0.050501
C83   C     C_R   0.843663 0.320683 0.716128 0.030374
C84   C     C_R   0.160693 0.673985 0.286158 0.050501
C85   C     C_R   0.679318 0.843664 0.716128 0.030373
C86   C     C_R   0.326015 0.160693 0.286158 0.050501
C87   C     C_R   0.656336 0.820682 0.783872 0.030374
C88   C     C_R   0.339306 0.173985 0.213842 0.050502
C89   C     C_R   0.820682 0.343663 0.783872 0.030374
C90   C     C_R   0.816411 0.683589 0.750000 -0.030953
C91   C     C_R   0.173985 0.660694 0.213842 0.050501
C92   C     C_R   0.343664 0.179318 0.783872 0.030373
C93   C     C_R   0.660693 0.826015 0.213842 0.050501
C94   C     C_R   0.179318 0.656336 0.783872 0.030373
C95   C     C_R   0.826015 0.339307 0.213842 0.050501
C96   C     C_R   0.656336 0.179318 0.216129 0.030374
C97   C     C_R   0.339306 0.826015 0.786158 0.050502
C98   C     C_R   0.820682 0.656336 0.216128 0.030373
C99   C     C_R   0.173985 0.339306 0.786158 0.050502
C100  C     C_R   0.343664 0.820682 0.216128 0.030374
C101  C     C_R   0.316078 0.816078 0.250000 0.036006
C102  C     C_R   0.660694 0.173984 0.786158 0.050501
C103  C     C_R   0.179318 0.343664 0.216128 0.030374
C104  C     C_R   0.826015 0.660694 0.786158 0.050501
C105  C     C_R   0.881400 0.618600 0.750000 -0.106173
C106  C     C_R   0.683589 0.183589 0.750000 -0.030953
C107  C     C_R   0.816078 0.683922 0.250000 0.036006
C108  C     C_R   0.183589 0.316411 0.750000 -0.030953
C109  C     C_R   0.683922 0.183922 0.250000 0.036006
C110  C     C_R   0.316411 0.816411 0.750000 -0.030953
C111  C     C_R   0.183922 0.683922 0.750000 0.036006
C112  C     C_R   0.816411 0.316411 0.250000 -0.030953
C113  C     C_R   0.316078 0.183922 0.750000 0.036006
C114  C     C_R   0.683589 0.816411 0.250000 -0.030953
C115  C     C_R   0.816078 0.316078 0.750000 0.036006
C116  C     C_R   0.381145 0.881145 0.250000 -0.073327
C117  C     C_R   0.183589 0.683589 0.250000 -0.030953
C118  C     C_R   0.683922 0.816078 0.750000 0.036006
C119  C     C_R   0.316411 0.183589 0.250000 -0.030953
C120  C     C_R   0.282459 0.217541 0.250000 0.123406
C121  C     C_R   0.717918 0.782081 0.750000 0.195749
C122  C     C_R   0.217541 0.717541 0.250000 0.123406
C123  C     C_R   0.782081 0.282081 0.750000 0.195750
C124  C     C_R   0.717541 0.782459 0.250000 0.123406
C125  C     C_R   0.282081 0.217918 0.750000 0.195750
C126  C     C_R   0.782459 0.282459 0.250000 0.123406
C127  C     C_R   0.618600 0.118600 0.750000 -0.106172
C128  C     C_R   0.217918 0.717918 0.750000 0.195750
C129  C     C_R   0.282459 0.782459 0.750000 0.123406
C130  C     C_R   0.717918 0.217918 0.250000 0.195749
C131  C     C_R   0.217541 0.282459 0.750000 0.123406
C132  C     C_R   0.782081 0.717918 0.250000 0.195750
C133  C     C_R   0.717541 0.217541 0.750000 0.123406
C134  C     C_R   0.282081 0.782081 0.250000 0.195749
C135  C     C_R   0.782459 0.717541 0.750000 0.123406
C136  C     C_R   0.217918 0.282081 0.250000 0.195750
C137  C     C_R   0.262066 0.293809 0.251256 -0.160552
C138  C     C_R   0.881145 0.618855 0.250000 -0.073326
C139  C     C_R   0.738356 0.705786 0.748614 -0.210930
C140  C     C_R   0.293809 0.737934 0.251256 -0.160552
C141  C     C_R   0.705786 0.261645 0.748614 -0.210930
C142  C     C_R   0.737934 0.706191 0.251256 -0.160552
C143  C     C_R   0.261644 0.294214 0.748614 -0.210930
C144  C     C_R   0.706191 0.262066 0.251256 -0.160552
C145  C     C_R   0.294214 0.738355 0.748614 -0.210929
C146  C     C_R   0.262066 0.706191 0.748744 -0.160553
C147  C     C_R   0.738356 0.294214 0.251387 -0.210930
C148  C     C_R   0.293809 0.262066 0.748744 -0.160552
C149  C     C_R   0.118600 0.381400 0.750000 -0.106173
C150  C     C_R   0.705786 0.738355 0.251386 -0.210930
C151  C     C_R   0.737934 0.293809 0.748745 -0.160553
C152  C     C_R   0.261644 0.705786 0.251386 -0.210930
C153  C     C_R   0.706191 0.737934 0.748744 -0.160551
C154  C     C_R   0.294214 0.261645 0.251386 -0.210930
C155  C     C_R   0.762066 0.793809 0.751256 -0.160551
C156  C     C_R   0.238355 0.205786 0.248614 -0.210930
C157  C     C_R   0.793809 0.237934 0.751255 -0.160553
C158  C     C_R   0.205786 0.761644 0.248614 -0.210930
C159  C     C_R   0.237934 0.206191 0.751256 -0.160552
C160  C     C_R   0.618855 0.118855 0.250000 -0.073328
C161  C     C_R   0.761644 0.794214 0.248613 -0.210931
C162  C     C_R   0.206191 0.762066 0.751256 -0.160552
C163  C     C_R   0.794214 0.238355 0.248613 -0.210930
C164  C     C_R   0.762066 0.206191 0.248743 -0.160552
C165  C     C_R   0.238355 0.794214 0.751386 -0.210930
C166  C     C_R   0.793809 0.762066 0.248744 -0.160552
C167  C     C_R   0.205786 0.238355 0.751386 -0.210930
C168  C     C_R   0.237934 0.793809 0.248744 -0.160551
C169  C     C_R   0.761644 0.205786 0.751386 -0.210930
C170  C     C_R   0.206191 0.237934 0.248744 -0.160553
C171  C     C_R   0.381400 0.881400 0.750000 -0.106172
C172  C     C_R   0.794214 0.761644 0.751386 -0.210930
C173  C     C_1   0.500000 1.000000 0.481204 -0.001255
C174  C     C_1   0.500000 1.000000 0.518795 -0.001255
C175  C     C_1   1.000000 0.500000 0.481204 -0.001255
C176  C     C_1   1.000000 0.500000 0.518795 -0.001255
C177  C     C_1   1.000000 0.500000 0.981204 -0.001255
C178  C     C_1   1.000000 0.500000 0.018795 -0.001255
C179  C     C_1   0.500000 1.000000 0.981204 -0.001255
C180  C     C_1   0.500000 0.000000 0.018795 -0.001255
C181  C     C_R   0.500000 0.000000 0.145970 0.789910
C182  C     C_R   0.118855 0.618855 0.750000 -0.073327
C183  C     C_R   0.500000 1.000000 0.854030 0.789910
C184  C     C_R   1.000000 0.500000 0.145970 0.789910
C185  C     C_R   0.000000 0.500000 0.854030 0.789910
C186  C     C_R   0.000000 0.500000 0.645970 0.789910
C187  C     C_R   1.000000 0.500000 0.354030 0.789910
C188  C     C_R   0.500000 0.000000 0.645970 0.789910
C189  C     C_R   0.500000 0.000000 0.354030 0.789910
C190  C     C_R   0.415419 0.915419 0.250000 0.863123
C191  C     C_R   0.584491 0.084491 0.750000 0.867962
C192  C     C_R   0.915419 0.584581 0.250000 0.863122
H1    H     H_    0.271494 0.327804 0.252343 0.133881
H2    H     H_    0.728974 0.328217 0.252556 0.135848
H3    H     H_    0.835484 0.729571 0.680635 0.192530
H4    H     H_    0.275384 0.866793 0.323424 0.178870
H5    H     H_    0.311315 0.830743 0.343934 0.183791
H6    H     H_    0.692014 0.203451 0.669884 0.196315
H7    H     H_    0.729570 0.164517 0.680634 0.192530
H8    H     H_    0.866793 0.724616 0.323423 0.178870
H9    H     H_    0.830743 0.688685 0.343934 0.183791
H10   H     H_    0.203451 0.307985 0.669884 0.196315
H11   H     H_    0.164516 0.270429 0.680635 0.192530
H12   H     H_    0.724617 0.133206 0.323423 0.178870
H13   H     H_    0.327804 0.271494 0.747657 0.133881
H14   H     H_    0.688686 0.169255 0.343934 0.183791
H15   H     H_    0.307986 0.796549 0.669884 0.196315
H16   H     H_    0.270429 0.835483 0.680634 0.192530
H17   H     H_    0.133207 0.724616 0.676576 0.178870
H18   H     H_    0.169257 0.688685 0.656065 0.183791
H19   H     H_    0.796550 0.307984 0.330116 0.196315
H20   H     H_    0.835484 0.270428 0.319365 0.192530
H21   H     H_    0.275384 0.133207 0.676576 0.178870
H22   H     H_    0.311315 0.169257 0.656065 0.183791
H23   H     H_    0.692015 0.796550 0.330116 0.196315
H24   H     H_    0.671783 0.728974 0.252555 0.135848
H25   H     H_    0.729571 0.835484 0.319365 0.192530
H26   H     H_    0.866792 0.275385 0.676575 0.178870
H27   H     H_    0.830742 0.311316 0.656065 0.183791
H28   H     H_    0.203451 0.692015 0.330116 0.196315
H29   H     H_    0.164516 0.729571 0.319365 0.192530
H30   H     H_    0.724616 0.866793 0.676576 0.178870
H31   H     H_    0.688685 0.830743 0.656065 0.183791
H32   H     H_    0.307985 0.203451 0.330116 0.196315
H33   H     H_    0.270429 0.164516 0.319365 0.192530
H34   H     H_    0.633207 0.775384 0.823424 0.178870
H35   H     H_    0.728506 0.327804 0.747658 0.133881
H36   H     H_    0.669256 0.811315 0.843934 0.183791
H37   H     H_    0.296549 0.192015 0.169884 0.196315
H38   H     H_    0.335484 0.229571 0.180635 0.192530
H39   H     H_    0.775385 0.366792 0.823425 0.178870
H40   H     H_    0.811316 0.330742 0.843935 0.183791
H41   H     H_    0.192015 0.703451 0.169884 0.196315
H42   H     H_    0.229571 0.664516 0.180635 0.192530
H43   H     H_    0.366793 0.224616 0.823424 0.178870
H44   H     H_    0.330743 0.188685 0.843934 0.183791
H45   H     H_    0.703450 0.807985 0.169884 0.196315
H46   H     H_    0.271026 0.671783 0.252555 0.135848
H47   H     H_    0.664516 0.770429 0.180635 0.192530
H48   H     H_    0.224616 0.633207 0.823424 0.178870
H49   H     H_    0.188685 0.669257 0.843934 0.183791
H50   H     H_    0.807984 0.296550 0.169884 0.196315
H51   H     H_    0.770429 0.335484 0.180635 0.192530
H52   H     H_    0.633206 0.224617 0.176577 0.178870
H53   H     H_    0.669255 0.188687 0.156066 0.183791
H54   H     H_    0.296549 0.807985 0.830116 0.196315
H55   H     H_    0.335483 0.770429 0.819366 0.192530
H56   H     H_    0.775384 0.633207 0.176576 0.178870
H57   H     H_    0.672196 0.728506 0.747657 0.133880
H58   H     H_    0.811315 0.669256 0.156066 0.183791
H59   H     H_    0.192015 0.296549 0.830116 0.196315
H60   H     H_    0.229571 0.335484 0.819365 0.192530
H61   H     H_    0.366793 0.775384 0.176576 0.178870
H62   H     H_    0.330743 0.811315 0.156065 0.183791
H63   H     H_    0.703451 0.192014 0.830116 0.196315
H64   H     H_    0.664516 0.229570 0.819366 0.192530
H65   H     H_    0.224616 0.366793 0.176576 0.178870
H66   H     H_    0.188685 0.330743 0.156065 0.183791
H67   H     H_    0.807985 0.703451 0.830116 0.196315
H68   H     H_    0.328217 0.271026 0.252555 0.135848
H69   H     H_    0.770429 0.664516 0.819365 0.192530
H70   H     H_    0.771494 0.827804 0.752343 0.133880
H71   H     H_    0.228974 0.171783 0.247445 0.135848
H72   H     H_    0.827804 0.228506 0.752342 0.133881
H73   H     H_    0.728974 0.671783 0.747445 0.135848
H74   H     H_    0.171783 0.771026 0.247445 0.135848
H75   H     H_    0.228506 0.172196 0.752343 0.133880
H76   H     H_    0.771026 0.828217 0.247445 0.135849
H77   H     H_    0.172196 0.771494 0.752343 0.133880
H78   H     H_    0.828217 0.228974 0.247444 0.135848
H79   H     H_    0.771494 0.172196 0.247656 0.133881
H80   H     H_    0.228974 0.828217 0.752554 0.135848
H81   H     H_    0.827804 0.771494 0.247656 0.133881
H82   H     H_    0.171783 0.228974 0.752555 0.135848
H83   H     H_    0.228506 0.827804 0.247657 0.133880
H84   H     H_    0.327804 0.728506 0.252343 0.133881
H85   H     H_    0.771026 0.171783 0.752554 0.135848
H86   H     H_    0.172196 0.228506 0.247657 0.133881
H87   H     H_    0.828217 0.771026 0.752555 0.135848
H88   H     H_    0.116188 0.365911 0.344412 0.175699
H89   H     H_    0.079634 0.330013 0.324608 0.186897
H90   H     H_    0.871222 0.621562 0.655080 0.192229
H91   H     H_    0.909650 0.659405 0.666217 0.205181
H92   H     H_    0.365910 0.883812 0.344412 0.175699
H93   H     H_    0.330013 0.920366 0.324607 0.186897
H94   H     H_    0.621561 0.128778 0.655080 0.192229
H95   H     H_    0.671783 0.271026 0.747446 0.135848
H96   H     H_    0.659405 0.090351 0.666216 0.205180
H97   H     H_    0.883812 0.634090 0.344412 0.175699
H98   H     H_    0.920367 0.669987 0.324607 0.186897
H99   H     H_    0.128778 0.378438 0.655080 0.192229
H100  H     H_    0.090350 0.340595 0.666216 0.205180
H101  H     H_    0.634091 0.116187 0.344412 0.175699
H102  H     H_    0.669988 0.079632 0.324606 0.186896
H103  H     H_    0.378439 0.871222 0.655080 0.192230
H104  H     H_    0.340595 0.909649 0.666216 0.205180
H105  H     H_    0.116188 0.634089 0.655588 0.175699
H106  H     H_    0.728506 0.672196 0.252344 0.133880
H107  H     H_    0.079634 0.669987 0.675392 0.186897
H108  H     H_    0.871223 0.378437 0.344920 0.192229
H109  H     H_    0.909650 0.340594 0.333783 0.205180
H110  H     H_    0.365911 0.116188 0.655588 0.175699
H111  H     H_    0.330013 0.079634 0.675392 0.186897
H112  H     H_    0.621563 0.871223 0.344920 0.192229
H113  H     H_    0.659406 0.909650 0.333783 0.205180
H114  H     H_    0.883811 0.365912 0.655588 0.175699
H115  H     H_    0.920365 0.330014 0.675392 0.186898
H116  H     H_    0.128777 0.621562 0.344920 0.192230
H117  H     H_    0.271026 0.328217 0.747445 0.135848
H118  H     H_    0.090350 0.659405 0.333783 0.205180
H119  H     H_    0.634090 0.883812 0.655588 0.175699
H120  H     H_    0.669987 0.920366 0.675393 0.186897
H121  H     H_    0.378438 0.128777 0.344920 0.192229
H122  H     H_    0.340595 0.090350 0.333783 0.205180
H123  H     H_    0.616188 0.865910 0.844412 0.175699
H124  H     H_    0.579633 0.830013 0.824607 0.186897
H125  H     H_    0.371222 0.121562 0.155080 0.192230
H126  H     H_    0.409650 0.159405 0.166216 0.205180
H127  H     H_    0.865912 0.383811 0.844412 0.175699
H128  H     H_    0.672196 0.271494 0.252344 0.133881
H129  H     H_    0.830014 0.420365 0.824608 0.186898
H130  H     H_    0.121562 0.628778 0.155080 0.192229
H131  H     H_    0.159405 0.590350 0.166216 0.205180
H132  H     H_    0.383812 0.134089 0.844412 0.175699
H133  H     H_    0.420366 0.169987 0.824607 0.186897
H134  H     H_    0.628777 0.878437 0.155080 0.192230
H135  H     H_    0.590350 0.840594 0.166217 0.205180
H136  H     H_    0.134089 0.616188 0.844412 0.175699
H137  H     H_    0.169987 0.579634 0.824607 0.186897
H138  H     H_    0.878437 0.371223 0.155080 0.192229
H139  H     H_    0.328217 0.728974 0.747446 0.135848
H140  H     H_    0.840594 0.409650 0.166217 0.205180
H141  H     H_    0.616187 0.134091 0.155588 0.175699
H142  H     H_    0.579632 0.169988 0.175394 0.186897
H143  H     H_    0.371222 0.878438 0.844920 0.192229
H144  H     H_    0.409649 0.840595 0.833784 0.205180
H145  H     H_    0.865910 0.616188 0.155588 0.175699
H146  H     H_    0.830012 0.579633 0.175393 0.186897
H147  H     H_    0.121562 0.371222 0.844920 0.192229
H148  H     H_    0.159405 0.409649 0.833783 0.205180
H149  H     H_    0.383812 0.865910 0.155588 0.175699
H150  H     H_    0.271494 0.672196 0.747657 0.133881
H151  H     H_    0.420366 0.830013 0.175393 0.186897
H152  H     H_    0.628778 0.121561 0.844920 0.192229
H153  H     H_    0.590351 0.159405 0.833784 0.205181
H154  H     H_    0.134089 0.383812 0.155588 0.175699
H155  H     H_    0.169987 0.420366 0.175392 0.186897
H156  H     H_    0.878438 0.628777 0.844920 0.192230
H157  H     H_    0.840595 0.590350 0.833783 0.205180
H158  H     H_    0.133207 0.275384 0.323424 0.178870
H159  H     H_    0.169257 0.311315 0.343934 0.183790
H160  H     H_    0.796549 0.692015 0.669884 0.196315
N1    N     N_3   0.096587 0.358973 0.319198 -0.427247
N2    N     N_3   0.894218 0.368788 0.323211 -0.429048
N3    N     N_3   0.358973 0.096587 0.680802 -0.427247
N4    N     N_3   0.631212 0.894218 0.323211 -0.429049
N5    N     N_3   0.903412 0.358974 0.680802 -0.427248
N6    N     N_3   0.105783 0.631211 0.323211 -0.429049
N7    N     N_3   0.641027 0.903413 0.680802 -0.427247
N8    N     N_3   0.368788 0.105783 0.323211 -0.429049
N9    N     N_3   0.596587 0.858973 0.819197 -0.427247
N10   N     N_3   0.394217 0.131212 0.176789 -0.429049
N11   N     N_3   0.858974 0.403412 0.819198 -0.427248
N12   N     N_3   0.894217 0.631212 0.676789 -0.429049
N13   N     N_3   0.131212 0.605783 0.176789 -0.429049
N14   N     N_3   0.403413 0.141027 0.819198 -0.427246
N15   N     N_3   0.605782 0.868788 0.176789 -0.429049
N16   N     N_3   0.141027 0.596587 0.819198 -0.427247
N17   N     N_3   0.868788 0.394218 0.176789 -0.429048
N18   N     N_3   0.596586 0.141028 0.180803 -0.427246
N19   N     N_3   0.394217 0.868789 0.823211 -0.429050
N20   N     N_3   0.858973 0.596587 0.180803 -0.427246
N21   N     N_3   0.131212 0.394217 0.823211 -0.429049
N22   N     N_3   0.403413 0.858973 0.180802 -0.427246
N23   N     N_3   0.358973 0.903413 0.319197 -0.427247
N24   N     N_3   0.605783 0.131211 0.823211 -0.429050
N25   N     N_3   0.141027 0.403413 0.180802 -0.427246
N26   N     N_3   0.868788 0.605783 0.823211 -0.429049
N27   N     N_3   0.162182 0.292409 0.318297 -0.465880
N28   N     N_3   0.829594 0.696326 0.676510 -0.474521
N29   N     N_3   0.292409 0.837818 0.318297 -0.465881
N30   N     N_3   0.696325 0.170407 0.676509 -0.474522
N31   N     N_3   0.837818 0.707591 0.318297 -0.465881
N32   N     N_3   0.170406 0.303675 0.676510 -0.474521
N33   N     N_3   0.707592 0.162181 0.318296 -0.465880
N34   N     N_3   0.631211 0.105783 0.676789 -0.429050
N35   N     N_3   0.303675 0.829593 0.676509 -0.474521
N36   N     N_3   0.162182 0.707591 0.681703 -0.465881
N37   N     N_3   0.829594 0.303674 0.323490 -0.474521
N38   N     N_3   0.292409 0.162182 0.681703 -0.465881
N39   N     N_3   0.696326 0.829594 0.323490 -0.474522
N40   N     N_3   0.837817 0.292410 0.681703 -0.465881
N41   N     N_3   0.170406 0.696325 0.323490 -0.474521
N42   N     N_3   0.707591 0.837818 0.681703 -0.465881
N43   N     N_3   0.303674 0.170406 0.323490 -0.474521
N44   N     N_3   0.662182 0.792409 0.818297 -0.465881
N45   N     N_3   0.903413 0.641027 0.319197 -0.427246
N46   N     N_3   0.329594 0.196326 0.176510 -0.474521
N47   N     N_3   0.792410 0.337817 0.818297 -0.465881
N48   N     N_3   0.196326 0.670406 0.176510 -0.474521
N49   N     N_3   0.337818 0.207591 0.818297 -0.465881
N50   N     N_3   0.670406 0.803674 0.176510 -0.474521
N51   N     N_3   0.207591 0.662182 0.818297 -0.465881
N52   N     N_3   0.803674 0.329594 0.176510 -0.474521
N53   N     N_3   0.662181 0.207592 0.181704 -0.465880
N54   N     N_3   0.329593 0.803675 0.823490 -0.474522
N55   N     N_3   0.792408 0.662182 0.181703 -0.465881
N56   N     N_3   0.105783 0.368789 0.676789 -0.429049
N57   N     N_3   0.196325 0.329593 0.823490 -0.474521
N58   N     N_3   0.337818 0.792409 0.181703 -0.465881
N59   N     N_3   0.670407 0.196325 0.823490 -0.474522
N60   N     N_3   0.207591 0.337818 0.181703 -0.465881
N61   N     N_3   0.803674 0.670406 0.823490 -0.474521
N62   N     N_3   0.641028 0.096586 0.319197 -0.427245
N63   N     N_3   0.368789 0.894217 0.676789 -0.429050
N64   N     N_3   0.096587 0.641027 0.680802 -0.427247
O1    O     O_3   0.500000 1.000000 0.250000 -0.470440
O2    O     O_R   0.500000 0.036350 0.833960 -0.622537
O3    O     O_R   0.963650 0.500000 0.166040 -0.622537
O4    O     O_R   0.036350 0.500000 0.833960 -0.622537
O5    O     O_R   0.000000 0.536350 0.666040 -0.622537
O6    O     O_R   0.000000 0.463650 0.333960 -0.622537
O7    O     O_R   0.536350 1.000000 0.666040 -0.622537
O8    O     O_R   0.463650 0.000000 0.333960 -0.622537
O9    O     O_R   1.000000 0.463650 0.666040 -0.622537
O10   O     O_R   0.000000 0.536350 0.333960 -0.622537
O11   O     O_R   0.463650 1.000000 0.666040 -0.622537
O12   O     O_3   0.500000 0.000000 0.750000 -0.470440
O13   O     O_R   0.536350 0.000000 0.333960 -0.622537
O14   O     O_R   0.448840 0.912530 0.228020 -0.624946
O15   O     O_R   0.551160 0.087470 0.771980 -0.627577
O16   O     O_R   0.912530 0.551160 0.228020 -0.624946
O17   O     O_R   0.087470 0.448840 0.771980 -0.627577
O18   O     O_R   0.551160 0.087470 0.228020 -0.624946
O19   O     O_R   0.448840 0.912530 0.771980 -0.627578
O20   O     O_R   0.087470 0.448840 0.228020 -0.624946
O21   O     O_R   0.912530 0.551160 0.771980 -0.627577
O22   O     O_R   0.448840 0.087470 0.771980 -0.624946
O23   O     O_3   0.000000 0.500000 0.250000 -0.470440
O24   O     O_R   0.551160 0.912530 0.228020 -0.627577
O25   O     O_R   0.912530 0.448840 0.771980 -0.624947
O26   O     O_R   0.087470 0.551160 0.228020 -0.627577
O27   O     O_R   0.551160 0.912530 0.771980 -0.624947
O28   O     O_R   0.448840 0.087470 0.228020 -0.627577
O29   O     O_R   0.087470 0.551160 0.771980 -0.624946
O30   O     O_R   0.912530 0.448840 0.228020 -0.627577
O31   O     O_R   0.948840 0.412530 0.728020 -0.624946
O32   O     O_R   0.051160 0.587470 0.271980 -0.627577
O33   O     O_R   0.412530 0.051160 0.728020 -0.624947
O34   O     O_3   0.000000 0.500000 0.750000 -0.470440
O35   O     O_R   0.587470 0.948840 0.271980 -0.627577
O36   O     O_R   0.051160 0.587470 0.728020 -0.624947
O37   O     O_R   0.948840 0.412530 0.271980 -0.627577
O38   O     O_R   0.587470 0.948840 0.728020 -0.624946
O39   O     O_R   0.412530 0.051160 0.271980 -0.627577
O40   O     O_R   0.948840 0.587470 0.271980 -0.624946
O41   O     O_R   0.051160 0.412530 0.728020 -0.627577
O42   O     O_R   0.412530 0.948840 0.271980 -0.624947
O43   O     O_R   0.587470 0.051160 0.728020 -0.627577
O44   O     O_R   0.051160 0.412530 0.271980 -0.624947
O45   O     O_R   0.500000 0.036350 0.166040 -0.622537
O46   O     O_R   0.948840 0.587470 0.728020 -0.627577
O47   O     O_R   0.587470 0.051160 0.271980 -0.624946
O48   O     O_R   0.412530 0.948840 0.728020 -0.627577
O49   O     O_R   0.500000 0.963650 0.833960 -0.622537
O50   O     O_R   0.036350 0.500000 0.166040 -0.622537
O51   O     O_R   0.963650 0.500000 0.833960 -0.622537
O52   O     O_R   0.500000 0.963650 0.166040 -0.622537
Zn1   Zn    Zn3+2 0.448050 1.000000 0.281500 0.984749
Zn2   Zn    Zn3+2 0.051950 0.500000 0.218500 0.984750
Zn3   Zn    Zn3+2 0.500000 0.051950 0.781500 0.984749
Zn4   Zn    Zn3+2 0.500000 0.948050 0.218500 0.984750
Zn5   Zn    Zn3+2 0.051950 0.500000 0.781500 0.984749
Zn6   Zn    Zn3+2 0.948050 0.500000 0.218500 0.984750
Zn7   Zn    Zn3+2 0.500000 0.948050 0.781500 0.984749
Zn8   Zn    Zn3+2 0.500000 0.051950 0.218500 0.984750
Zn9   Zn    Zn3+2 0.551950 0.000000 0.718500 0.984750
Zn10  Zn    Zn3+2 0.000000 0.551950 0.281500 0.984749
Zn11  Zn    Zn3+2 0.000000 0.448050 0.718500 0.984750
Zn12  Zn    Zn3+2 0.551950 1.000000 0.281500 0.984749
Zn13  Zn    Zn3+2 0.448050 0.000000 0.718500 0.984750
Zn14  Zn    Zn3+2 1.000000 0.448050 0.281500 0.984749
Zn15  Zn    Zn3+2 0.000000 0.551950 0.718500 0.984750
Zn16  Zn    Zn3+2 0.948050 0.500000 0.781500 0.984749

loop_
_geom_bond_atom_site_label_1
_geom_bond_atom_site_label_2
_ccdc_geom_bond_type
C151  H35   S    
C158  H74   S    
C192  O16   A    
O34   Zn16  S    
C74   N31   S    
C37   N23   S    
H55   N54   S    
H96   N34   S    
C145  C146  A    
C131  C143  A    
O45   Zn8   S    
O27   Zn7   S    
H60   N57   S    
C135  C139  A    
H116  N6    S    
C83   N40   S    
H123  N9    S    
C16   O30   A    
H52   N53   S    
C63   C98   A    
H109  N2    S    
C3    O41   A    
C72   C101  A    
C161  H76   S    
H119  N7    S    
C94   C111  A    
O5    Zn15  S    
O43   Zn9   S    
C39   C74   A    
H63   N59   S    
C53   C68   A    
O7    Zn9   S    
H17   N36   S    
C78   N36   S    
C144  H128  S    
C168  H83   S    
C157  C169  A    
C106  C133  S    
O11   Zn13  S    
C4    O18   A    
C84   C117  A    
H135  N15   S    
C46   C55   A    
H66   N60   S    
C86   C119  A    
C2    C16   S    
C140  C152  A    
C129  C145  A    
C36   C71   A    
H158  N27   S    
C62   N19   S    
C33   C180  S    
H142  N18   S    
O30   Zn6   S    
C59   N16   S    
O2    Zn3   S    
O28   Zn8   S    
H30   N42   S    
C3    C149  S    
C115  C123  S    
H160  N28   S    
C163  H78   S    
H88   N1    S    
H157  N26   S    
C87   C118  A    
H11   N32   S    
H102  N62   S    
C69   C105  A    
C26   C173  S    
O50   Zn2   S    
C16   O37   A    
C183  O2    A    
O8    Zn1   S    
C59   C182  A    
H7    N30   S    
C191  O15   A    
C83   C115  A    
C162  C165  A    
C175  C176  T    
C65   N22   S    
H58   N55   S    
C80   C112  A    
C128  C162  A    
C122  C158  A    
C135  C172  A    
C88   C119  A    
H125  N10   S    
C90   C104  A    
C148  H13   S    
C38   N34   S    
H44   N49   S    
H8    N31   S    
H127  N11   S    
H141  N18   S    
C154  H68   S    
C124  C161  A    
C130  C164  A    
C82   N39   S    
O1    Zn1   S    
C70   C79   A    
C50   C57   A    
C70   N27   S    
C45   C81   A    
C125  C148  A    
C126  C147  A    
C28   C175  S    
H115  N5    S    
C96   C109  A    
H45   N50   S    
O40   Zn10  S    
H32   N43   S    
C63   C138  A    
C41   C76   A    
C13   C45   A    
C188  O11   A    
C60   N17   S    
O9    Zn11  S    
O26   Zn2   S    
C156  C170  A    
C159  C167  A    
C98   N55   S    
H149  N22   S    
C170  H86   S    
H134  N15   S    
C20   C186  S    
C60   C95   A    
C43   N64   S    
C11   C46   S    
H36   N44   S    
H64   N59   S    
C64   N21   S    
H113  N4    S    
C181  O45   A    
H136  N16   S    
C6    O44   A    
C165  H80   S    
C187  O10   A    
C14   O28   A    
C76   N33   S    
C61   C96   A    
C67   C103  A    
C37   C116  A    
C99   C108  A    
H93   N23   S    
C63   N20   S    
C49   C84   A    
O23   Zn10  S    
C8    O22   A    
C62   C97   A    
C15   C182  S    
C189  O13   A    
C4    O47   A    
C94   N51   S    
C22   C184  S    
C74   C107  A    
H131  N13   S    
C64   C99   A    
C95   N52   S    
C2    C44   A    
C76   C109  A    
C108  C131  S    
C137  C154  A    
C184  O50   A    
C78   C111  A    
C183  O49   A    
O12   Zn3   S    
C130  C144  A    
H12   N33   S    
C93   C114  A    
C13   C56   A    
C6    O20   A    
O23   Zn2   S    
C139  H73   S    
C39   C138  A    
C131  C167  A    
O47   Zn12  S    
C5    O48   A    
C79   C103  A    
C187  O6    A    
C144  C147  A    
C96   N53   S    
C99   N57   S    
C27   C174  S    
C1    C34   A    
O21   Zn16  S    
C143  C148  A    
H112  N4    S    
C31   C178  S    
H18   N36   S    
O52   Zn4   S    
H151  N22   S    
H107  N64   S    
H59   N57   S    
C61   C160  A    
H31   N42   S    
C123  C157  A    
O25   Zn16  S    
C102  N59   S    
C127  C191  S    
C122  C152  A    
O34   Zn15  S    
C117  C122  S    
C23   C183  S    
O48   Zn13  S    
H49   N51   S    
C41   C160  A    
C42   N63   S    
H153  N24   S    
O6    Zn14  S    
C120  C154  A    
H5    N29   S    
C19   C28   T    
O12   Zn7   S    
C12   C57   S    
C164  H79   S    
C136  C170  A    
O23   Zn6   S    
C134  C168  A    
H29   N41   S    
C126  C163  A    
C10   O25   A    
C11   O32   A    
H121  N8    S    
O19   Zn7   S    
C53   N10   S    
H120  N7    S    
O17   Zn5   S    
C107  C132  S    
H92   N23   S    
H126  N10   S    
C48   C83   A    
C64   C149  A    
H147  N21   S    
O33   Zn13  S    
C50   N7    S    
C66   N24   S    
C90   C135  S    
C184  O3    A    
C128  C146  A    
C71   C90   A    
C191  O43   A    
C88   N46   S    
C100  C101  A    
C1    C67   A    
H14   N33   S    
C7    C105  S    
H43   N49   S    
C172  H87   S    
C42   C171  A    
O3    Zn6   S    
C71   N28   S    
H122  N8    S    
C42   C77   A    
C45   N3    S    
C111  C128  S    
C186  O5    A    
C51   N8    S    
C141  H95   S    
H124  N9    S    
C25   C33   T    
C47   N4    S    
C162  H77   S    
C8    C13   S    
H143  N19   S    
H104  N63   S    
C89   C115  A    
C158  C168  A    
C8    O33   A    
O23   Zn14  S    
C43   C78   A    
C62   C171  A    
C46   C49   A    
C40   N56   S    
C121  C153  A    
H28   N41   S    
C58   C93   A    
C75   N32   S    
C95   C112  A    
C2    C60   A    
H20   N37   S    
C139  C153  A    
C143  H117  S    
C120  C156  A    
H111  N3    S    
C167  H82   S    
C147  H2    S    
C91   N48   S    
C145  H139  S    
C133  C169  A    
C55   C91   A    
O12   Zn9   S    
C50   C85   A    
C19   C187  S    
O10   Zn10  S    
H4    N29   S    
H34   N44   S    
H148  N21   S    
C9    O35   A    
C59   C94   A    
H26   N40   S    
C92   C113  A    
C34   C70   A    
C112  C126  S    
C10   O31   A    
H15   N35   S    
H40   N47   S    
C75   C108  A    
C9    O24   A    
C35   C54   A    
C146  H150  S    
C35   C48   A    
H62   N58   S    
C51   C86   A    
O29   Zn5   S    
O34   Zn5   S    
C123  C151  A    
C103  N60   S    
C44   C80   A    
C136  C137  A    
C173  C174  T    
C85   N42   S    
C98   C107  A    
C1    C6    S    
H39   N47   S    
C79   C136  S    
C36   N12   S    
H105  N64   S    
O12   Zn13  S    
H48   N51   S    
C104  N61   S    
C189  O8    A    
C81   N38   S    
H132  N14   S    
C185  O4    A    
C54   N11   S    
O51   Zn16  S    
H154  N25   S    
H19   N37   S    
C56   N14   S    
H99   N56   S    
O41   Zn11  S    
C29   C176  S    
C73   N30   S    
O31   Zn11  S    
C34   N1    S    
H137  N16   S    
C77   N35   S    
C11   O26   A    
C124  C150  A    
C5    O19   A    
H53   N53   S    
C121  C155  A    
C36   C105  A    
H9    N31   S    
C44   N2    S    
H33   N43   S    
C138  C192  S    
C39   N45   S    
C65   C100  A    
C84   N41   S    
C97   N54   S    
C125  C159  A    
C21   C185  S    
H25   N39   S    
C21   C30   T    
C133  C141  A    
C40   C75   A    
C129  C165  A    
C23   C32   T    
C142  C150  A    
H41   N48   S    
O32   Zn10  S    
H91   N12   S    
C7    O46   A    
C67   N25   S    
H145  N20   S    
C18   C188  S    
C17   C189  S    
C40   C149  A    
C85   C118  A    
C52   C57   A    
C179  C180  T    
C157  H72   S    
C152  H46   S    
H114  N5    S    
C24   C58   A    
C177  C178  T    
H155  N25   S    
C37   C72   A    
C81   C113  A    
C49   N6    S    
C14   C68   S    
C190  O42   A    
C89   N47   S    
O13   Zn12  S    
H129  N11   S    
C55   N13   S    
C80   N37   S    
O34   Zn11  S    
O4    Zn5   S    
H101  N62   S    
H110  N3    S    
O1    Zn12  S    
H98   N45   S    
C66   C102  A    
C163  C164  A    
H21   N38   S    
C38   C127  A    
C93   N50   S    
H16   N35   S    
C101  C134  S    
H42   N48   S    
C86   N43   S    
C110  C129  S    
C17   C26   T    
O18   Zn8   S    
C132  C166  A    
C52   N9    S    
C134  C140  A    
O35   Zn12  S    
O24   Zn4   S    
C188  O7    A    
C113  C125  S    
C159  H75   S    
H23   N39   S    
C186  O9    A    
C66   C127  A    
H47   N50   S    
C100  N58   S    
C155  H70   S    
H108  N2    S    
H51   N52   S    
H118  N6    S    
C32   C179  S    
C150  H24   S    
H152  N24   S    
C14   O39   A    
C161  C166  A    
C72   N29   S    
C114  C124  S    
O37   Zn14  S    
C92   N49   S    
O36   Zn15  S    
H130  N13   S    
O16   Zn6   S    
C69   N26   S    
C48   N5    S    
C25   C181  S    
C155  C172  A    
C20   C29   T    
C192  O40   A    
C132  C142  A    
C137  H1    S    
C22   C31   T    
C41   N62   S    
O49   Zn7   S    
O38   Zn9   S    
H61   N58   S    
C82   C114  A    
C54   C89   A    
H90   N12   S    
C61   N18   S    
C12   O38   A    
H100  N56   S    
H56   N55   S    
H97   N45   S    
H94   N34   S    
H138  N17   S    
C153  H57   S    
H10   N32   S    
C118  C121  S    
O15   Zn3   S    
H65   N60   S    
C166  H81   S    
C15   O36   A    
H156  N26   S    
C156  H71   S    
H133  N14   S    
H144  N19   S    
C87   N44   S    
C142  H106  S    
H6    N30   S    
H140  N17   S    
C5    C171  S    
H50   N52   S    
C119  C120  S    
C10   C35   S    
C181  O52   A    
H89   N1    S    
O1    Zn4   S    
C91   C117  A    
H69   N61   S    
O22   Zn3   S    
C65   C116  A    
C169  H85   S    
O44   Zn14  S    
C109  C130  S    
C141  C151  A    
H54   N54   S    
H37   N46   S    
C69   C104  A    
H159  N27   S    
C116  C190  S    
H38   N46   S    
H103  N63   S    
O39   Zn1   S    
C24   C47   A    
C47   C82   A    
C52   C87   A    
C18   C27   T    
C185  O51   A    
C9    C24   S    
C43   C182  A    
C140  H84   S    
O20   Zn2   S    
C15   O29   A    
H146  N20   S    
H3    N28   S    
C97   C110  A    
C73   C106  A    
C4    C160  S    
C30   C177  S    
H22   N38   S    
C102  C106  A    
C53   C88   A    
O14   Zn4   S    
C51   C68   A    
O42   Zn1   S    
C3    O17   A    
C77   C110  A    
C7    O21   A    
C58   N15   S    
C190  O14   A    
C56   C92   A    
O1    Zn8   S    
O46   Zn15  S    
H67   N61   S    
C12   O27   A    
H27   N40   S    
C38   C73   A    
