data_mof_unit_66315.cif
_audit_creation_date              2012-12-10T18:13:12-0500
_audit_creation_method            fapswitch 2.2
_symmetry_space_group_name_H-M    P1
_symmetry_Int_Tables_number       1
_space_group_crystal_system       triclinic
_cell_length_a                    18.429522
_cell_length_b                    18.271491
_cell_length_c                    25.886769
_cell_angle_alpha                 89.999936
_cell_angle_beta                  89.999942
_cell_angle_gamma                 89.999943
_cell_volume                      8716.977156

loop_
_atom_site_label
_atom_site_type_symbol
_atom_type_description
_atom_site_fract_x
_atom_site_fract_y
_atom_site_fract_z
_atom_type_partial_charge
C1    C     C_R   0.861138 0.141409 0.249424 0.874428
C2    C     C_R   0.806348 0.255336 0.287459 0.164941
C3    C     C_R   0.229956 0.325407 0.239239 0.093875
C4    C     C_R   0.175315 0.271554 0.760760 0.151158
C5    C     C_R   0.175316 0.271553 0.239238 0.151157
C6    C     C_R   0.324682 0.771551 0.260771 0.151156
C7    C     C_R   0.324685 0.771554 0.739240 0.151158
C8    C     C_R   0.693648 0.755339 0.212543 0.164939
C9    C     C_R   0.693653 0.755335 0.787460 0.164942
C10   C     C_R   0.806702 0.199235 0.750242 -0.180957
C11   C     C_R   0.806703 0.199236 0.249758 -0.180957
C12   C     C_R   0.194276 0.198008 0.751500 -0.152856
C13   C     C_R   0.861138 0.141409 0.750576 0.874429
C14   C     C_R   0.194277 0.198008 0.248500 -0.152854
C15   C     C_R   0.305723 0.698008 0.251499 -0.152845
C16   C     C_R   0.305723 0.698008 0.748500 -0.152856
C17   C     C_R   0.693297 0.699236 0.250242 -0.180957
C18   C     C_R   0.693297 0.699236 0.749758 -0.180957
C19   C     C_R   0.752220 0.196607 0.787571 -0.221612
C20   C     C_R   0.752220 0.196607 0.212429 -0.221612
C21   C     C_R   0.266609 0.178087 0.743897 -0.216373
C22   C     C_R   0.266609 0.178087 0.256106 -0.216373
C23   C     C_R   0.233392 0.678088 0.243884 -0.216371
C24   C     C_R   0.139519 0.140642 0.249564 0.857533
C25   C     C_R   0.233391 0.678087 0.756103 -0.216373
C26   C     C_R   0.747784 0.696603 0.287568 -0.221613
C27   C     C_R   0.747779 0.696608 0.712428 -0.221611
C28   C     C_R   0.179209 0.730823 0.243621 0.390811
C29   C     C_R   0.179208 0.730821 0.756366 0.390810
C30   C     C_R   0.801833 0.748878 0.288625 0.395822
C31   C     C_R   0.801827 0.748884 0.711371 0.395824
C32   C     C_R   0.698172 0.248883 0.788628 0.395825
C33   C     C_R   0.698171 0.248883 0.211372 0.395824
C34   C     C_R   0.320792 0.230821 0.743634 0.390809
C35   C     C_R   0.139519 0.140642 0.750435 0.857532
C36   C     C_R   0.320792 0.230821 0.256368 0.390809
C37   C     C_R   0.197292 0.804747 0.251505 -0.187285
C38   C     C_R   0.197293 0.804747 0.748495 -0.187295
C39   C     C_R   0.806452 0.800763 0.248063 -0.216304
C40   C     C_R   0.806452 0.800764 0.751936 -0.216302
C41   C     C_R   0.693548 0.300763 0.748064 -0.216301
C42   C     C_R   0.693548 0.300764 0.251936 -0.216302
C43   C     C_R   0.302707 0.304748 0.751505 -0.187295
C44   C     C_R   0.302707 0.304747 0.248495 -0.187293
C45   C     C_R   0.027024 0.938641 0.027097 0.111704
C46   C     C_R   0.360481 0.640642 0.749564 0.857531
C47   C     C_R   0.027024 0.938640 0.972903 0.111704
C48   C     C_R   0.972487 0.061076 0.027097 0.115132
C49   C     C_R   0.972487 0.061076 0.972903 0.115131
C50   C     C_R   0.527518 0.561074 0.527097 0.115131
C51   C     C_R   0.527519 0.561073 0.472903 0.115135
C52   C     C_R   0.472972 0.438643 0.527097 0.111706
C53   C     C_R   0.472970 0.438643 0.472903 0.111706
C54   C     C_R   0.999894 0.999917 0.946175 -0.174515
C55   C     C_R   0.999894 0.999917 0.053825 -0.174518
C56   C     C_R   0.500106 0.499918 0.446175 -0.174520
C57   C     C_R   0.360481 0.640642 0.250435 0.857529
C58   C     C_R   0.500106 0.499918 0.553825 -0.174519
C59   C     C_R   0.140267 0.860067 0.250321 0.896843
C60   C     C_R   0.140267 0.860067 0.749679 0.896831
C61   C     C_R   0.861047 0.858632 0.249118 0.881195
C62   C     C_R   0.861047 0.858632 0.750881 0.881196
C63   C     C_R   0.638953 0.358632 0.749119 0.881196
C64   C     C_R   0.638953 0.358632 0.250881 0.881195
C65   C     C_R   0.359733 0.360067 0.750321 0.896832
C66   C     C_R   0.359733 0.360067 0.249679 0.896833
C67   C     C_R   0.999982 0.999960 0.109995 0.876526
C68   C     C_R   0.638862 0.641409 0.749424 0.874429
C69   C     C_R   0.999982 0.999960 0.890004 0.876526
C70   C     C_R   0.500018 0.499960 0.609996 0.876526
C71   C     C_R   0.500018 0.499960 0.390004 0.876526
C72   C     C_R   0.003414 0.999854 0.389866 0.856426
C73   C     C_R   0.003414 0.999854 0.610134 0.856426
C74   C     C_R   0.496587 0.499854 0.889866 0.856425
C75   C     C_R   0.496586 0.499854 0.110134 0.856425
C76   C     C_R   0.989206 0.058802 0.474079 -0.055502
C77   C     C_R   0.989206 0.058802 0.525921 -0.055502
C78   C     C_R   0.510794 0.558802 0.974079 -0.055501
C79   C     C_R   0.638862 0.641409 0.250576 0.874432
C80   C     C_R   0.510794 0.558802 0.025921 -0.055502
C81   C     C_R   0.012366 0.999256 0.445380 -0.135493
C82   C     C_R   0.012366 0.999256 0.554620 -0.135493
C83   C     C_R   0.487634 0.499256 0.945380 -0.135494
C84   C     C_R   0.487634 0.499256 0.054620 -0.135494
C85   C     C_R   0.045532 0.940085 0.472486 0.130213
C86   C     C_R   0.045532 0.940085 0.527514 0.130213
C87   C     C_R   0.454469 0.440084 0.972486 0.130212
C88   C     C_R   0.454469 0.440084 0.027514 0.130213
C89   C     C_3   0.956114 0.133098 0.530209 0.225363
C90   C     C_R   0.806347 0.255335 0.712540 0.164942
C91   C     C_3   0.956114 0.133098 0.469791 0.225363
C92   C     C_3   0.543885 0.633099 0.030209 0.225362
C93   C     C_3   0.543886 0.633099 0.969791 0.225363
C94   C     C_R   0.270041 0.825404 0.260770 0.093870
C95   C     C_R   0.270044 0.825407 0.739241 0.093876
C96   C     C_R   0.755303 0.798855 0.207342 0.101367
C97   C     C_R   0.755308 0.798850 0.792660 0.101364
C98   C     C_R   0.744692 0.298851 0.707340 0.101363
C99   C     C_R   0.744693 0.298851 0.292660 0.101364
C100  C     C_R   0.229956 0.325407 0.760759 0.093876
Cl1   Cl    Cl    0.089472 0.702367 0.231103 -0.498644
Cl2   Cl    Cl    0.089468 0.702360 0.768868 -0.498631
Cl3   Cl    Cl    0.861321 0.744715 0.342114 -0.461763
Cl4   Cl    Cl    0.861306 0.744732 0.657876 -0.461767
Cl5   Cl    Cl    0.638692 0.244729 0.842122 -0.461766
Cl6   Cl    Cl    0.638691 0.244729 0.157879 -0.461767
Cl7   Cl    Cl    0.410533 0.202360 0.731131 -0.498630
Cl8   Cl    Cl    0.410532 0.202361 0.268874 -0.498633
H1    H     H_    0.753077 0.155263 0.817598 0.226547
H2    H     H_    0.753076 0.155263 0.182402 0.226547
H3    H     H_    0.280776 0.121311 0.737158 0.208635
H4    H     H_    0.280776 0.121311 0.262846 0.208633
H5    H     H_    0.219227 0.621314 0.237135 0.208625
H6    H     H_    0.219224 0.621310 0.762842 0.208635
H7    H     H_    0.746931 0.655255 0.317592 0.226548
H8    H     H_    0.746922 0.655265 0.682401 0.226547
I1    I     I_    0.102715 0.855122 0.431776 -0.135166
I2    I     I_    0.470104 0.707127 0.931487 -0.123879
I3    I     I_    0.646975 0.628296 0.069421 -0.187497
I4    I     I_    0.646976 0.628294 0.930580 -0.187498
I5    I     I_    0.296171 0.937054 0.278286 -0.203131
I6    I     I_    0.296179 0.937061 0.721739 -0.203119
I7    I     I_    0.773949 0.849988 0.133323 -0.125784
I8    I     I_    0.773963 0.849975 0.866680 -0.125792
I9    I     I_    0.726038 0.349977 0.633320 -0.125792
I10   I     I_    0.726039 0.349978 0.366679 -0.125792
I11   I     I_    0.203821 0.437061 0.778261 -0.203118
I12   I     I_    0.102715 0.855122 0.568224 -0.135166
I13   I     I_    0.203822 0.437060 0.221734 -0.203118
I14   I     I_    0.900442 0.288613 0.669705 -0.096792
I15   I     I_    0.900443 0.288614 0.330293 -0.096793
I16   I     I_    0.065330 0.299388 0.778930 -0.168582
I17   I     I_    0.065331 0.299387 0.221066 -0.168583
I18   I     I_    0.434664 0.799380 0.278954 -0.168595
I19   I     I_    0.434670 0.799388 0.721070 -0.168583
I20   I     I_    0.599549 0.788619 0.169714 -0.096795
I21   I     I_    0.599558 0.788613 0.830295 -0.096793
I22   I     I_    0.064606 0.845015 0.069312 -0.163634
I23   I     I_    0.397286 0.355121 0.931776 -0.135165
I24   I     I_    0.064602 0.845013 0.930687 -0.163653
I25   I     I_    0.934242 0.154455 0.069306 -0.192468
I26   I     I_    0.934243 0.154455 0.930694 -0.192470
I27   I     I_    0.565769 0.654449 0.569305 -0.192468
I28   I     I_    0.565772 0.654448 0.430694 -0.192460
I29   I     I_    0.435388 0.345017 0.569313 -0.163652
I30   I     I_    0.435383 0.345019 0.430688 -0.163648
I31   I     I_    0.397287 0.355121 0.068224 -0.135165
I32   I     I_    0.853023 0.128293 0.569420 -0.187499
I33   I     I_    0.853023 0.128294 0.430580 -0.187501
I34   I     I_    0.029895 0.207127 0.568512 -0.123877
I35   I     I_    0.029895 0.207127 0.431487 -0.123877
I36   I     I_    0.470104 0.707128 0.068513 -0.123881
O1    O     O_3   0.000000 0.000010 0.249960 -0.539354
O2    O     O_R   0.414520 0.646190 0.219700 -0.611601
O3    O     O_R   0.585480 0.646190 0.780300 -0.609175
O4    O     O_R   0.585480 0.646190 0.219700 -0.609176
O5    O     O_R   0.085460 0.853840 0.280340 -0.589204
O6    O     O_R   0.085460 0.853840 0.719660 -0.589200
O7    O     O_R   0.914540 0.853840 0.280340 -0.570229
O8    O     O_R   0.914540 0.853840 0.719660 -0.570227
O9    O     O_R   0.585460 0.353840 0.780340 -0.570227
O10   O     O_R   0.585460 0.353840 0.219660 -0.570227
O11   O     O_R   0.414540 0.353840 0.780340 -0.589200
O12   O     O_3   0.000000 0.000010 0.750040 -0.539354
O13   O     O_R   0.414540 0.353840 0.219660 -0.589201
O14   O     O_R   0.853820 0.914550 0.219610 -0.626054
O15   O     O_R   0.853820 0.914550 0.780390 -0.626054
O16   O     O_R   0.146180 0.914550 0.219610 -0.619228
O17   O     O_R   0.146180 0.914550 0.780390 -0.619228
O18   O     O_R   0.353820 0.414550 0.719610 -0.619228
O19   O     O_R   0.353820 0.414550 0.280390 -0.619228
O20   O     O_R   0.646180 0.414550 0.719610 -0.626054
O21   O     O_R   0.646180 0.414550 0.280390 -0.626054
O22   O     O_R   0.146170 0.085440 0.219600 -0.625149
O23   O     O_3   0.500000 0.500010 0.749960 -0.539354
O24   O     O_R   0.146170 0.085440 0.780400 -0.625147
O25   O     O_R   0.853830 0.085440 0.219600 -0.636075
O26   O     O_R   0.853830 0.085440 0.780400 -0.636075
O27   O     O_R   0.646170 0.585440 0.719600 -0.636074
O28   O     O_R   0.646170 0.585440 0.280400 -0.636076
O29   O     O_R   0.353830 0.585440 0.719600 -0.625147
O30   O     O_R   0.353830 0.585440 0.280400 -0.625142
O31   O     O_R   0.939270 0.999980 0.134160 -0.611735
O32   O     O_R   0.939270 0.999980 0.865840 -0.611735
O33   O     O_R   0.060730 0.999980 0.134160 -0.617732
O34   O     O_3   0.500000 0.500010 0.250040 -0.539355
O35   O     O_R   0.060730 0.999980 0.865840 -0.617731
O36   O     O_R   0.439270 0.499980 0.634160 -0.617731
O37   O     O_R   0.439270 0.499980 0.365840 -0.617731
O38   O     O_R   0.560730 0.499980 0.634160 -0.611735
O39   O     O_R   0.560730 0.499980 0.365840 -0.611735
O40   O     O_R   0.000000 0.060760 0.365760 -0.623031
O41   O     O_R   0.000000 0.060760 0.634240 -0.623032
O42   O     O_R   0.500000 0.560760 0.865760 -0.623032
O43   O     O_R   0.500000 0.560760 0.134240 -0.623033
O44   O     O_R   0.000000 0.939310 0.365770 -0.608327
O45   O     O_R   0.914520 0.146190 0.280300 -0.609176
O46   O     O_R   0.000000 0.939310 0.634230 -0.608324
O47   O     O_R   0.500000 0.439310 0.865770 -0.608325
O48   O     O_R   0.500000 0.439310 0.134230 -0.608325
O49   O     O_R   0.914520 0.146190 0.719700 -0.609176
O50   O     O_R   0.085480 0.146190 0.280300 -0.611600
O51   O     O_R   0.085480 0.146190 0.719700 -0.611601
O52   O     O_R   0.414520 0.646190 0.780300 -0.611601
Zn1   Zn    Zn3+2 0.000000 0.913260 0.293350 1.095122
Zn2   Zn    Zn3+2 0.413230 0.500000 0.293420 1.043350
Zn3   Zn    Zn3+2 0.586770 0.500000 0.706580 1.043519
Zn4   Zn    Zn3+2 0.586770 0.500000 0.293420 1.043519
Zn5   Zn    Zn3+2 0.000000 0.086780 0.293330 1.044642
Zn6   Zn    Zn3+2 0.000000 0.086780 0.706670 1.044642
Zn7   Zn    Zn3+2 0.500000 0.586780 0.793330 1.044641
Zn8   Zn    Zn3+2 0.500000 0.586780 0.206670 1.044641
Zn9   Zn    Zn3+2 1.000000 0.913260 0.706650 1.095124
Zn10  Zn    Zn3+2 0.500000 0.413260 0.793350 1.095124
Zn11  Zn    Zn3+2 0.500000 0.413260 0.206650 1.095123
Zn12  Zn    Zn3+2 0.913230 0.000000 0.206580 1.043519
Zn13  Zn    Zn3+2 0.913230 1.000000 0.793420 1.043519
Zn14  Zn    Zn3+2 0.086770 0.000000 0.206580 1.043350
Zn15  Zn    Zn3+2 0.086770 1.000000 0.793420 1.043347
Zn16  Zn    Zn3+2 0.413230 0.500000 0.706580 1.043347

loop_
_geom_bond_atom_site_label_1
_geom_bond_atom_site_label_2
_ccdc_geom_bond_type
O12   Zn13  S    
C48   C55   A    
C83   C87   A    
O9    Zn10  S    
C74   O42   A    
C52   I29   S    
C73   O41   A    
C8    I20   S    
C100  I11   S    
O23   Zn16  S    
O49   Zn6   S    
O26   Zn13  S    
C44   C66   S    
C1    C11   S    
C60   O17   A    
O23   Zn3   S    
C74   C83   S    
C80   C84   A    
C68   O3    A    
C24   O22   A    
O41   Zn6   S    
C4    I16   S    
O35   Zn15  S    
C75   O48   A    
C52   C53   A    
O6    Zn9   S    
C5    I17   S    
C39   C96   A    
C77   C89   S    
C43   C100  A    
O32   Zn13  S    
C34   Cl7   S    
C77   C82   A    
C46   O29   A    
C74   O47   A    
C92   I3    S    
C60   O6    A    
C51   C56   A    
C89   I32   S    
O34   Zn8   S    
C61   O7    A    
O11   Zn10  S    
C78   C80   A    
C75   C84   S    
O4    Zn8   S    
C2    C11   A    
C78   C93   S    
C18   C68   S    
C13   O26   A    
O47   Zn10  S    
C17   C79   S    
O48   Zn11  S    
C40   C62   S    
C31   C40   A    
C61   O14   A    
C14   C24   S    
O44   Zn1   S    
C79   O28   A    
C26   H7    S    
C45   I22   S    
O2    Zn8   S    
C79   O4    A    
C9    I21   S    
C78   C83   A    
O13   Zn11  S    
C98   I9    S    
O12   Zn6   S    
C6    C94   A    
O24   Zn15  S    
C8    C96   A    
C38   C95   A    
C92   I36   S    
C32   C41   A    
O51   Zn6   S    
O22   Zn14  S    
C93   I4    S    
O23   Zn7   S    
C4    C12   A    
C49   C54   A    
C69   O35   A    
C72   C81   S    
C66   O13   A    
C70   O36   A    
O15   Zn13  S    
C27   H8    S    
O37   Zn2   S    
C19   H1    S    
C62   O15   A    
C6    C15   A    
O42   Zn7   S    
C49   I26   S    
C30   Cl3   S    
C15   C57   S    
O25   Zn12  S    
C1    O25   A    
C19   C32   A    
C28   Cl1   S    
O19   Zn2   S    
C57   O30   A    
C21   H3    S    
O7    Zn1   S    
C99   I10   S    
O18   Zn16  S    
O10   Zn11  S    
C45   C47   A    
C25   C29   A    
C39   C61   S    
O27   Zn3   S    
C11   C20   A    
C2    I15   S    
O33   Zn14  S    
O34   Zn2   S    
C86   I12   S    
C50   C58   A    
O23   Zn10  S    
C66   O19   A    
C29   C38   A    
O5    Zn1   S    
C76   C77   A    
C71   O39   A    
C64   O10   A    
C16   C46   S    
C40   C97   A    
C91   I33   S    
C58   C70   S    
C21   C34   A    
C76   C91   S    
C85   C86   A    
C52   C58   A    
C27   C31   A    
C12   C21   A    
O30   Zn2   S    
C80   C92   S    
C7    I19   S    
C23   H5    S    
C20   H2    S    
C18   C27   A    
C10   C19   A    
C43   C65   S    
C56   C71   S    
C24   O50   A    
O34   Zn11  S    
C65   O11   A    
O29   Zn16  S    
C50   C51   A    
C5    C14   A    
C73   O46   A    
C23   C28   A    
C71   O37   A    
C12   C35   S    
C85   I1    S    
C10   C90   A    
O1    Zn14  S    
C37   C59   S    
C67   O31   A    
C47   C54   A    
C38   C60   S    
C20   C33   A    
C37   C94   A    
C7    C16   A    
O17   Zn15  S    
C2    C99   A    
C26   C30   A    
C22   H4    S    
C3    C44   A    
C4    C100  A    
O1    Zn5   S    
C62   O8    A    
C36   C44   A    
C89   C91   S    
C93   I2    S    
C17   C26   A    
O50   Zn5   S    
C29   Cl2   S    
C42   C64   S    
C73   C82   S    
C41   C63   S    
C50   I27   S    
O12   Zn15  S    
C53   C56   A    
C16   C25   A    
C63   O9    A    
C33   C42   A    
C53   I30   S    
C89   I34   S    
C9    C97   A    
C96   I7    S    
C3    I13   S    
O20   Zn3   S    
C70   O38   A    
C1    O45   A    
C33   Cl6   S    
C84   C88   A    
C87   I23   S    
C3    C5    A    
C10   C13   S    
O28   Zn4   S    
C76   C81   A    
C72   O44   A    
C55   C67   S    
C7    C95   A    
C35   O24   A    
C9    C18   A    
O12   Zn9   S    
C97   I8    S    
C22   C36   A    
C57   O2    A    
C68   O27   A    
C8    C17   A    
O34   Zn4   S    
C65   O18   A    
C32   Cl5   S    
C95   I6    S    
C31   Cl4   S    
C14   C22   A    
O3    Zn7   S    
O43   Zn8   S    
C6    I18   S    
C15   C23   A    
C82   C86   A    
C42   C99   A    
O31   Zn12  S    
C72   O40   A    
C91   I35   S    
C59   O5    A    
C35   O51   A    
C63   O20   A    
C54   C69   S    
C28   C37   A    
C48   C49   A    
O8    Zn9   S    
O52   Zn7   S    
C46   O52   A    
C92   C93   S    
C88   I31   S    
C13   O49   A    
C48   I25   S    
O21   Zn4   S    
O39   Zn4   S    
O40   Zn5   S    
O45   Zn5   S    
C69   O32   A    
C90   I14   S    
C94   I5    S    
O38   Zn3   S    
C47   I24   S    
C36   Cl8   S    
C45   C55   A    
C87   C88   A    
O1    Zn1   S    
O14   Zn12  S    
C51   I28   S    
C41   C98   A    
O16   Zn14  S    
C64   O21   A    
C25   H6    S    
O46   Zn9   S    
O36   Zn16  S    
C34   C43   A    
C90   C98   A    
O1    Zn12  S    
C81   C85   A    
C59   O16   A    
C67   O33   A    
C30   C39   A    
C75   O43   A    
