data_mof_unit_9558.cif
_audit_creation_date              2012-12-11T15:49:03-0500
_audit_creation_method            fapswitch 2.2
_symmetry_space_group_name_H-M    P1
_symmetry_Int_Tables_number       1
_space_group_crystal_system       triclinic
_cell_length_a                    21.635795
_cell_length_b                    7.182871
_cell_length_c                    14.909565
_cell_angle_alpha                 90.007408
_cell_angle_beta                  106.415705
_cell_angle_gamma                 90.001911
_cell_volume                      2222.60153488

loop_
_atom_site_label
_atom_site_type_symbol
_atom_type_description
_atom_site_fract_x
_atom_site_fract_y
_atom_site_fract_z
_atom_type_partial_charge
O1    O     O_R   0.335860 0.638190 0.002110 -0.544990
O2    O     O_R   0.664140 0.361810 0.997890 -0.545073
O3    O     O_R   0.164140 0.138190 0.997890 -0.545007
O4    O     O_R   0.835860 0.861810 0.002110 -0.545023
O5    O     O_R   0.217530 0.305920 0.861960 -0.535475
O6    O     O_R   0.782470 0.694080 0.138040 -0.535200
O7    O     O_R   0.282470 0.805920 0.138040 -0.535367
O8    O     O_R   0.717530 0.194080 0.861960 -0.535354
C1    C     C_R   0.205768 0.476708 0.825954 0.764258
C2    C     C_R   0.794244 0.523297 0.174040 0.764212
C3    C     C_R   0.294242 0.976731 0.174045 0.764221
C4    C     C_R   0.705769 0.023269 0.825955 0.764224
O9    O     O_R   0.338690 0.308320 0.993240 -0.544674
O10   O     O_R   0.661310 0.691680 0.006760 -0.544560
O11   O     O_R   0.161310 0.808320 0.006760 -0.544636
O12   O     O_R   0.838690 0.191680 0.993240 -0.544638
O13   O     O_R   0.286170 0.140430 0.130100 -0.539467
O14   O     O_R   0.713830 0.859570 0.869900 -0.539489
O15   O     O_R   0.213830 0.640430 0.869900 -0.539397
O16   O     O_R   0.786170 0.359570 0.130100 -0.539598
C5    C     C_R   0.364974 0.477233 0.997794 0.699902
C6    C     C_R   0.635026 0.522767 0.002206 0.699859
C7    C     C_R   0.135026 0.977230 0.002205 0.699893
C8    C     C_R   0.864974 0.022770 0.997795 0.699859
O17   O     O_3   0.232630 0.472410 0.044750 -0.379888
O18   O     O_3   0.767370 0.527590 0.955250 -0.379898
O19   O     O_3   0.267370 0.972410 0.955250 -0.379891
O20   O     O_3   0.732630 0.027590 0.044750 -0.379886
V1    V     V_3+5 0.253220 0.196620 0.991700 1.465342
V2    V     V_3+5 0.746780 0.803380 0.008300 1.465713
V3    V     V_3+5 0.246780 0.696620 0.008300 1.465554
V4    V     V_3+5 0.753220 0.303380 0.991700 1.465289
C9    C     C_R   0.029948 0.826404 0.003889 -0.142733
C10   C     C_R   0.970052 0.173596 0.996111 -0.142705
C11   C     C_R   0.470043 0.326408 0.996082 -0.142742
C12   C     C_R   0.529957 0.673592 0.003918 -0.142587
H1    H     H_    0.051793 0.690098 0.006706 0.118176
H2    H     H_    0.948207 0.309903 0.993294 0.118173
H3    H     H_    0.448190 0.190104 0.993240 0.118188
H4    H     H_    0.551810 0.809896 0.006760 0.118191
C13   C     C_R   0.964985 0.837776 0.002267 -0.138818
C14   C     C_R   0.035015 0.162224 0.997733 -0.138803
C15   C     C_R   0.535006 0.337774 0.997705 -0.138970
C16   C     C_R   0.464994 0.662226 0.002295 -0.138793
H5    H     H_    0.939118 0.709465 0.004185 0.119805
H6    H     H_    0.060882 0.290535 0.995815 0.119801
H7    H     H_    0.560866 0.209463 0.995764 0.119805
H8    H     H_    0.439134 0.790537 0.004235 0.119785
C17   C     C_R   0.934015 0.011566 0.998340 -0.028349
C18   C     C_R   0.065985 0.988434 0.001661 -0.028360
C19   C     C_R   0.565985 0.511561 0.001661 -0.028388
C20   C     C_R   0.434015 0.488439 0.998338 -0.028332
C21   C     C_R   0.677859 0.015832 0.724700 -0.147338
C22   C     C_R   0.322161 0.984159 0.275302 -0.147343
C23   C     C_R   0.822157 0.516003 0.275292 -0.147373
C24   C     C_R   0.177852 0.484102 0.724696 -0.147317
C25   C     C_R   0.689634 0.023812 0.568661 -0.225767
C26   C     C_R   0.310399 0.976096 0.431345 -0.225750
C27   C     C_R   0.810431 0.525939 0.431328 -0.225742
C28   C     C_R   0.189640 0.476881 0.568659 -0.225773
C29   C     C_R   0.717226 0.025373 0.665055 0.605724
C30   C     C_R   0.282800 0.974587 0.334954 0.605726
C31   C     C_R   0.782831 0.527099 0.334941 0.605762
C32   C     C_R   0.217233 0.475271 0.665054 0.605701
C33   C     C_R   0.610925 0.005416 0.688078 -0.307290
C34   C     C_R   0.389101 0.994541 0.311915 -0.307318
C35   C     C_R   0.889077 0.504614 0.311906 -0.307368
C36   C     C_R   0.110909 0.494006 0.688066 -0.307305
C37   C     C_R   0.581460 0.005787 0.590342 0.094263
C38   C     C_R   0.418572 0.993947 0.409650 0.094276
C39   C     C_R   0.918563 0.505926 0.409635 0.094255
C40   C     C_R   0.081452 0.494001 0.590328 0.094276
C41   C     C_R   0.622423 0.014721 0.530964 0.040022
C42   C     C_R   0.377610 0.985048 0.469033 0.040025
C43   C     C_R   0.877625 0.516037 0.469014 0.040040
C44   C     C_R   0.122420 0.485472 0.530953 0.040028
C45   C     C_R   0.513075 0.998878 0.549789 0.072726
C46   C     C_R   0.486963 0.000696 0.450198 0.072721
C47   C     C_R   0.986951 0.498952 0.450182 0.072708
C48   C     C_R   0.013064 0.501026 0.549775 0.072732
C49   C     C_R   0.530101 0.008777 0.394560 -0.171617
C50   C     C_R   0.469935 0.990722 0.605428 -0.171608
C51   C     C_R   0.969942 0.510031 0.605411 -0.171577
C52   C     C_R   0.030093 0.490921 0.394543 -0.171612
C53   C     C_R   0.596248 0.015575 0.434331 -0.130260
C54   C     C_R   0.403791 0.984078 0.565662 -0.130260
C55   C     C_R   0.903805 0.517398 0.565642 -0.130287
C56   C     C_R   0.096247 0.484578 0.434317 -0.130241
H9    H     H_    0.627322 0.022128 0.388679 0.150261
H10   H     H_    0.372716 0.977561 0.611315 0.150230
H11   H     H_    0.872744 0.524872 0.611288 0.150202
H12   H     H_    0.127332 0.478357 0.388672 0.150255
H13   H     H_    0.416395 0.000682 0.261765 0.121373
H14   H     H_    0.583624 0.999438 0.738222 0.121371
H15   H     H_    0.083598 0.499223 0.738207 0.121356
H16   H     H_    0.916353 0.497153 0.261769 0.121450
H17   H     H_    0.720876 0.031017 0.523295 0.154707
H18   H     H_    0.279158 0.968919 0.476717 0.154686
H19   H     H_    0.779216 0.534213 0.476699 0.154681
H20   H     H_    0.220893 0.470156 0.523299 0.154699
H21   H     H_    0.514568 0.010358 0.319375 0.126649
H22   H     H_    0.485470 0.988977 0.680608 0.126654
H23   H     H_    0.985481 0.512358 0.680590 0.126650
H24   H     H_    0.014560 0.489446 0.319356 0.126641
F1    F     F_    0.217778 0.963523 0.299801 -0.696724
F2    F     F_    0.782247 0.036468 0.700217 -0.696705
F3    F     F_    0.282266 0.464789 0.700221 -0.696732
F4    F     F_    0.717831 0.539197 0.299790 -0.696699

loop_
_geom_bond_atom_site_label_1
_geom_bond_atom_site_label_2
_ccdc_geom_bond_type
O17   V3    S    
C51   C55   A    
C26   C30   A    
C55   H11   S    
O19   V1    S    
C27   H19   S    
C37   C45   A    
C26   H18   S    
C40   C44   A    
O15   V3    S    
C39   C47   A    
C30   F1    S    
C49   H21   S    
C45   C46   A    
O1    C5    A    
C51   H23   S    
O9    V1    S    
C47   C52   A    
O4    C8    A    
C38   C46   A    
O1    V3    S    
O13   V1    S    
O2    V4    S    
C14   H6    S    
C25   C41   A    
O3    V1    S    
O3    C7    A    
C38   C42   A    
C21   C29   A    
C1    O15   A    
C56   H12   S    
C2    O16   A    
C10   C14   A    
C23   C31   A    
O2    C6    A    
C24   C32   A    
C37   C41   A    
O14   V2    S    
C21   C33   A    
C44   C56   A    
C4    C21   S    
C36   C40   A    
C16   C20   A    
O11   C7    A    
O12   C8    A    
O10   V2    S    
C48   C51   A    
C13   C17   A    
O5    V1    S    
C36   H15   S    
O7    V3    S    
O8    V4    S    
C12   H4    S    
C54   H10   S    
C53   H9    S    
O18   V4    S    
C7    C18   S    
C22   C30   A    
C9    C18   A    
C50   C54   A    
C28   C44   A    
C9    H1    S    
O7    C3    A    
O5    C1    A    
C29   F2    S    
O8    C4    A    
C25   H17   S    
C50   H22   S    
O9    C5    A    
C1    C24   S    
C42   C54   A    
C25   C29   A    
C2    C23   S    
C3    C22   S    
C41   C53   A    
C12   C19   A    
C14   C18   A    
C34   H13   S    
C43   C55   A    
C33   H14   S    
O6    V2    S    
C35   H16   S    
C52   H24   S    
C12   C16   A    
C27   C43   A    
C11   C15   A    
C26   C42   A    
C32   F3    S    
O16   V4    S    
C8    C17   S    
C3    O13   A    
C10   C17   A    
C10   H2    S    
C52   C56   A    
C28   H20   S    
O6    C2    A    
C23   C35   A    
O11   V3    S    
C22   C34   A    
O12   V4    S    
C27   C31   A    
C28   C32   A    
C9    C13   A    
O10   C6    A    
O20   V2    S    
C40   C48   A    
C24   C36   A    
C39   C43   A    
C46   C49   A    
C15   C19   A    
C34   C38   A    
C45   C50   A    
C33   C37   A    
C11   H3    S    
C35   C39   A    
O4    V2    S    
C47   C48   A    
C4    O14   A    
C11   C20   A    
C13   H5    S    
C31   F4    S    
C15   H7    S    
C5    C20   S    
C49   C53   A    
C16   H8    S    
C6    C19   S    
