data_mof_unit_24707.cif
_audit_creation_date              2013-03-05T15:55:18-0500
_audit_creation_method            fapswitch 2.2
_symmetry_space_group_name_H-M    P1
_symmetry_Int_Tables_number       1
_space_group_crystal_system       triclinic
_cell_length_a                    14.71779
_cell_length_b                    14.745524
_cell_length_c                    33.14352
_cell_angle_alpha                 96.004221
_cell_angle_beta                  96.112483
_cell_angle_gamma                 61.245178
_cell_volume                      6258.26273693

loop_
_atom_site_label
_atom_site_type_symbol
_atom_site_description
_atom_site_fract_x
_atom_site_fract_y
_atom_site_fract_z
_atom_type_partial_charge
O1    O     O_R   0.679450 0.499830 0.463150 -0.531313
O2    O     O_R   0.480650 0.664000 0.464630 -0.514690
C1    C     C_R   0.389773 0.702640 0.446687 0.872892
O3    O     O_R   0.323930 0.675950 0.455370 -0.496990
O4    O     O_R   0.354700 0.475360 0.451930 -0.507372
C2    C     C_R   0.405092 0.385303 0.434262 0.854669
O5    O     O_R   0.494470 0.320860 0.448390 -0.531931
O6    O     O_R   0.662580 0.357570 0.460050 -0.509236
C3    C     C_R   0.701529 0.409592 0.447488 0.872386
O7    O     O_R   0.680900 0.502040 0.551870 -0.544241
O8    O     O_R   0.481990 0.666040 0.546870 -0.539765
C4    C     C_R   0.392552 0.703368 0.560747 0.849167
O9    O     O_R   0.325370 0.678160 0.544080 -0.508271
O10   O     O_R   0.356040 0.477400 0.534170 -0.532926
C5    C     C_R   0.407172 0.388728 0.549042 0.778091
O11   O     O_R   0.495910 0.323070 0.537100 -0.539334
O12   O     O_R   0.663920 0.359620 0.542290 -0.529667
C6    C     C_R   0.701655 0.413675 0.562721 0.829136
Cr1   Cr    Cr6+3 0.576280 0.580550 0.506370 1.048040
Cr2   Cr    Cr6+3 0.346780 0.572400 0.496520 1.108003
Cr3   Cr    Cr6+3 0.576960 0.347070 0.497150 1.057037
O13   O     O_3   0.500010 0.500010 0.500010 -0.380496
C7    C     C_R   0.371020 0.362114 0.392630 -0.236454
C8    C     C_R   0.272013 0.426757 0.374087 0.374939
C9    C     C_R   0.256995 0.419495 0.331567 -0.207085
C10   C     C_R   0.337060 0.346880 0.307881 -0.098752
C11   C     C_R   0.431918 0.275159 0.326502 0.387106
C12   C     C_R   0.447039 0.282920 0.368706 -0.234635
C13   C     C_R   0.397156 0.263566 0.164661 -0.127756
C14   C     C_R   0.391958 0.248672 0.122212 0.323534
C15   C     C_R   0.212262 0.388498 0.120366 0.330732
C16   C     C_R   0.219889 0.401311 0.162750 -0.176158
C17   C     C_R   0.310139 0.336218 0.184726 -0.050437
C18   C     C_1   0.314206 0.344044 0.228107 0.103882
C19   C     C_1   0.321427 0.346991 0.264535 0.110972
C20   C     C_R   0.295288 0.304231 0.099975 -0.287512
N1    N     N_R   0.740107 0.392161 0.219214 -0.222984
N2    N     N_R   0.735747 0.400212 0.259379 -0.213980
C21   C     C_R   0.756153 0.373835 0.409301 -0.279486
C22   C     C_R   0.764137 0.447254 0.388321 -0.219838
C23   C     C_R   0.788009 0.428160 0.347682 0.352014
C24   C     C_R   0.801963 0.334082 0.327005 -0.288569
C25   C     C_R   0.805629 0.254829 0.348869 0.254448
C26   C     C_R   0.784524 0.274070 0.390362 0.290407
N3    N     N_R   0.879400 0.235292 0.263961 -0.187366
N4    N     N_R   0.883379 0.226994 0.223762 -0.211646
C27   C     C_R   0.813686 0.305105 0.200686 0.577955
C28   C     C_R   0.805719 0.322307 0.282477 0.655067
C29   C     C_R   0.823148 0.386197 0.141113 -0.123500
C30   C     C_R   0.861481 0.376776 0.103406 -0.068137
C31   C     C_R   0.896965 0.197774 0.095106 -0.194020
C32   C     C_R   0.858401 0.206250 0.132956 0.387384
C33   C     C_R   0.826469 0.300084 0.157081 -0.120643
C34   C     C_R   0.903087 0.281163 0.080969 -0.134041
H1    H     H_    0.798394 0.458792 0.159177 0.209732
H2    H     H_    0.925741 0.124492 0.077352 0.191583
N5    N     N_R   0.302967 0.766180 0.216928 -0.260221
N6    N     N_R   0.304136 0.762667 0.256876 -0.256823
C35   C     C_R   0.368647 0.761440 0.409830 -0.280346
C36   C     C_R   0.277239 0.784687 0.384394 0.327410
C37   C     C_R   0.278132 0.793826 0.342881 -0.165208
C38   C     C_R   0.365110 0.787764 0.326741 -0.127992
C39   C     C_R   0.447701 0.783338 0.353140 -0.147530
C40   C     C_R   0.449251 0.772958 0.394810 0.328967
N7    N     N_R   0.431867 0.815157 0.266484 -0.219572
N8    N     N_R   0.430222 0.819234 0.226443 -0.176825
C41   C     C_R   0.365578 0.794945 0.200843 0.588397
C42   C     C_R   0.367583 0.788321 0.282470 0.568872
C43   C     C_R   0.253883 0.840356 0.137366 -0.131904
C44   C     C_R   0.228043 0.880444 0.099402 -0.150518
C45   C     C_R   0.401084 0.861344 0.097619 0.278529
C46   C     C_R   0.427742 0.819953 0.136390 0.297126
C47   C     C_R   0.351384 0.814624 0.157191 -0.152433
C48   C     C_R   0.298788 0.896305 0.079903 -0.216188
H3    H     H_    0.149587 0.904907 0.086460 0.202754
N9    N     N_R   0.260964 0.428597 0.769718 -0.244560
N10   N     N_R   0.261059 0.429358 0.729640 -0.256796
C49   C     C_R   0.370842 0.368447 0.585099 -0.063388
C50   C     C_R   0.286282 0.448773 0.604820 -0.131530
C51   C     C_R   0.267184 0.438127 0.643877 -0.103598
C52   C     C_R   0.332102 0.346872 0.663791 0.000677
C53   C     C_R   0.410424 0.263077 0.642525 -0.094976
C54   C     C_R   0.429717 0.273827 0.603520 -0.114430
N11   N     N_R   0.389069 0.255822 0.727211 -0.251213
N12   N     N_R   0.388856 0.255010 0.767291 -0.195891
C55   C     C_R   0.325907 0.341821 0.789395 0.619018
C56   C     C_R   0.325194 0.343038 0.707574 0.512635
C57   C     C_R   0.228026 0.402905 0.851266 -0.208802
C58   C     C_R   0.214392 0.391192 0.891034 0.335063
C59   C     C_R   0.396894 0.261037 0.898227 0.208084
C60   C     C_R   0.409421 0.272881 0.857879 0.327888
C61   C     C_R   0.322353 0.339787 0.833566 -0.216194
C62   C     C_R   0.295995 0.310954 0.913177 -0.306698
H4    H     H_    0.770361 0.228135 0.595291 0.203246
C63   C     C_R   0.757589 0.380641 0.602710 -0.173843
C64   C     C_R   0.775933 0.451092 0.629574 -0.215436
C65   C     C_R   0.810846 0.429474 0.670198 0.351691
C66   C     C_R   0.828037 0.334753 0.684128 -0.160772
C67   C     C_R   0.818614 0.259440 0.656452 0.357478
C68   C     C_R   0.782002 0.283938 0.616083 -0.191285
C69   C     C_R   0.882481 0.211304 0.823051 0.343431
C70   C     C_R   0.900733 0.202885 0.865375 0.151188
C71   C     C_R   0.853342 0.386569 0.874811 0.369322
C72   C     C_R   0.835474 0.393593 0.832525 -0.196572
C73   C     C_R   0.854473 0.306031 0.806724 -0.149132
C74   C     C_1   0.846247 0.314334 0.763431 0.174924
C75   C     C_1   0.839574 0.321986 0.727274 0.172660
C76   C     C_R   0.897892 0.287808 0.891151 -0.308714
H5    H     H_    0.759028 0.525368 0.619384 0.198082
H6    H     H_    0.806813 0.467731 0.819526 0.216821
H7    H     H_    0.515983 0.742208 0.690955 0.174606
C77   C     C_R   0.374551 0.760132 0.600994 -0.171772
C78   C     C_R   0.273256 0.823525 0.614613 0.361657
C79   C     C_R   0.261536 0.851908 0.656304 -0.159004
C80   C     C_R   0.348611 0.820913 0.683750 0.024706
C81   C     C_R   0.448209 0.766036 0.669809 -0.091074
C82   C     C_R   0.461208 0.736029 0.628752 -0.192619
C83   C     C_R   0.387823 0.890822 0.830476 -0.162373
C84   C     C_R   0.378400 0.908479 0.872491 0.320223
C85   C     C_R   0.236323 0.864928 0.864913 0.343187
C86   C     C_R   0.247705 0.847950 0.822925 -0.131603
C87   C     C_R   0.320388 0.864600 0.805754 -0.040875
C88   C     C_1   0.328445 0.851384 0.762657 0.071319
C89   C     C_1   0.336460 0.839323 0.726573 0.030058
C90   C     C_R   0.295775 0.904710 0.889748 -0.290264
O14   O     O_R   0.170070 0.978950 0.027680 -0.540915
O15   O     O_R   0.001760 0.175230 0.026640 -0.545496
C91   C     C_R   0.963098 0.264134 0.045528 0.806938
O16   O     O_R   0.984760 0.333570 0.037150 -0.511690
O17   O     O_R   0.183410 0.309240 0.041890 -0.510474
C92   C     C_R   0.274182 0.262133 0.059307 0.851490
O18   O     O_R   0.340240 0.172500 0.045430 -0.495031
O19   O     O_R   0.309670 0.000990 0.032050 -0.502426
C93   C     C_R   0.259695 0.958586 0.043661 0.850083
O20   O     O_R   0.168330 0.982130 0.939200 -0.505286
O21   O     O_R   0.000140 0.178170 0.944610 -0.530967
C94   C     C_R   0.958954 0.268694 0.931314 0.861898
O22   O     O_R   0.983010 0.336750 0.948660 -0.488422
O23   O     O_R   0.181800 0.312190 0.959860 -0.506811
C95   C     C_R   0.272536 0.266252 0.946411 0.845700
O24   O     O_R   0.338500 0.175680 0.956950 -0.506402
O25   O     O_R   0.308050 0.003930 0.950020 -0.506272
C96   C     C_R   0.258127 0.961723 0.929508 0.868009
Cr4   Cr    Cr6+3 0.087320 0.083240 0.984860 1.052545
Cr5   Cr    Cr6+3 0.087720 0.316210 0.996740 1.149505
Cr6   Cr    Cr6+3 0.317350 0.090340 0.995890 1.161608
O26   O     O_3   0.164130 0.163270 0.992500 -0.394771
N13   N     N_R   0.485242 0.179089 0.102282 0.177196
O27   O     O_R   0.503990 0.203786 0.068703 -0.313042
O28   O     O_R   0.559527 0.101419 0.121064 -0.253913
N14   N     N_R   0.788355 0.193597 0.412594 0.170484
O29   O     O_R   0.738893 0.142830 0.398223 -0.283850
O30   O     O_R   0.842233 0.170315 0.447261 -0.307701
H8    H     H_    0.863962 0.442663 0.092943 0.214005
N15   N     N_R   0.797104 0.505312 0.327711 0.157975
O31   O     O_R   0.740531 0.603303 0.337772 -0.295981
O32   O     O_R   0.870207 0.477812 0.302952 -0.323787
N16   N     N_R   0.827640 0.155893 0.328892 0.191468
O33   O     O_R   0.904978 0.071579 0.342557 -0.256660
O34   O     O_R   0.766643 0.149295 0.298643 -0.260993
N17   N     N_R   0.853492 0.119248 0.146617 0.150436
O35   O     O_R   0.916432 0.025309 0.133380 -0.325257
O36   O     O_R   0.778900 0.133945 0.168648 -0.278528
N18   N     N_R   0.183028 0.800597 0.400239 0.178758
O37   O     O_R   0.154615 0.852240 0.434994 -0.273750
O38   O     O_R   0.117007 0.780156 0.377207 -0.271899
N19   N     N_R   0.531874 0.775632 0.421425 0.139920
O39   O     O_R   0.623350 0.742410 0.408145 -0.306780
O40   O     O_R   0.511484 0.826526 0.456694 -0.327260
H9    H     H_    0.469146 0.218214 0.182159 0.229547
H10   H     H_    0.210083 0.806524 0.323101 0.215315
H11   H     H_    0.511874 0.786424 0.341274 0.229317
H12   H     H_    0.194237 0.835967 0.152290 0.207332
N20   N     N_R   0.478740 0.863587 0.075729 0.167617
O41   O     O_R   0.508557 0.933214 0.085978 -0.260308
O42   O     O_R   0.507040 0.807431 0.041864 -0.298545
N21   N     N_R   0.532670 0.779302 0.153618 0.158701
O43   O     O_R   0.580740 0.686463 0.166820 -0.327957
O44   O     O_R   0.579344 0.835785 0.157515 -0.249356
H13   H     H_    0.238988 0.522381 0.591258 0.167686
H14   H     H_    0.494753 0.210126 0.588860 0.171878
N22   N     N_R   0.117046 0.460735 0.908089 0.158990
O45   O     O_R   0.031056 0.492368 0.885303 -0.311207
O46   O     O_R   0.116088 0.507900 0.943626 -0.282640
H15   H     H_    0.205049 0.503516 0.659218 0.171999
H16   H     H_    0.460883 0.191176 0.656813 0.174496
N23   N     N_R   0.515063 0.196627 0.303337 0.148358
O47   O     O_R   0.579436 0.109013 0.318999 -0.264114
O48   O     O_R   0.534286 0.215981 0.268725 -0.329581
H17   H     H_    0.162850 0.459525 0.833554 0.225335
N24   N     N_R   0.488238 0.200840 0.923544 -0.069487
O49   O     O_R   0.497222 0.228821 0.961684 -0.000001
O50   O     O_R   0.497222 0.228821 0.961683 -0.000001
N25   N     N_R   0.511249 0.220769 0.842490 0.153833
O51   O     O_R   0.544239 0.271841 0.823924 -0.327996
O52   O     O_R   0.573512 0.123730 0.848913 -0.264457
N26   N     N_R   0.919113 0.108235 0.881264 -0.077951
O53   O     O_R   0.864372 0.109387 0.909848 -0.000002
O54   O     O_R   0.864371 0.109387 0.909848 -0.000002
N27   N     N_R   0.890828 0.123840 0.796885 0.169612
O55   O     O_R   0.970192 0.032510 0.801507 -0.308281
O56   O     O_R   0.816498 0.134288 0.769632 -0.277889
N28   N     N_R   0.843251 0.159246 0.669103 0.154240
O57   O     O_R   0.797076 0.108662 0.650718 -0.316012
O58   O     O_R   0.920824 0.112578 0.695380 -0.312239
N29   N     N_R   0.822457 0.480086 0.900671 0.184773
O59   O     O_R   0.811222 0.564067 0.886386 -0.267734
O60   O     O_R   0.786345 0.487227 0.935712 -0.310695
H18   H     H_    0.522466 0.231201 0.382453 0.238605
N30   N     N_R   0.824289 0.506068 0.697149 0.114099
O61   O     O_R   0.895961 0.478165 0.726795 -0.345186
O62   O     O_R   0.771755 0.603768 0.689794 -0.346985
N31   N     N_R   0.453601 0.929386 0.896956 0.151955
O63   O     O_R   0.487869 0.986605 0.883705 -0.316148
O64   O     O_R   0.501377 0.876506 0.928672 -0.275856
H19   H     H_    0.448233 0.897419 0.817019 0.197572
H20   H     H_    0.539481 0.687718 0.619264 0.171411
N32   N     N_R   0.182593 0.859395 0.586825 0.132490
O65   O     O_R   0.093499 0.878892 0.599110 -0.309606
O66   O     O_R   0.185496 0.886106 0.550970 -0.310531
H21   H     H_    0.200047 0.821249 0.803585 0.201889
N33   N     N_R   0.165809 0.839758 0.881841 0.157669
O67   O     O_R   0.081940 0.849756 0.860831 -0.280786
O68   O     O_R   0.193394 0.791311 0.915278 -0.311339
H22   H     H_    0.184589 0.897096 0.667458 0.198153
N34   N     N_R   0.186424 0.498120 0.397705 0.145979
O69   O     O_R   0.173521 0.471830 0.432082 -0.335313
O70   O     O_R   0.112035 0.581193 0.381963 -0.275939
H23   H     H_    0.155073 0.462016 0.178641 0.194080
N35   N     N_R   0.120325 0.461887 0.098708 0.140742
O71   O     O_R   0.030120 0.498979 0.113700 -0.343371
O72   O     O_R   0.128743 0.505157 0.068041 -0.300954
H24   H     H_    0.182721 0.470831 0.316798 0.207879
H25   H     H_    0.747497 0.522177 0.403097 0.242274

loop_
_geom_bond_atom_site_label_1
_geom_bond_atom_site_label_2
_geom_bond_distance
_ccdc_geom_bond_type
N25   O52   1.301210 A    
N28   O57   1.301511 A    
C29   C33   1.403620 A    
C69   C70   1.406923 A    
N15   O32   1.301564 A    
C23   C24   1.411814 A    
O25   Cr6   1.916178 S    
C73   C74   1.440125 S    
C63   C64   1.403557 A    
C71   N29   1.440632 S    
C4    C77   1.475963 S    
C25   N16   1.435438 S    
C91   O16   1.272577 A    
C29   C30   1.392096 A    
C65   C66   1.413531 A    
C82   H20   1.083600 S    
C69   N27   1.437624 S    
C88   C89   1.200491 T    
N19   O40   1.301616 A    
O4    Cr2   1.918070 S    
N31   O63   1.301240 A    
C32   C33   1.413353 A    
C57   H17   1.083466 S    
N28   O58   1.301259 A    
O8    Cr1   1.917369 S    
C10   C11   1.407459 A    
C30   C34   1.400956 A    
C53   H16   1.082806 S    
N18   O37   1.301678 A    
N1    N2    1.329727 A    
N13   O28   1.301524 A    
C18   C19   1.198762 T    
C40   N19   1.438323 S    
C15   C20   1.425908 A    
C76   C94   1.496342 S    
N20   O41   1.300319 A    
N29   O60   1.301674 A    
C5    C49   1.472463 S    
C74   C75   1.204587 T    
O22   Cr5   2.033467 S    
N22   O46   1.301504 A    
C80   C81   1.393490 A    
C15   N35   1.436677 S    
C13   C17   1.393697 A    
C3    C21   1.481705 S    
C81   C82   1.390029 A    
C54   H14   1.083105 S    
C31   H2    1.083064 S    
C83   C87   1.391294 A    
N26   O54   1.301131 A    
N22   O45   1.300676 A    
C77   C78   1.419278 A    
C78   C79   1.405200 A    
N17   O36   1.301576 A    
C83   C84   1.398800 A    
C49   C54   1.404501 A    
O23   Cr5   1.918638 S    
C57   C61   1.397762 A    
O6    C3    1.277144 A    
N21   O44   1.300506 A    
C44   C48   1.402021 A    
C7    C8    1.416012 A    
N11   C56   1.357514 A    
C8    C9    1.404007 A    
C43   C47   1.400860 A    
C71   C76   1.419387 A    
C41   C47   1.478583 S    
C13   H9    1.083845 S    
N1    C27   1.355308 A    
N2    C28   1.357986 A    
C37   C38   1.399498 A    
C50   C51   1.393486 A    
C32   N17   1.440029 S    
C27   C33   1.466881 S    
C57   C58   1.394519 A    
O20   C96   1.275904 A    
N8    C41   1.358576 A    
C9    H24   1.083981 S    
C35   C36   1.418915 A    
N19   O39   1.301089 A    
Cr3   O13   1.974402 S    
O17   Cr5   1.917656 S    
N16   O34   1.300980 A    
C6    C63   1.479334 S    
N14   O30   1.301281 A    
N26   O53   1.301122 A    
C43   H12   1.083182 S    
C46   N21   1.436466 S    
N5    C41   1.356943 A    
Cr4   O26   1.973510 S    
C8    N34   1.438459 S    
C72   C73   1.396103 A    
Cr5   O26   1.974221 S    
C52   C53   1.404551 A    
C2    O5    1.269595 A    
N5    N6    1.328374 A    
C59   N24   1.437629 S    
N31   O64   1.301506 A    
C69   C73   1.403733 A    
O7    C6    1.269704 A    
C14   N13   1.438770 S    
C70   C76   1.425877 A    
O1    Cr1   2.035180 S    
C26   N14   1.436636 S    
C65   N30   1.441840 S    
C31   C32   1.400751 A    
O10   Cr2   1.919326 S    
Cr1   O13   1.973517 S    
O1    C3    1.273179 A    
N11   N12   1.330079 A    
C46   C47   1.416234 A    
C22   H25   1.082770 S    
C20   C92   1.489943 S    
C60   C61   1.412380 A    
C60   N25   1.438559 S    
N29   O59   1.301529 A    
N27   O55   1.301174 A    
C24   C28   1.471644 S    
C9    C10   1.399485 A    
N12   C55   1.356811 A    
C34   C91   1.472688 S    
C53   C54   1.393308 A    
O12   Cr3   1.916448 S    
C66   C75   1.443274 S    
N24   O49   1.301314 A    
C36   C37   1.398475 A    
O3    Cr2   2.036803 S    
C36   N18   1.438674 S    
N33   O68   1.301587 A    
C25   C26   1.411642 A    
N24   O50   1.301308 A    
C13   C14   1.400734 A    
O19   C93   1.277939 A    
N23   O47   1.301556 A    
N32   O66   1.301583 A    
C15   C16   1.397497 A    
H4    C68   1.083135 S    
O7    Cr1   2.034930 S    
N14   O29   1.301165 A    
N7    C42   1.357681 A    
C64   C65   1.401201 A    
O15   C91   1.273071 A    
C38   C39   1.398741 A    
O12   C6    1.278748 A    
C35   C40   1.421738 A    
N34   O69   1.301486 A    
C11   N23   1.441719 S    
C7    C12   1.407948 A    
N13   O27   1.301630 A    
N35   O72   1.301562 A    
O14   C93   1.270468 A    
C86   C87   1.392866 A    
C52   C56   1.474241 S    
O24   Cr6   2.036732 S    
N21   O43   1.301376 A    
C37   H10   1.083207 S    
C30   H8    1.082933 S    
N25   O51   1.301478 A    
N6    C42   1.355983 A    
C22   C23   1.393996 A    
Cr2   O13   1.973048 S    
C66   C67   1.414870 A    
N34   O70   1.301193 A    
N16   O33   1.301106 A    
O15   Cr4   1.917850 S    
C72   H6    1.083879 S    
C70   N26   1.434758 S    
C24   C25   1.414884 A    
C59   C60   1.408958 A    
C1    O3    1.275468 A    
N9    C55   1.356944 A    
C78   N32   1.438630 S    
C71   C72   1.403495 A    
C85   C86   1.401370 A    
C84   C90   1.424365 A    
C59   C62   1.421727 A    
Cr6   O26   1.972936 S    
C94   O22   1.280909 A    
N3    C28   1.355431 A    
C16   H23   1.084175 S    
O20   Cr4   2.033842 S    
C85   N33   1.437950 S    
C80   C89   1.430681 S    
O9    Cr2   2.033405 S    
C67   N28   1.439390 S    
O2    Cr1   1.919402 S    
C63   C68   1.401509 A    
C51   H15   1.082851 S    
O16   Cr5   2.035406 S    
C51   C52   1.404886 A    
O6    Cr3   1.918705 S    
C45   C48   1.416190 A    
C83   H19   1.084259 S    
O23   C95   1.278356 A    
C45   N20   1.432381 S    
O11   Cr3   2.035175 S    
C84   N31   1.436114 S    
C21   C26   1.415664 A    
C38   C42   1.472604 S    
C39   H11   1.083058 S    
C64   H5    1.082961 S    
N30   O62   1.301656 A    
C67   C68   1.404047 A    
C14   C20   1.421327 A    
C77   C82   1.407742 A    
H7    C81   1.083985 S    
O18   Cr6   2.033688 S    
C16   C17   1.389132 A    
C31   C34   1.405591 A    
N18   O38   1.301319 A    
O17   C92   1.275678 A    
C12   H18   1.082584 S    
C50   H13   1.083135 S    
N35   O71   1.301401 A    
O21   Cr4   1.919239 S    
C62   C95   1.489567 S    
C29   H1    1.083593 S    
C92   O18   1.278816 A    
C58   N22   1.435761 S    
C79   H22   1.083869 S    
O5    Cr3   2.034205 S    
N9    N10   1.329712 A    
C49   C50   1.404302 A    
N32   O65   1.301682 A    
O4    C2    1.280083 A    
N17   O35   1.301597 A    
C90   C96   1.491948 S    
C95   O24   1.275179 A    
C2    C7    1.480298 S    
C48   C93   1.480725 S    
O14   Cr4   2.036864 S    
C85   C90   1.423628 A    
C17   C18   1.427506 S    
O2    C1    1.278871 A    
C79   C80   1.397819 A    
N7    N8    1.331837 A    
C58   C62   1.416921 A    
C43   C44   1.383724 A    
N20   O42   1.300855 A    
N23   O48   1.301067 A    
N4    C27   1.358020 A    
C39   C40   1.401986 A    
C21   C22   1.402362 A    
N3    N4    1.330086 A    
C10   C19   1.430601 S    
C45   C46   1.415614 A    
C4    O9    1.270963 A    
N10   C56   1.357296 A    
N27   O56   1.301113 A    
N30   O61   1.301445 A    
C11   C12   1.394272 A    
O25   C96   1.278462 A    
C86   H21   1.083991 S    
O10   C5    1.275939 A    
O21   C94   1.277131 A    
C44   H3    1.083322 S    
C55   C61   1.474420 S    
O19   Cr6   1.920265 S    
C87   C88   1.431054 S    
N15   O31   1.301185 A    
N33   O67   1.301392 A    
C5    O11   1.270064 A    
O8    C4    1.275181 A    
C23   N15   1.439843 S    
C1    C35   1.490623 S    
