data_mof_unit_55172.cif
_audit_creation_date              2013-03-05T15:42:16-0500
_audit_creation_method            fapswitch 2.2
_symmetry_space_group_name_H-M    P1
_symmetry_Int_Tables_number       1
_space_group_crystal_system       triclinic
_cell_length_a                    11.569467
_cell_length_b                    11.643468
_cell_length_c                    19.562348
_cell_angle_alpha                 90.260491
_cell_angle_beta                  89.18027
_cell_angle_gamma                 59.954418
_cell_volume                      2280.67530897

loop_
_atom_site_label
_atom_site_type_symbol
_atom_site_description
_atom_site_fract_x
_atom_site_fract_y
_atom_site_fract_z
_atom_type_partial_charge
O1    O     O_R   0.267740 0.231960 0.575440 -0.492806
O2    O     O_R   0.527280 0.186640 0.570530 -0.484373
C1    C     C_R   0.639719 0.116867 0.599397 0.559082
O3    O     O_R   0.728090 0.003450 0.576380 -0.492676
O4    O     O_R   0.682970 0.789190 0.570490 -0.486352
C2    C     C_R   0.611562 0.746869 0.598723 0.562420
O5    O     O_R   0.499290 0.771880 0.575530 -0.489326
O6    O     O_R   0.285330 0.030870 0.569730 -0.485649
C3    C     C_R   0.240930 0.145200 0.598067 0.559576
O7    O     O_R   0.270980 0.227080 0.423890 -0.503847
O8    O     O_R   0.530280 0.182120 0.430050 -0.518163
C4    C     C_R   0.647472 0.107146 0.401440 0.561466
O9    O     O_R   0.731330 0.998570 0.424830 -0.477824
O10   O     O_R   0.685970 0.784660 0.430010 -0.482924
C5    C     C_R   0.596176 0.776484 0.394508 0.524035
O11   O     O_R   0.502530 0.767000 0.423990 -0.497881
O12   O     O_R   0.288330 0.026350 0.429250 -0.517158
C6    C     C_R   0.295553 0.119368 0.393599 0.512535
Cr1   Cr    Cr6+3 0.404720 0.198220 0.499960 1.053272
Cr2   Cr    Cr6+3 0.698290 0.897110 0.500380 1.075872
Cr3   Cr    Cr6+3 0.396970 0.904720 0.499610 1.055852
O13   O     O_3   0.499990 0.000020 0.499980 -0.304329
C7    C     C_1   0.671916 0.645901 0.860079 0.000416
C8    C     C_1   0.653835 0.684152 0.728386 -0.027987
C9    C     C_1   0.664148 0.666466 0.799645 -0.029969
C10   C     C_1   0.639520 0.704755 0.668032 0.007543
C11   C     C_1   0.127114 0.199430 0.859360 0.005091
C12   C     C_1   0.171264 0.170420 0.727746 -0.028462
C13   C     C_1   0.150430 0.182728 0.798968 -0.029739
C14   C     C_1   0.194858 0.160842 0.667338 0.007334
C15   C     C_1   0.679820 0.190800 0.860814 -0.000769
C16   C     C_1   0.657919 0.166860 0.729157 -0.027360
C17   C     C_1   0.666306 0.180315 0.800484 -0.029437
C18   C     C_1   0.651670 0.149527 0.668788 0.008542
H1    H     H_    0.844626 0.620350 0.338901 0.168068
C19   C     C_R   0.690343 0.572982 0.205222 -0.012698
C20   C     C_R   0.560527 0.624739 0.234965 0.052014
C21   C     C_R   0.526929 0.711836 0.289690 0.040265
C22   C     C_R   0.764072 0.629252 0.307728 -0.121468
C23   C     C_R   0.793711 0.565610 0.244309 -0.163043
C24   C     C_R   0.461457 0.597256 0.210196 -0.089165
C25   C     C_R   0.330165 0.667129 0.233732 -0.109462
C26   C     C_R   0.295883 0.763094 0.283310 -0.078254
C27   C     C_R   0.390579 0.791236 0.307117 -0.078426
C28   C     C_R   0.630412 0.710596 0.328210 0.017584
H2    H     H_    0.484957 0.518856 0.173927 0.143157
H3    H     H_    0.895681 0.514996 0.224800 0.139888
H4    H     H_    0.255714 0.645909 0.214159 0.137874
H5    H     H_    0.196250 0.816007 0.304161 0.174084
H6    H     H_    0.356385 0.871949 0.341800 0.147879
H7    H     H_    0.138146 0.043686 0.335225 0.164359
C29   C     C_R   0.161293 0.182436 0.187003 0.013044
C30   C     C_R   0.246189 0.229132 0.207686 0.014706
C31   C     C_R   0.280918 0.221019 0.277237 0.012403
C32   C     C_R   0.169940 0.094611 0.300135 -0.136000
C33   C     C_R   0.130336 0.108072 0.233071 0.066808
C34   C     C_R   0.293202 0.288723 0.160650 -0.089593
C35   C     C_R   0.347635 0.363309 0.183512 -0.137131
C36   C     C_R   0.365285 0.370897 0.252928 -0.134007
C37   C     C_R   0.340258 0.295263 0.298552 -0.095970
C38   C     C_R   0.248891 0.145086 0.322780 -0.027966
H8    H     H_    0.285373 0.280977 0.105977 0.134306
H9    H     H_    0.374990 0.415073 0.146968 0.113470
H10   H     H_    0.404567 0.430401 0.272423 0.147971
H11   H     H_    0.363415 0.303625 0.350182 0.187403
C39   C     C_R   0.669347 0.193077 0.195159 -0.002982
C40   C     C_R   0.689816 0.067765 0.213544 0.019932
C41   C     C_R   0.730014 0.026813 0.281331 0.001243
C42   C     C_R   0.657355 0.255297 0.314630 0.045962
C43   C     C_R   0.664769 0.280339 0.246053 -0.133281
C44   C     C_R   0.699402 0.974370 0.163621 0.172478
C45   C     C_R   0.784838 0.839881 0.175753 -0.087499
C46   C     C_R   0.856230 0.800407 0.235641 -0.128189
C47   C     C_R   0.826889 0.889359 0.290122 0.120547
C48   C     C_R   0.683511 0.129306 0.332911 0.030161
H12   H     H_    0.671020 0.365770 0.232551 0.127004
H13   H     H_    0.803210 0.765738 0.137400 0.152995
H14   H     H_    0.935938 0.698579 0.239600 0.134084
O14   O     O_R   0.821500 0.119340 0.952830 -0.516306
O15   O     O_R   0.037130 0.162530 0.957360 -0.489109
C49   C     C_R   0.081670 0.231554 0.928684 0.543737
O16   O     O_R   0.056440 0.344740 0.951340 -0.508448
O17   O     O_R   0.797900 0.560360 0.957470 -0.495779
C50   C     C_R   0.684507 0.603960 0.929465 0.550171
O18   O     O_R   0.596130 0.579390 0.952730 -0.495356
O19   O     O_R   0.639060 0.321160 0.958670 -0.493136
C51   C     C_R   0.709174 0.206955 0.930029 0.535100
O20   O     O_R   0.821240 0.124200 0.104370 -0.465618
O21   O     O_R   0.036890 0.167040 0.097840 -0.464052
C52   C     C_R   0.084297 0.234101 0.124435 0.537178
O22   O     O_R   0.056180 0.349610 0.102880 -0.540335
O23   O     O_R   0.797660 0.564870 0.097950 -0.515175
C53   C     C_R   0.709913 0.544313 0.132145 0.555102
O24   O     O_R   0.595880 0.584250 0.104270 -0.518291
O25   O     O_R   0.638830 0.325670 0.099150 -0.555650
C54   C     C_R   0.707143 0.212715 0.126913 0.546312
Cr4   Cr    Cr6+3 0.926180 0.151990 0.028120 1.051502
Cr5   Cr    Cr6+3 0.921330 0.451820 0.027470 1.006670
Cr6   Cr    Cr6+3 0.626260 0.446870 0.028710 1.007646
O26   O     O_3   0.824590 0.350230 0.028100 -0.277957
I1    I     I_    0.624518 0.402951 0.388557 -0.332784
N1    N     N_2   0.621064 0.016049 0.103171 -0.517845
H15   H     H_    0.551714 0.115476 0.099568 0.245350
C55   C     C_3   0.683251 0.949653 0.039021 -0.274717
H16   H     H_    0.618291 0.005891 0.995925 0.132176
H17   H     H_    0.695876 0.848700 0.037641 0.163202
H18   H     H_    0.781620 0.943442 0.031763 0.180560
I2    I     I_    0.977947 0.803380 0.366074 -0.361735
I3    I     I_    0.028224 0.005993 0.209818 -0.372974

loop_
_geom_bond_atom_site_label_1
_geom_bond_atom_site_label_2
_geom_bond_distance
_ccdc_geom_bond_type
C23   H3    1.083333 S    
C32   C33   1.379432 A    
O20   C54   1.271234 A    
O11   Cr3   2.053500 S    
O15   Cr4   1.920241 S    
C11   C13   1.201068 T    
C24   C25   1.385731 A    
C29   C52   1.467940 S    
O25   C54   1.275626 A    
C55   H17   1.109688 S    
C49   O16   1.274442 A    
C52   O22   1.289732 A    
O23   Cr5   1.929219 S    
C34   H8    1.081808 S    
O4    Cr2   1.929551 S    
C31   C37   1.411279 A    
C30   C31   1.414330 A    
C41   C48   1.436072 A    
O8    Cr1   1.919332 S    
C36   H10   1.072326 S    
C53   O24   1.289464 A    
C12   C13   1.404922 S    
C20   C21   1.381698 A    
C8    C10   1.203041 T    
O4    C2    1.275716 A    
O25   Cr6   1.931142 S    
C41   C47   1.434893 A    
C5    O11   1.273248 A    
C46   C47   1.396904 A    
C21   C28   1.417759 A    
C19   C53   1.454994 S    
O17   C50   1.278708 A    
O6    C3    1.282044 A    
O17   Cr5   1.943204 S    
C46   H14   1.081730 S    
C15   C17   1.206356 T    
C40   C44   1.419529 A    
O20   Cr4   2.037071 S    
C22   C28   1.400375 A    
C39   C40   1.405541 A    
C36   C37   1.382408 A    
Cr3   O13   1.994104 S    
O16   Cr5   2.044695 S    
C42   C43   1.384688 A    
O14   C51   1.273442 A    
C55   H16   1.111171 S    
O6    Cr3   1.933527 S    
O1    Cr1   2.037265 S    
C15   C51   1.434861 S    
C7    C50   1.429184 S    
C40   C41   1.415440 A    
O10   Cr2   1.950833 S    
C19   C23   1.395067 A    
Cr1   O13   1.998352 S    
O1    C3    1.275346 A    
C8    C9    1.408062 S    
C45   C46   1.385084 A    
C22   C23   1.389548 A    
C30   C34   1.411855 A    
O19   C51   1.280716 A    
C26   H5    1.071336 S    
C1    C18   1.435182 S    
C35   C36   1.385068 A    
O5    Cr3   2.058425 S    
O12   Cr3   1.940276 S    
O21   Cr4   1.950401 S    
C16   C18   1.206437 T    
H1    C22   1.082264 S    
C26   C27   1.377409 A    
C21   C27   1.407387 A    
C45   H13   1.076626 S    
O18   Cr6   2.051496 S    
Cr6   O26   1.986193 S    
C11   C49   1.426019 S    
O7    Cr1   2.066708 S    
C24   H2    1.072693 S    
O12   C6    1.327481 A    
C2    C10   1.429391 S    
C25   H4    1.082252 S    
C50   O18   1.270906 A    
N1    C55   1.448630 S    
O19   Cr6   1.949502 S    
C3    C14   1.425998 S    
C44   N1    1.432048 S    
Cr2   O13   1.986728 S    
C37   H11   1.065047 S    
Cr5   O26   1.994353 S    
C43   H12   1.066925 S    
C25   C26   1.371798 A    
C5    C28   1.448949 S    
C1    O3    1.273321 A    
C33   I3    2.105170 S    
Cr4   O26   1.998143 S    
C29   C30   1.402916 A    
C39   C54   1.453293 S    
C27   H6    1.055581 S    
C35   H9    1.078401 S    
C19   C20   1.422280 A    
O9    Cr2   2.043991 S    
O2    Cr1   1.949578 S    
O14   Cr4   2.070636 S    
O15   C49   1.279319 A    
O8    C4    1.304701 A    
C6    C38   1.470944 S    
C2    O5    1.271675 A    
C31   C38   1.427753 A    
C42   I1    2.121102 S    
C16   C17   1.413519 S    
C12   C14   1.201057 T    
O2    C1    1.279859 A    
C44   C45   1.394848 A    
C34   C35   1.379493 A    
C39   C43   1.400621 A    
O24   Cr6   2.065841 S    
O7    C6    1.279145 A    
C32   C38   1.386637 A    
O23   C53   1.326923 A    
C42   C48   1.390983 A    
H7    C32   1.083056 S    
C7    C9    1.202981 T    
O22   Cr5   2.061335 S    
C20   C24   1.425726 A    
N1    H15   1.030130 S    
C47   I2    2.144759 S    
O3    Cr2   2.070679 S    
C4    O9    1.240404 A    
C4    C48   1.460293 S    
O10   C5    1.299894 A    
O21   C52   1.270626 A    
C55   H18   1.110620 S    
C29   C33   1.413683 A    
