data_mof_unit_26340.cif
_audit_creation_date              2012-12-10T16:51:33-0500
_audit_creation_method            fapswitch 2.2
_symmetry_space_group_name_H-M    P1
_symmetry_Int_Tables_number       1
_space_group_crystal_system       triclinic
_cell_length_a                    7.837168
_cell_length_b                    8.591184
_cell_length_c                    12.456613
_cell_angle_alpha                 92.623373
_cell_angle_beta                  103.387792
_cell_angle_gamma                 93.63489
_cell_volume                      812.697579393

loop_
_atom_site_label
_atom_site_type_symbol
_atom_type_description
_atom_site_fract_x
_atom_site_fract_y
_atom_site_fract_z
_atom_type_partial_charge
C1    C     C_R   0.040906 0.793799 0.492728 0.981375
C2    C     C_R   0.193406 0.620644 0.816112 -0.137992
C3    C     C_2   0.060595 0.957279 0.490845 -0.481549
C4    C     C_R   0.115676 0.543334 0.705010 0.868285
C5    C     C_2   0.920033 0.042455 0.480644 0.208166
C6    C     C_R   0.953326 0.205589 0.497782 0.906506
C7    C     C_R   0.888737 0.488972 0.290954 0.874591
C8    C     C_R   0.865201 0.458125 0.988513 -0.175780
C9    C     C_R   0.825887 0.494586 0.172962 -0.067218
C10   C     C_R   0.089668 0.695617 0.876464 -0.264689
C11   C     C_R   0.160183 0.748392 0.986161 -0.156355
C12   C     C_R   0.438512 0.640204 0.978257 0.021046
C13   C     C_R   0.331236 0.715177 0.040472 0.180255
C14   C     C_3   0.389673 0.269900 0.321457 -0.646577
C15   C     C_3   0.307171 0.736204 0.231567 -0.705262
C16   C     C_R   0.375538 0.623674 0.862762 0.066045
C17   C     C_R   0.604678 0.580181 0.021949 0.079263
C18   C     C_R   0.708682 0.528913 0.949152 0.164447
C19   C     C_R   0.656364 0.551834 0.837696 -0.283820
C20   C     C_R   0.497605 0.611394 0.797220 -0.164218
C21   C     C_R   0.663648 0.555228 0.133209 -0.240895
C22   C     C_R   0.926145 0.444446 0.100772 -0.209088
Cl1   Cl    Cl    0.695077 0.971260 0.435975 -0.673082
H1    H     H_    0.050093 0.393824 0.130886 0.151601
H2    H     H_    0.464228 0.228974 0.487174 0.253219
H3    H     H_    0.440839 0.161122 0.294227 0.236847
H4    H     H_    0.413685 0.362577 0.266387 0.209971
H5    H     H_    0.246306 0.247672 0.314070 0.229225
H6    H     H_    0.431908 0.900548 0.152466 0.241603
H7    H     H_    0.387439 0.773555 0.315409 0.287561
H8    H     H_    0.281557 0.607405 0.227055 0.243151
H9    H     H_    0.180768 0.792191 0.219197 0.222360
H10   H     H_    0.530227 0.649101 0.555373 0.176391
H11   H     H_    0.736099 0.521659 0.781371 0.189134
H12   H     H_    0.941941 0.416160 0.932636 0.153398
H13   H     H_    0.582992 0.577697 0.190064 0.207568
H14   H     H_    0.956225 0.718109 0.837999 0.174933
H15   H     H_    0.079601 0.812876 0.029440 0.158408
H16   H     H_    0.469646 0.646584 0.714049 0.164556
H17   H     H_    0.195184 0.009191 0.508600 0.165276
N1    N     N_2   0.434800 0.456690 0.470850 -0.014876
N2    N     N_2   0.565200 0.543310 0.529150 -0.134784
N3    N     N_2   0.479283 0.315149 0.434434 -0.147867
N4    N     N_2   0.402269 0.781558 0.149730 -0.329232
O1    O     O_R   0.893060 0.738880 0.507150 -0.553130
O2    O     O_R   0.172250 0.711130 0.488470 -0.646932
O3    O     O_R   0.944700 0.520730 0.667600 -0.638602
O4    O     O_R   0.223890 0.492980 0.648920 -0.622616
O5    O     O_R   0.827750 0.288870 0.511530 -0.566090
O6    O     O_R   0.106940 0.261120 0.492850 -0.649125
O7    O     O_R   0.776110 0.507020 0.351080 -0.592203
O8    O     O_R   0.055300 0.479270 0.332400 -0.637698
Zn1   Zn    Zn3+2 0.813580 0.518530 0.512470 0.995301
Zn2   Zn    Zn3+2 0.186420 0.481470 0.487530 0.929198

loop_
_geom_bond_atom_site_label_1
_geom_bond_atom_site_label_2
_ccdc_geom_bond_type
C12   C17   A    
C15   N4    S    
C11   H15   S    
C8    C22   A    
C15   H8    S    
C14   H4    S    
C11   C13   A    
N1    N2    D    
C8    H12   S    
C2    C4    S    
C19   C20   A    
C5    Cl1   S    
C16   C20   A    
O3    Zn1   S    
C1    O1    A    
O2    Zn2   S    
C14   H5    S    
C8    C18   A    
C17   C18   A    
O1    Zn1   S    
C15   H9    S    
N2    Zn1   S    
C21   H13   S    
C14   H3    S    
O4    Zn2   S    
N1    N3    S    
C9    C21   A    
O6    Zn2   S    
C10   H14   S    
O5    Zn1   S    
H10   N2    S    
H2    N3    S    
O8    Zn2   S    
C7    O8    A    
H6    N4    S    
C5    C6    S    
N1    Zn2   S    
C22   H1    S    
C1    O2    A    
C10   C11   A    
O7    Zn1   S    
C7    O7    A    
C2    C10   A    
C2    C16   A    
C12   C13   A    
C15   H7    S    
C18   C19   A    
C4    O4    A    
C7    C9    S    
C20   H16   S    
C9    C22   A    
C3    C5    D    
C3    H17   S    
C19   H11   S    
C13   N4    S    
C6    O6    A    
C6    O5    A    
C12   C16   A    
C14   N3    S    
C1    C3    S    
C4    O3    A    
C17   C21   A    
