data_mof_unit_61475.cif
_audit_creation_date              2012-10-26T18:13:53-0400
_audit_creation_method            fapswitch 2.2
_symmetry_space_group_name_H-M    P1
_symmetry_Int_Tables_number       1
_space_group_crystal_system       triclinic
_cell_length_a                    21.725872
_cell_length_b                    21.707456
_cell_length_c                    22.108865
_cell_angle_alpha                 60.632937
_cell_angle_beta                  118.918621
_cell_angle_gamma                 89.53943
_cell_volume                      7531.83667848

loop_
_atom_site_label
_atom_site_type_symbol
_atom_type_description
_atom_site_fract_x
_atom_site_fract_y
_atom_site_fract_z
_atom_type_partial_charge
C1    C     C_R   0.621005 0.498289 0.502589 0.534148
C2    C     C_3   0.799198 0.427496 0.521011 -0.256403
C3    C     C_3   0.671172 0.566310 0.419913 -0.244287
C4    C     C_R   0.419977 0.580101 0.340089 0.558543
C5    C     C_3   0.748666 0.503864 0.575707 -0.223689
C6    C     C_3   0.690591 0.497168 0.504368 -0.025069
C7    C     C_3   0.811100 0.504130 0.501783 -0.046811
C8    C     C_3   0.738021 0.563997 0.412223 -0.084037
C9    C     C_3   0.818184 0.514941 0.571642 0.042410
C10   C     C_3   0.713483 0.211872 0.028235 0.053895
C11   C     C_3   0.688132 0.298039 0.971473 -0.116304
C12   C     C_3   0.292266 0.708407 0.083509 0.004148
C13   C     C_1   0.624918 0.374762 0.749756 0.058760
C14   C     C_1   0.875782 0.127863 0.250350 0.083778
C15   C     C_3   0.733638 0.205901 0.972648 -0.121016
C16   C     C_R   0.380958 0.499626 0.500984 0.609260
C17   C     C_3   0.709534 0.291989 0.916936 0.029566
C18   C     C_3   0.813135 0.204616 0.027998 0.031242
C19   C     C_3   0.792617 0.210007 0.083171 -0.004123
C20   C     C_3   0.788648 0.290353 0.971462 0.010510
C21   C     C_3   0.768360 0.296114 0.027070 -0.162950
C22   C     C_1   0.662945 0.337230 0.825181 0.044252
C23   C     C_3   0.185172 0.737903 0.973008 -0.021929
C24   C     C_1   0.838327 0.165466 0.174945 0.064546
C25   C     C_3   0.263785 0.468531 0.451880 -0.237939
C26   C     C_3   0.198883 0.455930 0.462746 -0.087963
C27   C     C_3   0.335251 0.446616 0.596690 0.001845
C28   C     C_R   0.579936 0.419865 0.660000 0.583622
C29   C     C_3   0.266100 0.581262 0.460202 -0.124460
C30   C     C_3   0.313430 0.499091 0.503029 -0.021112
C31   C     C_3   0.188792 0.500674 0.497993 -0.050262
C32   C     C_3   0.260284 0.458622 0.592037 -0.154154
C33   C     C_3   0.187993 0.583553 0.445889 -0.073943
C34   C     C_3   0.208103 0.792557 0.916365 0.030775
C35   C     C_R   0.998911 0.881937 0.497060 0.584931
C36   C     C_R   0.079780 0.920344 0.659856 0.558289
C37   C     C_R   0.000262 0.119394 0.500672 0.532859
C38   C     C_R   0.920217 0.081710 0.340091 0.595493
C39   C     C_R   0.997862 0.379491 0.500387 0.526663
C40   C     C_3   0.284687 0.733059 0.971393 -0.047701
C41   C     C_R   0.879759 0.503332 0.500285 0.576772
C42   C     C_R   0.001148 0.620864 0.499086 0.577161
C43   C     C_R   0.120213 0.499813 0.499505 0.531697
C44   C     C_3   0.055575 0.800363 0.472865 -0.065978
C45   C     C_3   0.215470 0.767924 0.029134 -0.158025
C46   C     C_3   0.063099 0.723922 0.480137 -0.066224
C47   C     C_3   0.023022 0.746057 0.582169 -0.131407
C48   C     C_3   0.918039 0.821165 0.431238 -0.106799
C49   C     C_3   0.998844 0.815117 0.493717 -0.066088
C50   C     C_3   0.002022 0.692239 0.494932 -0.053532
C51   C     C_3   0.021366 0.675458 0.581059 -0.275750
C52   C     C_3   0.315601 0.762888 0.027304 -0.034181
C53   C     C_3   0.921421 0.752648 0.425246 -0.125932
C54   C     C_3   0.067666 0.212919 0.502593 -0.213674
C55   C     C_3   0.067159 0.284456 0.502554 -0.130623
C56   C     C_3   0.238954 0.822300 0.972218 0.030712
C57   C     C_3   0.925948 0.253195 0.422017 -0.097651
C58   C     C_3   0.005657 0.172308 0.579896 -0.239892
C59   C     C_3   0.999805 0.188435 0.500430 -0.028773
C60   C     C_3   0.998858 0.309609 0.501648 -0.022551
C61   C     C_3   0.927808 0.325255 0.420525 -0.244197
C62   C     C_3   0.004088 0.243455 0.580756 -0.044366
C63   C     C_1   0.375175 0.625186 0.250498 0.080200
C64   C     C_1   0.124275 0.876043 0.749388 0.090037
C65   C     C_3   0.261657 0.678279 0.028077 0.020006
C66   C     C_2   0.387966 0.778648 0.054894 0.271585
C67   C     C_1   0.337657 0.662861 0.175168 0.086439
C68   C     C_2   0.887809 0.458591 0.660561 0.604495
C69   C     C_2   0.821794 0.593303 0.548146 0.610758
C70   C     C_2   0.737690 0.642907 0.361630 0.613949
C71   C     C_2   0.325399 0.711690 0.942314 0.264776
C72   C     C_2   0.669597 0.168376 0.057959 0.599764
C73   C     C_2   0.832831 0.333711 0.942173 0.285984
C74   C     C_2   0.882186 0.152808 0.057502 0.581116
C75   C     C_2   0.131344 0.465539 0.385848 0.616980
C76   C     C_2   0.371379 0.364571 0.633831 0.514451
C77   C     C_2   0.227045 0.902507 0.943240 0.593174
C78   C     C_1   0.161947 0.838521 0.824684 0.115233
C79   C     C_2   0.263789 0.641038 0.383190 0.276591
C80   C     C_2   0.124280 0.635266 0.353007 0.653925
C81   C     C_2   0.394950 0.460756 0.658744 0.305121
C82   C     C_2   0.259368 0.493449 0.637279 0.189019
C83   C     C_2   0.045477 0.867422 0.393699 0.592603
C84   C     C_2   0.061819 0.733255 0.406376 0.230868
C85   C     C_2   0.140477 0.668763 0.554287 0.238341
C86   C     C_2   0.095634 0.733953 0.656295 0.579038
C87   C     C_2   0.867640 0.896091 0.347558 0.599155
C88   C     C_2   0.890706 0.776228 0.336243 0.366543
C89   C     C_3   0.725259 0.425608 0.515338 -0.102540
C90   C     C_2   0.112834 0.722212 0.945726 0.286456
C91   C     C_2   0.140083 0.277122 0.572556 0.242842
C92   C     C_2   0.910107 0.267338 0.340922 0.209387
C93   C     C_2   0.943581 0.261993 0.590739 0.552266
C94   C     C_2   0.273132 0.598023 0.057185 0.572986
C95   C     C_2   0.735076 0.352011 0.587176 0.254346
Cu1   Cu    Cu3+1 0.500030 0.437550 0.499970 1.026766
Cu2   Cu    Cu3+1 0.499970 0.562450 0.500030 1.080782
Cu3   Cu    Cu3+1 0.062480 0.999860 0.500010 1.102497
Cu4   Cu    Cu3+1 0.937520 0.999990 0.499990 1.075889
Cu5   Cu    Cu3+1 0.041430 0.458600 0.582880 1.049671
Cu6   Cu    Cu3+1 0.958570 0.541400 0.417120 1.169917
H1    H     H_    0.796952 0.418379 0.474681 0.104989
H2    H     H_    0.295887 0.414602 0.471674 0.160523
H3    H     H_    0.243721 0.508135 0.385395 0.230388
H4    H     H_    0.216245 0.395770 0.511769 0.125682
H5    H     H_    0.255807 0.403021 0.627889 0.150866
H6    H     H_    0.294955 0.596812 0.505314 0.191568
H7    H     H_    0.180170 0.611579 0.473425 0.136491
H8    H     H_    0.109808 0.794375 0.523127 0.210298
H9    H     H_    0.186876 0.782333 0.052882 0.158606
H10   H     H_    0.074472 0.629325 0.634734 0.169432
H11   H     H_    0.887505 0.814746 0.461451 0.114162
H12   H     H_    0.622831 0.568335 0.366737 0.142764
H13   H     H_    0.883050 0.726051 0.440785 0.205915
H14   H     H_    0.980550 0.755958 0.593781 0.151754
H15   H     H_    0.979184 0.654850 0.592541 0.198405
H16   H     H_    0.066671 0.223922 0.447353 0.117702
H17   H     H_    0.119478 0.165758 0.558162 0.205314
H18   H     H_    0.060075 0.328322 0.443261 0.154129
H19   H     H_    0.926518 0.369409 0.364914 0.143454
H20   H     H_    0.960019 0.151157 0.582920 0.176145
H21   H     H_    0.058395 0.126767 0.636801 0.134301
H22   H     H_    0.057935 0.230101 0.637345 0.168462
H23   H     H_    0.727143 0.543831 0.371455 0.123404
H24   H     H_    0.879414 0.237080 0.427568 0.203219
H25   H     H_    0.876932 0.348477 0.412990 0.171726
H26   H     H_    0.685770 0.428202 0.457494 0.103042
H27   H     H_    0.847240 0.380530 0.582088 0.240093
H28   H     H_    0.396937 0.818870 0.008311 0.135608
H29   H     H_    0.983249 0.440547 0.761617 0.353982
H30   H     H_    0.773025 0.697939 0.506099 0.357285
H31   H     H_    0.679319 0.745234 0.253437 0.377900
H32   H     H_    0.379319 0.668758 0.988067 0.134333
H33   H     H_    0.665688 0.092915 0.155646 0.368152
H34   H     H_    0.722647 0.549133 0.574270 0.183562
H35   H     H_    0.888296 0.327490 0.987794 0.120910
H36   H     H_    0.979810 0.070931 0.154968 0.355390
H37   H     H_    0.081684 0.494069 0.267226 0.356043
H38   H     H_    0.462093 0.286564 0.680342 0.357549
H39   H     H_    0.180927 0.010734 0.846222 0.358297
H40   H     H_    0.276056 0.690907 0.378754 0.149977
H41   H     H_    0.072041 0.740964 0.249418 0.369082
H42   H     H_    0.417812 0.422254 0.725032 0.128359
H43   H     H_    0.244207 0.467207 0.682059 0.141959
H44   H     H_    0.989074 0.932674 0.267663 0.366844
H45   H     H_    0.764017 0.453530 0.636521 0.193966
H46   H     H_    0.100610 0.757672 0.392660 0.188929
H47   H     H_    0.148145 0.610499 0.595128 0.144341
H48   H     H_    0.145242 0.733839 0.760581 0.373663
H49   H     H_    0.854679 0.999836 0.262079 0.356558
H50   H     H_    0.912215 0.811360 0.301834 0.203524
H51   H     H_    0.103713 0.682588 0.992467 0.128888
H52   H     H_    0.151299 0.327241 0.568089 0.138917
H53   H     H_    0.947000 0.286591 0.321018 0.113708
H54   H     H_    0.836173 0.277779 0.552615 0.339918
H55   H     H_    0.319174 0.489886 0.154268 0.355119
H56   H     H_    0.654057 0.617906 0.415098 0.198910
H57   H     H_    0.701343 0.318196 0.573608 0.123039
H58   H     H_    0.636058 0.336481 0.947725 0.153247
H59   H     H_    0.782964 0.332999 0.049610 0.147893
H60   H     H_    0.719193 0.168937 0.950191 0.156282
O1    O     O_R   0.591180 0.447260 0.499980 -0.528548
O2    O     O_R   0.965090 0.443800 0.430050 -0.499424
O3    O     O_R   0.943830 0.465050 0.569970 -0.470415
O4    O     O_R   0.591140 0.552730 0.500040 -0.512696
O5    O     O_R   0.873850 0.534970 0.430000 -0.497977
O6    O     O_R   0.034910 0.556200 0.569950 -0.527418
O7    O     O_R   0.964930 0.626120 0.429980 -0.417766
O8    O     O_R   0.126150 0.465040 0.570000 -0.567100
O9    O     O_R   0.056170 0.534950 0.430030 -0.417324
O10   O     O_R   0.439570 0.507730 0.379050 -0.502294
O11   O     O_R   0.439520 0.613200 0.379110 -0.497702
O12   O     O_R   0.947190 0.908860 0.499960 -0.506035
O13   O     O_R   0.408860 0.447270 0.499960 -0.491404
O14   O     O_R   0.408820 0.552740 0.500020 -0.478838
O15   O     O_R   0.560480 0.386800 0.620890 -0.484179
O16   O     O_R   0.560430 0.492270 0.620950 -0.479788
O17   O     O_R   0.052720 0.908740 0.499970 -0.472930
O18   O     O_2   0.436795 0.746687 0.129136 -0.459829
O19   O     O_2   0.896830 0.391668 0.695676 -0.443456
O20   O     O_R   0.940665 0.483135 0.703804 -0.636342
O21   O     O_2   0.876928 0.608464 0.551694 -0.500305
O22   O     O_R   0.762853 0.648755 0.520557 -0.701264
O23   O     O_R   0.113220 0.939420 0.620930 -0.494011
O24   O     O_2   0.792155 0.661800 0.387845 -0.445671
O25   O     O_R   0.673671 0.694346 0.282173 -0.656520
O26   O     O_2   0.298471 0.742047 0.867787 -0.462826
O27   O     O_2   0.606628 0.176101 0.006778 -0.477395
O28   O     O_R   0.700693 0.119172 0.143632 -0.678175
O29   O     O_2   0.807095 0.375799 0.867603 -0.456688
O30   O     O_2   0.890992 0.154538 0.006190 -0.456616
O31   O     O_R   0.935920 0.102842 0.143125 -0.690515
O32   O     O_2   0.079223 0.447582 0.388537 -0.531949
O33   O     O_R   0.129426 0.491347 0.312971 -0.657430
O34   O     O_R   0.007690 0.939530 0.620920 -0.492348
O35   O     O_2   0.339123 0.318434 0.646196 -0.512174
O36   O     O_R   0.443712 0.341506 0.656128 -0.674136
O37   O     O_2   0.254398 0.917976 0.994897 -0.460234
O38   O     O_R   0.184900 0.959061 0.857716 -0.697602
O39   O     O_2   0.246864 0.635064 0.325452 -0.493433
O40   O     O_2   0.081166 0.612384 0.315078 -0.425451
O41   O     O_R   0.115429 0.711605 0.310290 -0.682116
O42   O     O_2   0.417130 0.514034 0.637181 -0.460413
O43   O     O_2   0.275618 0.550210 0.624817 -0.455414
O44   O     O_2   0.090726 0.901058 0.400469 -0.459060
O45   O     O_R   0.052810 0.090990 0.500040 -0.529061
O46   O     O_R   0.988056 0.888455 0.313942 -0.692067
O47   O     O_2   0.021302 0.712978 0.363382 -0.485961
O48   O     O_2   0.195706 0.688021 0.565973 -0.415693
O49   O     O_2   0.155304 0.712456 0.668750 -0.457609
O50   O     O_R   0.093805 0.745261 0.712525 -0.657856
O51   O     O_2   0.801861 0.904412 0.303824 -0.469047
O52   O     O_R   0.893943 0.955735 0.320814 -0.656620
O53   O     O_2   0.838323 0.759210 0.300078 -0.423621
O54   O     O_2   0.064200 0.753440 0.871537 -0.449578
O55   O     O_2   0.186007 0.216528 0.634479 -0.473441
O56   O     O_R   0.947280 0.091100 0.500030 -0.509250
O57   O     O_2   0.855411 0.257684 0.296830 -0.493359
O58   O     O_2   0.959548 0.268096 0.648276 -0.464750
O59   O     O_R   0.870403 0.269162 0.536710 -0.731633
O60   O     O_2   0.245135 0.582485 0.005615 -0.464695
O61   O     O_R   0.315591 0.541555 0.142718 -0.690417
O62   O     O_2   0.779872 0.329721 0.660054 -0.427738
O63   O     O_R   0.992310 0.060320 0.379080 -0.484489
O64   O     O_R   0.886780 0.060430 0.379070 -0.474123
O65   O     O_R   0.035070 0.373890 0.570020 -0.508250

loop_
_geom_bond_atom_site_label_1
_geom_bond_atom_site_label_2
_ccdc_geom_bond_type
C44   C49   S    
C58   C62   S    
C15   C18   S    
C34   C56   S    
C23   C45   S    
C4    O10   A    
Cu4   O34   S    
Cu6   O7    S    
C95   H57   S    
C37   O45   A    
C2    C7    S    
C85   H47   S    
C37   O56   A    
C3    C6    S    
C43   O8    A    
C11   H58   S    
C7    C8    S    
C47   C49   S    
C55   H18   S    
C53   H13   S    
C47   H14   S    
C4    C63   S    
C29   C30   S    
Cu2   O11   S    
C88   O53   D    
C93   O59   S    
Cu2   O14   S    
H41   O41   S    
H33   O28   S    
C60   C62   S    
C57   C92   S    
H39   O38   S    
C9    C69   S    
C91   H52   S    
C76   O36   S    
C57   H24   S    
C5    C6    S    
C57   C59   S    
C2    H1    S    
C16   C30   S    
C25   H3    S    
C29   C33   S    
C17   C20   S    
H55   O61   S    
C18   C19   S    
C87   O51   D    
H49   O52   S    
C14   C24   T    
C57   C61   S    
C72   O27   D    
C39   O65   A    
C55   C91   S    
C76   O35   D    
C70   O24   D    
H30   O22   S    
C80   O41   S    
Cu4   O56   S    
C45   C56   S    
C42   O7    A    
C58   H20   S    
Cu1   O10   S    
Cu3   O63   S    
C35   C49   S    
C94   O60   D    
C83   O46   S    
C31   C33   S    
C13   C28   S    
C61   H25   S    
C36   O23   A    
C17   C22   S    
C48   C87   S    
Cu3   O17   S    
C4    O11   A    
C28   O16   A    
C73   O29   D    
C69   O21   D    
C46   C85   S    
C44   H8    S    
C44   C83   S    
C35   O17   A    
Cu5   O8    S    
C26   C31   S    
C18   C74   S    
C32   H5    S    
C55   C60   S    
C41   O5    A    
C27   C30   S    
C33   H7    S    
C26   H4    S    
C62   H22   S    
C12   C52   S    
C43   O9    A    
C44   C46   S    
C50   C51   S    
C54   C59   S    
H37   O33   S    
C48   C53   S    
C12   C67   S    
C63   C67   T    
C68   O20   S    
C58   H21   S    
C50   C53   S    
C1    C6    S    
C35   O12   A    
C47   C86   S    
C86   O49   D    
C27   C81   S    
C86   O50   S    
C82   H43   S    
C3    C8    S    
C3    H12   S    
H31   O25   S    
C70   O25   S    
C45   H9    S    
C8    H23   S    
C47   C51   S    
C25   C26   S    
C40   C52   S    
C68   O19   D    
C95   O62   D    
C56   C77   S    
C60   C61   S    
C89   C95   S    
C2    C89   S    
Cu5   O65   S    
C5    C9    S    
C91   O55   D    
C14   C38   S    
H36   O31   S    
C11   C21   S    
C84   O47   D    
C12   C65   S    
Cu2   O16   S    
C31   C32   S    
Cu4   O12   S    
C73   H35   S    
C1    O4    A    
C10   C19   S    
C29   C79   S    
Cu1   Cu2   S    
C26   C75   S    
C87   O52   S    
C23   C90   S    
H54   O59   S    
Cu5   O3    S    
C37   C59   S    
C5    H45   S    
C92   O57   D    
C77   O38   S    
Cu4   O64   S    
C40   C71   S    
C31   C43   S    
C69   O22   S    
C38   O64   A    
C74   O31   S    
C75   O32   D    
C16   O14   A    
C90   H51   S    
C48   C49   S    
C48   H11   S    
C42   C50   S    
C1    O1    A    
C38   O63   A    
C40   C65   S    
Cu5   O6    S    
C88   H50   S    
C34   C40   S    
C81   O42   D    
C41   O3    A    
C39   O2    A    
C27   C76   S    
C20   C73   S    
C72   O28   S    
H44   O46   S    
C52   C66   S    
C42   O6    A    
C94   O61   S    
C89   H26   S    
C84   H46   S    
C16   O13   A    
C25   C30   S    
C5    H34   S    
C80   O40   D    
C54   C55   S    
C11   C17   S    
C23   C34   S    
C51   H10   S    
C79   O39   D    
Cu1   O15   S    
C19   C21   S    
C27   C32   S    
C64   C78   T    
C15   H60   S    
C28   O15   A    
H48   O50   S    
C77   O37   D    
C71   O26   D    
C12   C45   S    
H29   O20   S    
C85   O48   D    
C71   H32   S    
H38   O36   S    
C33   C80   S    
Cu6   O9    S    
C6    C89   S    
C32   C82   S    
C66   O18   D    
C46   C50   S    
C8    C70   S    
C51   H15   S    
C93   O58   D    
C10   C15   S    
C66   H28   S    
C54   H17   S    
C19   C24   S    
C58   C59   S    
C36   O34   A    
C83   O44   D    
C36   C64   S    
C34   C78   S    
C82   O43   D    
C23   C65   S    
C79   H40   S    
C90   O54   D    
Cu2   O4    S    
C39   C60   S    
Cu6   O2    S    
Cu5   Cu6   S    
C65   C94   S    
Cu1   O1    S    
C13   C22   T    
C46   C84   S    
C53   C88   S    
C18   C20   S    
C7    C41   S    
Cu3   O23   S    
Cu6   O5    S    
C25   H2    S    
C9    C68   S    
C10   C11   S    
Cu1   O13   S    
C74   O30   D    
C75   O33   S    
C7    C9    S    
C81   H42   S    
C20   C21   S    
Cu3   Cu4   S    
C54   H16   S    
C62   C93   S    
Cu3   O45   S    
C3    H56   S    
C29   H6    S    
C92   H53   S    
C15   C17   S    
C21   H59   S    
C52   C56   S    
C2    H27   S    
C61   H19   S    
C10   C72   S    
