data_mof_unit_21703.cif
_audit_creation_date              2013-03-05T16:41:34-0500
_audit_creation_method            fapswitch 2.2
_symmetry_space_group_name_H-M    P1
_symmetry_Int_Tables_number       1
_space_group_crystal_system       triclinic
_cell_length_a                    12.819644
_cell_length_b                    10.689057
_cell_length_c                    9.867982
_cell_angle_alpha                 89.707363
_cell_angle_beta                  96.843919
_cell_angle_gamma                 91.399993
_cell_volume                      1342.16936548

loop_
_atom_site_label
_atom_site_type_symbol
_atom_site_description
_atom_site_fract_x
_atom_site_fract_y
_atom_site_fract_z
_atom_type_partial_charge
O1    O     O_R   0.500010 0.316790 0.614690 -0.620124
O2    O     O_R   0.500000 0.316760 0.385350 -0.590002
C1    C     C_R   0.510573 0.261102 0.502461 0.926221
O3    O     O_R   0.346360 0.499990 0.595720 -0.595382
O4    O     O_R   0.346350 0.499960 0.366370 -0.621244
C2    C     C_R   0.299450 0.516896 0.474187 0.927634
Zn1   Zn    Zn3+2 0.500010 0.500020 0.653130 0.972153
Zn2   Zn    Zn3+2 0.499990 0.499980 0.346870 0.990388
O5    O     O_R   0.500000 0.683240 0.614650 -0.624878
O6    O     O_R   0.499990 0.683210 0.385310 -0.630079
O7    O     O_R   0.653650 0.500040 0.633630 -0.634241
O8    O     O_R   0.653640 0.500010 0.404280 -0.605831
C3    C     C_R   0.502839 0.739978 0.500138 0.867977
C4    C     C_R   0.702184 0.503987 0.526402 0.912177
C5    C     C_R   0.814410 0.524100 0.542173 -0.035112
C6    C     C_R   0.189523 0.553696 0.460788 -0.125575
C7    C     C_R   0.023903 0.579601 0.318939 0.049146
C8    C     C_R   0.133451 0.576780 0.331816 0.061308
C9    C     C_R   0.139632 0.569452 0.579342 -0.000638
C10   C     C_R   0.030268 0.564388 0.567895 0.111228
C11   C     C_R   0.972351 0.562177 0.436373 0.080214
C12   C     C_R   0.864457 0.542722 0.425466 -0.220640
C13   C     C_R   0.870542 0.533476 0.671972 -0.188083
C14   C     C_R   0.977779 0.555432 0.685026 -0.188929
H1    H     H_    0.818959 0.539608 0.325937 0.158411
H2    H     H_    0.831874 0.523254 0.763374 0.158230
H3    H     H_    0.018585 0.560385 0.787312 0.135366
C15   C     C_R   0.487253 0.064395 0.615422 0.014022
C16   C     C_R   0.527904 0.129532 0.509632 -0.146959
C17   C     C_R   0.575981 0.064876 0.409781 -0.051424
C18   C     C_R   0.560581 0.935636 0.401918 -0.269401
H4    H     H_    0.593793 0.883058 0.324446 0.196441
C19   C     C_R   0.510368 0.872393 0.501291 -0.075851
C20   C     C_R   0.478644 0.935999 0.610881 0.117227
C21   C     C_3   0.520683 0.919446 0.757623 -0.500825
C22   C     C_3   0.532823 0.060046 0.763724 -0.210109
H5    H     H_    0.459336 0.881874 0.818584 0.201105
H6    H     H_    0.595716 0.868106 0.772192 0.223457
H7    H     H_    0.480621 0.099712 0.832887 0.160229
C23   C     C_R   0.412566 0.459266 0.057125 0.097107
N1    N     N_R   0.499290 0.499140 0.142710 -0.103586
C24   C     C_R   0.582503 0.549345 0.084429 -0.056484
H8    H     H_    0.649837 0.587633 0.148627 0.128041
C25   C     C_R   0.582749 0.548711 0.940637 -0.080890
H9    H     H_    0.650440 0.585953 0.896773 0.129979
N2    N     N_R   0.499290 0.499180 0.857070 -0.089707
C26   C     C_R   0.411859 0.463451 0.914081 0.190218
C27   C     C_3   0.356875 0.340863 0.889601 -0.525188
C28   C     C_3   0.361938 0.328955 0.044200 -0.016165
H10   H     H_    0.276661 0.349311 0.835023 0.192873
H11   H     H_    0.405069 0.275438 0.839310 0.209677
C29   C     C_2   0.645145 0.108758 0.791004 1.000739
O9    O     O_2   0.714084 0.064539 0.731371 -0.634168
O10   O     O_R   0.669274 0.206795 0.883332 -0.757660
H12   H     H_    0.746338 0.232934 0.892433 0.331809
N3    N     N_3   0.257189 0.320203 0.089392 -0.418609
H13   H     H_    0.263387 0.342725 0.192909 0.224749
H14   H     H_    0.207525 0.384233 0.035926 0.167313
C30   C     C_2   0.430013 0.222572 0.097950 0.983382
O11   O     O_2   0.523199 0.224131 0.082699 -0.592497
O12   O     O_R   0.384698 0.118762 0.157242 -0.798228
H15   H     H_    0.435289 0.047725 0.175613 0.338027
N4    N     N_3   0.967244 0.597324 0.185889 -0.482629
H16   H     H_    0.922582 0.516336 0.158257 0.188121
H17   H     H_    0.917268 0.672774 0.189549 0.192841
N5    N     N_3   0.187947 0.604279 0.215996 -0.428667
H18   H     H_    0.174472 0.697687 0.188745 0.205445
H19   H     H_    0.154567 0.549582 0.134238 0.185946
N6    N     N_3   0.200383 0.593209 0.709235 -0.423812
H20   H     H_    0.177638 0.678220 0.747177 0.186737
H21   H     H_    0.185620 0.521814 0.777289 0.171351
C31   C     C_2   0.650872 0.125463 0.323962 0.999597
O13   O     O_2   0.691644 0.227452 0.355371 -0.613210
O14   O     O_R   0.679543 0.062343 0.210632 -0.797719
H22   H     H_    0.732473 0.111815 0.161984 0.367661

loop_
_geom_bond_atom_site_label_1
_geom_bond_atom_site_label_2
_geom_bond_distance
_ccdc_geom_bond_type
C23   C26   1.410998 A    
N5    H19   1.042191 S    
N4    H17   1.045587 S    
N1    C24   1.368140 A    
C21   C22   1.507907 S    
C14   H3    1.081025 S    
C29   O9    1.223911 D    
Zn1   O7    2.001674 S    
C15   C16   1.396663 A    
C21   H5    1.111982 S    
C17   C18   1.391951 A    
O7    C4    1.289847 A    
C23   C28   1.521707 S    
N3    H13   1.044017 S    
N6    H21   1.042693 S    
C20   C21   1.494869 S    
C13   H2    1.083556 S    
C1    C16   1.429235 S    
O5    C3    1.283649 A    
O10   H12   1.013779 S    
C5    C12   1.394659 A    
C26   C27   1.479771 S    
C29   O10   1.396657 S    
C12   H1    1.081103 S    
C13   C14   1.379823 A    
C18   C19   1.398345 A    
C22   C29   1.513067 S    
C5    C13   1.395196 A    
N5    H18   1.045776 S    
C15   C20   1.374701 A    
C30   O11   1.221420 D    
C11   C12   1.385161 A    
N6    H20   1.045640 S    
C24   C25   1.419368 A    
O3    Zn1   1.983642 S    
C25   N2    1.368048 A    
C19   C20   1.386708 A    
C27   H11   1.102179 S    
C30   O12   1.397843 S    
O14   H22   1.013918 S    
Zn1   N2    2.013569 S    
C10   C14   1.406766 A    
C21   H6    1.113152 S    
Zn2   N1    2.013663 S    
C31   O14   1.399566 S    
C7    C11   1.410194 A    
O1    C1    1.282800 A    
C3    C19   1.416341 S    
C16   C17   1.414517 A    
C18   H4    1.084085 S    
Zn2   O8    1.983642 S    
C7    C8    1.395997 A    
Zn2   O6    1.996851 S    
C27   C28   1.524012 S    
O8    C4    1.289123 A    
C9    N6    1.438658 S    
O3    C2    1.289880 A    
C24   H8    1.081210 S    
C25   H9    1.081541 S    
Zn1   O5    1.993017 S    
N2    C26   1.358595 A    
C23   N1    1.373934 A    
O1    Zn1   1.996853 S    
C22   H7    1.104129 S    
O2    Zn2   1.993016 S    
C31   O13   1.222589 D    
O6    C3    1.284359 A    
O4    Zn2   2.001675 S    
C17   C31   1.488661 S    
C8    N5    1.434412 S    
C28   N3    1.465265 S    
C28   C30   1.505994 S    
C9    C10   1.392814 A    
O2    C1    1.291291 A    
C7    N4    1.436720 S    
O4    C2    1.298445 A    
C6    C9    1.411270 A    
C27   H10   1.108015 S    
N3    H14   1.043890 S    
O12   H15   1.012263 S    
C2    C6    1.462968 S    
N4    H16   1.045265 S    
C10   C11   1.416352 A    
C15   C22   1.510627 S    
C6    C8    1.408824 A    
C4    C5    1.439498 S    
