data_mof_unit_32583.cif
_audit_creation_date              2013-03-05T16:36:37-0500
_audit_creation_method            fapswitch 2.2
_symmetry_space_group_name_H-M    P1
_symmetry_Int_Tables_number       1
_space_group_crystal_system       triclinic
_cell_length_a                    17.922575
_cell_length_b                    9.074912
_cell_length_c                    7.997392
_cell_angle_alpha                 89.991845
_cell_angle_beta                  90.00045
_cell_angle_gamma                 90.000016
_cell_volume                      1300.74213407

loop_
_atom_site_label
_atom_site_type_symbol
_atom_site_description
_atom_site_fract_x
_atom_site_fract_y
_atom_site_fract_z
_atom_type_partial_charge
O1    O     O_R   0.500000 0.288390 0.642760 -0.574374
O2    O     O_R   0.500000 0.711610 0.357240 -0.574374
O3    O     O_R   0.500000 0.711610 0.642760 -0.566705
O4    O     O_R   0.500000 0.288390 0.357240 -0.566709
C1    C     C_R   0.500003 0.220893 0.500006 0.812716
C2    C     C_R   0.500003 0.779107 0.499994 0.812714
O5    O     O_R   0.391250 0.500000 0.642840 -0.522871
O6    O     O_R   0.608750 0.500000 0.357160 -0.523539
O7    O     O_R   0.608750 0.500000 0.642840 -0.523542
O8    O     O_R   0.391250 0.500000 0.357160 -0.522871
C3    C     C_1   0.500005 0.065602 0.500008 -0.098456
C4    C     C_1   0.500005 0.934398 0.499992 -0.098453
C5    C     C_R   0.355064 0.500004 0.500000 0.868623
C6    C     C_R   0.644903 0.500001 0.500001 0.868353
Cu1   Cu    Cu3+1 0.500000 0.500000 0.669080 1.156852
Cu2   Cu    Cu3+1 0.500000 0.500000 0.330920 1.156850
C7    C     C_R   0.848673 0.532889 0.647291 0.286733
C8    C     C_R   0.151306 0.507836 0.349054 0.280668
C9    C     C_R   0.151310 0.492219 0.650968 0.280670
C10   C     C_R   0.848676 0.467145 0.352728 0.286733
C11   C     C_R   0.770055 0.530289 0.646915 0.186229
C12   C     C_R   0.229635 0.497522 0.349872 0.189739
C13   C     C_R   0.229639 0.502520 0.650142 0.189740
C14   C     C_R   0.770058 0.469732 0.353098 0.186229
C15   C     C_R   0.729324 0.500007 0.500004 -0.295184
C16   C     C_R   0.270585 0.500015 0.500004 -0.297660
C17   C     C_R   0.886847 0.500021 0.500011 -0.067376
C18   C     C_R   0.112890 0.500030 0.500013 -0.066967
C19   C     C_1   0.966532 0.500026 0.500015 0.228184
C20   C     C_1   0.033233 0.500029 0.500016 0.226085
N1    N     N_1   0.500000 0.500000 0.076820 0.034115
N2    N     N_1   0.500000 0.500000 0.923180 0.034118
O9    O     O_3   0.889937 0.564023 0.789432 -0.655929
H1    H     H_    0.856603 0.596162 0.881000 0.375091
O10   O     O_3   0.111099 0.522570 0.202816 -0.652050
H2    H     H_    0.143927 0.568060 0.117761 0.369779
O11   O     O_3   0.111106 0.477490 0.797211 -0.652058
H3    H     H_    0.143936 0.432002 0.882265 0.369782
O12   O     O_3   0.889942 0.436018 0.210591 -0.655926
H4    H     H_    0.856610 0.403872 0.119021 0.375090
N3    N     N_R   0.731519 0.546551 0.799263 0.142059
O13   O     O_R   0.703230 0.427531 0.863494 -0.261369
O14   O     O_R   0.703135 0.674730 0.835272 -0.299176
N4    N     N_R   0.267395 0.475871 0.197752 0.148360
O15   O     O_R   0.292054 0.343639 0.167303 -0.288710
O16   O     O_R   0.301470 0.589353 0.134945 -0.271194
N5    N     N_R   0.267405 0.524160 0.802258 0.148374
O17   O     O_R   0.292081 0.656381 0.832697 -0.288713
O18   O     O_R   0.301472 0.410667 0.865062 -0.271190
N6    N     N_R   0.731524 0.453465 0.200747 0.142056
O19   O     O_R   0.703231 0.572481 0.136515 -0.261373
O20   O     O_R   0.703144 0.325283 0.164736 -0.299174

loop_
_geom_bond_atom_site_label_1
_geom_bond_atom_site_label_2
_geom_bond_distance
_ccdc_geom_bond_type
O4    Cu2   1.931815 S    
C9    C13   1.406987 A    
O7    C6    1.313312 A    
C19   C20   1.195454 T    
O1    Cu1   1.931875 S    
C10   C17   1.394460 A    
C17   C19   1.428159 S    
O2    Cu2   1.931874 S    
N3    O13   1.298997 A    
N6    O20   1.301874 A    
N1    N2    1.228720 T    
C3    C4    1.190660 T    
O3    C2    1.295604 A    
O5    Cu1   1.960343 S    
O9    H1    0.989105 S    
O7    Cu1   1.960346 S    
C8    C18   1.391615 A    
Cu1   N2    2.032137 S    
N5    O18   1.298337 A    
O8    Cu2   1.960346 S    
C14   C15   1.410281 A    
Cu2   N1    2.032137 S    
C2    C4    1.409257 S    
C9    C18   1.391616 A    
N3    O14   1.301874 A    
O11   H3    0.989553 S    
C7    O9    1.385300 S    
O1    C1    1.295677 A    
C18   C20   1.427660 S    
N4    O16   1.298339 A    
C1    C3    1.409257 S    
C6    C15   1.513043 S    
C14   N6    1.408304 S    
C11   N3    1.408305 S    
C5    C16   1.514081 S    
C13   N5    1.405959 S    
C12   C16   1.407395 A    
Cu1   Cu2   2.704399 S    
C7    C17   1.394459 A    
N5    O17   1.301796 A    
C10   C14   1.409236 A    
O5    C5    1.313604 A    
O3    Cu1   1.931814 S    
N4    O15   1.301806 A    
O6    Cu2   1.960343 S    
C8    O10   1.380181 S    
C13   C16   1.407403 A    
O12   H4    0.989105 S    
C10   O12   1.385300 S    
C11   C15   1.410284 A    
C12   N4    1.405953 S    
O6    C6    1.313317 A    
C9    O11   1.380182 S    
N6    O19   1.298996 A    
C8    C12   1.406985 A    
O8    C5    1.313615 A    
C7    C11   1.409234 A    
O2    C2    1.295677 A    
O4    C1    1.295604 A    
O10   H2    0.989553 S    
