data_mof_unit_16602.cif
_audit_creation_date              2012-12-10T16:39:26-0500
_audit_creation_method            fapswitch 2.2
_symmetry_space_group_name_H-M    P1
_symmetry_Int_Tables_number       1
_space_group_crystal_system       triclinic
_cell_length_a                    16.806835
_cell_length_b                    16.795625
_cell_length_c                    16.829149
_cell_angle_alpha                 65.633147
_cell_angle_beta                  65.654817
_cell_angle_gamma                 65.693807
_cell_volume                      3771.92571936

loop_
_atom_site_label
_atom_site_type_symbol
_atom_type_description
_atom_site_fract_x
_atom_site_fract_y
_atom_site_fract_z
_atom_type_partial_charge
C1    C     C_R   0.327061 0.938613 0.461819 -0.047965
C2    C     C_R   0.323780 0.457371 0.958670 -0.006097
C3    C     C_R   0.522243 0.398368 0.042228 -0.019127
C4    C     C_R   0.960006 0.477538 0.601057 -0.022273
C5    C     C_R   0.985339 0.545991 0.412844 -0.024910
C6    C     C_R   0.045696 0.674836 0.542439 -0.011729
C7    C     C_R   0.932307 0.331120 0.463311 -0.010745
C8    C     C_R   0.463315 0.953248 0.466629 0.062380
C9    C     C_R   0.550042 0.988924 0.555654 0.064246
C10   C     C_R   0.959712 0.464502 0.462473 0.064477
C11   C     C_R   0.993993 0.554094 0.549657 0.064628
C12   C     C_R   0.444399 0.449712 0.010626 0.065335
C13   C     C_R   0.533613 0.536498 0.045960 0.063188
C14   C     C_R   0.959552 0.179945 0.438936 0.890360
C15   C     C_R   0.688129 0.993343 0.567381 -0.050631
C16   C     C_R   0.038540 0.820260 0.561534 0.843960
C17   C     C_R   0.179780 0.438313 0.962085 0.888572
C18   C     C_R   0.820048 0.561105 0.040497 0.852518
C19   C     C_R   0.438704 0.959717 0.179947 0.849186
C20   C     C_R   0.561859 0.037533 0.820251 0.888883
C21   C     C_R   0.562081 0.820510 0.038297 0.907401
C22   C     C_R   0.431178 0.176784 0.978279 0.928882
C23   C     C_R   0.021553 0.569014 0.823316 0.927331
C24   C     C_R   0.963027 0.437372 0.179455 0.913084
C25   C     C_R   0.823118 0.021986 0.568675 0.922333
C26   C     C_R   0.946075 0.459840 0.325767 -0.049863
C27   C     C_R   0.179416 0.961485 0.438013 0.912515
C28   C     C_R   0.418054 0.940429 0.419899 0.069435
C29   C     C_R   0.593256 0.008995 0.598899 0.069534
C30   C     C_R   0.945840 0.418375 0.417301 0.070442
C31   C     C_R   0.012427 0.598161 0.593160 0.069033
C32   C     C_R   0.401002 0.406520 0.990803 0.070937
C33   C     C_R   0.580293 0.581759 0.058919 0.068858
C34   C     C_R   0.279147 0.935012 0.410653 -0.176194
C35   C     C_R   0.728228 0.025391 0.604740 -0.160022
C36   C     C_R   0.938647 0.409847 0.278876 -0.171111
C37   C     C_R   0.993350 0.568602 0.688251 -0.054647
C38   C     C_R   0.025372 0.605572 0.728607 -0.165059
C39   C     C_R   0.394835 0.271540 0.975001 -0.160704
C40   C     C_R   0.589478 0.720743 0.064460 -0.174812
C41   C     C_R   0.590030 0.055159 0.721095 -0.255653
C42   C     C_R   0.411689 0.930871 0.280886 -0.245662
C43   C     C_R   0.719069 0.587973 0.069321 -0.246542
C44   C     C_R   0.279066 0.410049 0.944060 -0.256868
C45   C     C_R   0.058044 0.720696 0.589983 -0.249963
C46   C     C_R   0.931477 0.280997 0.412039 -0.253747
C47   C     C_R   0.447558 0.052505 0.708728 -0.105929
C48   C     C_R   0.431750 0.311487 0.007596 -0.051644
C49   C     C_R   0.558891 0.915878 0.298771 -0.100400
C50   C     C_R   0.064177 0.703871 0.446865 -0.102391
C51   C     C_R   0.915081 0.299823 0.559225 -0.108355
C52   C     C_R   0.700728 0.440466 0.085171 -0.094693
C53   C     C_R   0.292721 0.552727 0.944376 -0.105955
C54   C     C_R   0.287683 0.939209 0.554163 -0.121074
C55   C     C_R   0.738713 0.947823 0.498883 -0.121074
C56   C     C_R   0.499062 0.260575 0.054669 -0.118328
C57   C     C_R   0.446490 0.712673 0.058218 -0.119581
C58   C     C_R   0.952576 0.550578 0.285092 -0.115182
C59   C     C_R   0.538510 0.672961 0.060165 -0.048869
C60   C     C_R   0.945017 0.502181 0.738829 -0.123349
C61   C     C_R   0.325520 0.917979 0.326763 0.357149
C62   C     C_R   0.675965 0.065363 0.674588 0.354442
C63   C     C_R   0.919015 0.327058 0.325921 0.353240
C64   C     C_R   0.066160 0.675145 0.676611 0.362804
C65   C     C_R   0.325289 0.323879 0.934508 0.358065
C66   C     C_R   0.673196 0.674227 0.082002 0.356447
C67   C     C_R   0.696302 0.939194 0.447495 -0.066005
C68   C     C_R   0.324952 0.968185 0.594201 -0.079727
C69   C     C_R   0.935304 0.451086 0.696690 -0.065575
C70   C     C_R   0.542668 0.039995 0.676752 -0.005768
C71   C     C_R   0.985297 0.587487 0.321753 -0.088512
C72   C     C_R   0.407290 0.675733 0.028056 -0.084241
C73   C     C_R   0.550191 0.302729 0.064301 -0.064309
C74   C     C_R   0.606428 0.921692 0.347801 -0.069124
C75   C     C_R   0.405324 0.024703 0.671839 -0.087219
C76   C     C_R   0.330154 0.595353 0.971117 -0.089269
C77   C     C_R   0.651015 0.392762 0.080372 -0.065690
C78   C     C_R   0.919781 0.349758 0.606785 -0.076589
C79   C     C_R   0.041421 0.664156 0.403081 -0.078655
C80   C     C_R   0.747148 0.910856 0.367789 0.325434
C81   C     C_R   0.463264 0.930569 0.331309 -0.016754
C82   C     C_R   0.274528 0.991819 0.676428 0.333085
C83   C     C_R   0.901478 0.374375 0.747918 0.326140
C84   C     C_R   0.017448 0.664863 0.269363 0.351687
C85   C     C_R   0.326440 0.726938 0.001885 0.339685
C86   C     C_R   0.628202 0.251477 0.095775 0.331362
C87   C     C_R   0.702398 0.903546 0.317344 0.364870
C88   C     C_R   0.313442 0.023436 0.713170 0.335867
C89   C     C_R   0.290262 0.688077 0.969654 0.338183
C90   C     C_R   0.679789 0.296428 0.101311 0.367497
C91   C     C_R   0.896269 0.322474 0.703115 0.342403
C92   C     C_R   0.668619 0.536324 0.069589 -0.016801
C93   C     C_R   0.050183 0.699955 0.308739 0.363575
C94   C     C_R   0.556766 0.945953 0.429619 -0.032484
C95   C     C_R   0.456533 0.996174 0.592556 -0.029750
C96   C     C_R   0.947777 0.429720 0.556718 -0.031782
C97   C     C_R   0.007452 0.587836 0.455098 -0.032493
C98   C     C_R   0.408478 0.543683 0.001455 -0.029621
C99   C     C_R   0.569809 0.442650 0.054881 -0.031904
C100  C     C_R   0.600989 0.958992 0.476895 -0.020021
C101  C     C_R   0.414640 0.973469 0.550740 -0.022801
C102  C     C_R   0.450237 0.585595 0.024159 -0.023201
Cl1   Cl    Cl    0.246971 0.057255 0.813547 -0.419834
Cl2   Cl    Cl    0.273249 0.842279 0.002654 -0.397869
Cl3   Cl    Cl    0.023513 0.714524 0.152298 -0.400372
Cl4   Cl    Cl    0.868868 0.339539 0.868753 -0.488055
Cl5   Cl    Cl    0.768373 0.870236 0.216603 -0.427685
Cl6   Cl    Cl    0.099825 0.790278 0.238961 -0.414355
Cl7   Cl    Cl    0.858264 0.224211 0.769390 -0.445794
Cl8   Cl    Cl    0.779593 0.230288 0.136392 -0.427644
Cl9   Cl    Cl    0.192894 0.756045 0.930768 -0.400392
Cl10  Cl    Cl    0.160036 0.988409 0.731058 -0.423003
Cl11  Cl    Cl    0.866843 0.890636 0.326192 -0.470296
Cl12  Cl    Cl    0.665163 0.130601 0.124637 -0.469624
H1    H     H_    0.405483 0.085849 0.761239 0.217684
H2    H     H_    0.402810 0.770775 0.082880 0.212277
H3    H     H_    0.928489 0.596118 0.227162 0.218743
H4    H     H_    0.913162 0.490367 0.811079 0.213030
H5    H     H_    0.330968 0.851960 0.252839 0.337006
H6    H     H_    0.661227 0.151634 0.732697 0.343939
H7    H     H_    0.851171 0.254119 0.332357 0.347698
H8    H     H_    0.151360 0.734139 0.662929 0.332796
H9    H     H_    0.267081 0.338540 0.848435 0.339205
H10   H     H_    0.747120 0.668640 0.148112 0.339208
H11   H     H_    0.597369 0.894512 0.237959 0.219573
H12   H     H_    0.097486 0.756818 0.406311 0.216008
H13   H     H_    0.892235 0.239647 0.597592 0.219918
H14   H     H_    0.761544 0.402056 0.106678 0.219013
H15   H     H_    0.240283 0.594428 0.910792 0.216261
H16   H     H_    0.229473 0.914463 0.597266 0.212424
H17   H     H_    0.811153 0.916521 0.485820 0.210998
H18   H     H_    0.511587 0.188069 0.085795 0.211325
O1    O     O_R   0.982940 0.138950 0.510160 -0.617400
O2    O     O_R   0.982940 0.510160 0.138950 -0.654910
O3    O     O_R   0.861050 0.017060 0.489840 -0.650563
O4    O     O_R   0.138950 0.982940 0.510160 -0.649523
O5    O     O_R   0.867700 0.025880 0.612340 -0.544881
O6    O     O_R   0.132300 0.974120 0.387660 -0.535528
O7    O     O_R   0.025880 0.612340 0.867700 -0.542214
O8    O     O_R   0.974120 0.387660 0.132300 -0.539223
O9    O     O_R   0.612340 0.867700 0.025880 -0.538595
O10   O     O_R   0.387660 0.132300 0.974120 -0.543285
O11   O     O_R   0.387660 0.974120 0.132300 -0.587219
O12   O     O_R   0.017060 0.861050 0.489840 -0.628884
O13   O     O_R   0.612340 0.025880 0.867700 -0.572511
O14   O     O_R   0.132300 0.387660 0.974120 -0.576337
O15   O     O_R   0.867700 0.612340 0.025880 -0.586596
O16   O     O_R   0.974120 0.132300 0.387660 -0.572435
O17   O     O_R   0.025880 0.867700 0.612340 -0.587742
O18   O     O_3   0.283251 0.893411 0.288915 -0.701678
O19   O     O_3   0.712112 0.108551 0.700266 -0.704978
O20   O     O_3   0.892577 0.290183 0.284301 -0.700769
O21   O     O_3   0.108160 0.701461 0.713402 -0.709737
O22   O     O_3   0.299591 0.287646 0.891462 -0.711322
O23   O     O_R   0.138950 0.510160 0.982940 -0.617502
O24   O     O_3   0.710946 0.716457 0.106783 -0.701190
O25   O     O_R   0.861050 0.489840 0.017060 -0.627598
O26   O     O_R   0.510160 0.982940 0.138950 -0.628775
O27   O     O_R   0.489840 0.017060 0.861050 -0.619914
O28   O     O_R   0.489840 0.861050 0.017060 -0.651384
O29   O     O_R   0.510160 0.138950 0.982940 -0.648127
O30   O     O_R   0.017060 0.489840 0.861050 -0.651688
Zn1   Zn    Zn3+2 0.004880 0.004880 0.583590 1.130560
Zn2   Zn    Zn3+2 0.995120 0.995120 0.416410 1.146645
Zn3   Zn    Zn3+2 0.004880 0.583590 0.004880 1.137246
Zn4   Zn    Zn3+2 0.995120 0.416410 0.995120 1.135104
Zn5   Zn    Zn3+2 0.583590 0.004880 0.004880 1.146304
Zn6   Zn    Zn3+2 0.416410 0.995120 0.995120 1.134457

loop_
_geom_bond_atom_site_label_1
_geom_bond_atom_site_label_2
_ccdc_geom_bond_type
C6    C45   A    
C15   C29   A    
C32   C48   A    
O3    Zn2   S    
C74   C94   A    
C50   C79   A    
C72   C85   A    
C52   H14   S    
C75   C95   A    
C14   C46   S    
C24   O8    A    
C47   H1    S    
C24   C36   S    
C27   O4    A    
C23   O7    A    
C16   O12   A    
C79   C93   A    
C80   C87   A    
C93   Cl6   S    
O13   Zn5   S    
C58   C71   A    
C57   C59   A    
C54   C68   A    
C76   C98   A    
C14   O16   A    
O27   Zn6   S    
C2    C32   A    
C49   C81   A    
O7    Zn3   S    
C3    C12   A    
O15   Zn3   S    
O30   Zn4   S    
C2    C44   A    
C20   O27   A    
O26   Zn5   S    
C1    C28   A    
C60   H4    S    
C16   O17   A    
C50   H12   S    
C10   C96   A    
C74   C87   A    
C35   C62   A    
C36   C63   A    
C61   O18   S    
C9    C95   A    
C12   C98   A    
C19   C42   S    
C9    C29   A    
C76   C89   A    
C23   O30   A    
H5    O18   S    
C6    C31   A    
O14   Zn4   S    
C11   C31   A    
O11   Zn6   S    
C33   C59   A    
C7    C30   A    
C40   C66   A    
C12   C32   A    
C39   C65   A    
C44   C65   A    
C42   C81   A    
C41   C62   A    
C3    C73   A    
O1    Zn1   S    
C15   C35   A    
C4    C69   A    
C1    C34   A    
C20   C41   S    
C57   H2    S    
C38   C64   A    
C27   C34   S    
O8    Zn4   S    
C54   H16   S    
C77   C90   A    
O9    Zn5   S    
C27   O6    A    
C62   O19   S    
O16   Zn2   S    
C7    C46   A    
C8    C94   A    
C68   C101  A    
C18   O15   A    
C86   C90   A    
C33   C92   A    
C78   C96   A    
O5    Zn1   S    
C22   O29   A    
C85   C89   A    
C80   Cl11  S    
C98   C102  A    
C64   O21   S    
C58   H3    S    
C31   C37   A    
C15   C55   A    
C13   C99   A    
C25   O5    A    
C1    C54   A    
C47   C70   A    
C13   C33   A    
C37   C38   A    
C69   C83   A    
C7    C51   A    
C10   C30   A    
C94   C100  A    
C22   O10   A    
C84   Cl3   S    
O2    Zn3   S    
C56   H18   S    
C6    C50   A    
C4    C11   A    
C26   C58   A    
C42   C61   A    
O29   Zn5   S    
C85   Cl2   S    
C67   C100  A    
C25   C35   S    
O17   Zn1   S    
C26   C36   A    
C5    C97   A    
C26   C30   A    
C9    C100  A    
C55   H17   S    
H10   O24   S    
C8    C28   A    
C21   O28   A    
C52   C92   A    
C53   C76   A    
C53   H15   S    
C90   Cl8   S    
C52   C77   A    
C17   O23   A    
C88   Cl1   S    
C49   H11   S    
C71   C84   A    
C8    C101  A    
C24   O2    A    
C48   C56   A    
H6    O19   S    
C19   O11   A    
C56   C73   A    
C28   C81   A    
C49   C74   A    
C19   O26   A    
C79   C97   A    
C67   C80   A    
C2    C53   A    
O25   Zn4   S    
C55   C67   A    
H7    O20   S    
C14   O1    A    
C78   C91   A    
C23   C38   S    
C83   C91   A    
C89   Cl9   S    
C45   C64   A    
C43   C92   A    
C83   Cl4   S    
C11   C97   A    
C46   C63   A    
C86   Cl12  S    
C68   C82   A    
C91   Cl7   S    
C17   O14   A    
C17   C44   S    
C47   C75   A    
C5    C10   A    
C5    C71   A    
C18   O25   A    
C18   C43   S    
C66   O24   S    
C21   C40   S    
C72   C102  A    
C60   C69   A    
O23   Zn3   S    
C43   C66   A    
C82   C88   A    
C22   C39   S    
H8    O21   S    
C4    C96   A    
C77   C99   A    
C29   C70   A    
C84   C93   A    
O28   Zn6   S    
C57   C72   A    
C25   O3    A    
C63   O20   S    
C51   C78   A    
C37   C60   A    
C16   C45   S    
O10   Zn6   S    
C3    C99   A    
C75   C88   A    
C87   Cl5   S    
C51   H13   S    
C21   O9    A    
C34   C61   A    
C40   C59   A    
C20   O13   A    
C41   C70   A    
O6    Zn2   S    
C73   C86   A    
C65   O22   S    
C13   C102  A    
O4    Zn1   S    
O12   Zn2   S    
C95   C101  A    
C82   Cl10  S    
C39   C48   A    
H9    O22   S    
