data_mof_unit_54240.cif
_audit_creation_date              2012-12-11T15:07:35-0500
_audit_creation_method            fapswitch 2.2
_symmetry_space_group_name_H-M    P1
_symmetry_Int_Tables_number       1
_space_group_crystal_system       triclinic
_cell_length_a                    21.656647
_cell_length_b                    7.187224
_cell_length_c                    18.741346
_cell_angle_alpha                 89.999675
_cell_angle_beta                  95.84962
_cell_angle_gamma                 89.999507
_cell_volume                      2901.92255335

loop_
_atom_site_label
_atom_site_type_symbol
_atom_type_description
_atom_site_fract_x
_atom_site_fract_y
_atom_site_fract_z
_atom_type_partial_charge
O1    O     O_R   0.449650 0.506500 0.414480 -0.534601
O2    O     O_R   0.550350 0.006500 0.585520 -0.534600
O3    O     O_R   0.432010 0.173150 0.560250 -0.539553
O4    O     O_R   0.567990 0.673150 0.439750 -0.539557
C1    C     C_R   0.414762 0.344246 0.578983 0.696496
C2    C     C_R   0.585238 0.844245 0.421017 0.696495
O5    O     O_R   0.442320 0.176650 0.413480 -0.528929
O6    O     O_R   0.557680 0.676650 0.586520 -0.528930
O7    O     O_R   0.560730 0.008380 0.437700 -0.538227
O8    O     O_R   0.439270 0.508380 0.562300 -0.538225
C3    C     C_R   0.428324 0.344914 0.388012 0.671513
C4    C     C_R   0.571676 0.844913 0.611988 0.671518
O9    O     O_3   0.538840 0.339860 0.508120 -0.374372
O10   O     O_3   0.461160 0.839860 0.491880 -0.374374
V1    V     V_3+5 0.492800 0.064220 0.498490 1.413220
V2    V     V_3+5 0.507200 0.564220 0.501510 1.413220
C5    C     C_R   0.872720 0.960146 0.691191 0.414217
C6    C     C_R   0.127278 0.460100 0.308810 0.414212
H1    H     H_    0.959871 0.972557 0.755960 0.180673
H2    H     H_    0.040127 0.472523 0.244040 0.180666
C7    C     C_R   0.884757 0.937982 0.821075 -0.142485
C8    C     C_R   0.115242 0.437973 0.178925 -0.142478
C9    C     C_R   0.586886 0.769497 0.741726 0.361218
C10   C     C_R   0.413119 0.269527 0.258271 0.361218
C11   C     C_R   0.626968 0.716320 0.800720 -0.116558
C12   C     C_R   0.373039 0.216356 0.199276 -0.116556
C13   C     C_R   0.690248 0.749966 0.803082 -0.244743
C14   C     C_R   0.309758 0.249985 0.196914 -0.244746
C15   C     C_R   0.715808 0.852173 0.749178 0.101016
C16   C     C_R   0.284194 0.352170 0.250821 0.101017
C17   C     C_R   0.676424 0.888368 0.684985 0.002911
C18   C     C_R   0.323576 0.388357 0.315016 0.002911
C19   C     C_R   0.780532 0.901333 0.754463 -0.081478
C20   C     C_R   0.219468 0.401317 0.245537 -0.081482
C21   C     C_R   0.806988 0.946362 0.689839 -0.046744
C22   C     C_R   0.193010 0.446323 0.310162 -0.046749
C23   C     C_R   0.767351 0.982802 0.626233 0.376101
C24   C     C_R   0.232645 0.482747 0.373770 0.376139
C25   C     C_R   0.702965 0.957263 0.625236 -0.267358
C26   C     C_R   0.297032 0.457225 0.374768 -0.267367
C27   C     C_R   0.819869 0.910478 0.821379 0.247563
C28   C     C_R   0.180131 0.410472 0.178620 0.247564
C29   C     C_R   0.910049 0.957877 0.756201 -0.265799
C30   C     C_R   0.089950 0.457848 0.243799 -0.265804
C31   C     C_R   0.611586 0.846369 0.681073 -0.158405
C32   C     C_R   0.388415 0.346376 0.318927 -0.158398
H3    H     H_    0.718909 0.684441 0.845624 0.171469
H4    H     H_    0.281100 0.184461 0.154370 0.171471
H5    H     H_    0.609015 0.642991 0.844694 0.149808
H6    H     H_    0.390995 0.143043 0.155300 0.149810
H7    H     H_    0.673755 0.988285 0.576319 0.103710
H8    H     H_    0.326241 0.488238 0.423685 0.103690
C33   C     C_R   0.631342 0.981603 0.317889 -0.234323
C34   C     C_R   0.368666 0.481560 0.682123 -0.234314
C35   C     C_R   0.636790 0.854096 0.374329 -0.176117
C36   C     C_R   0.363210 0.354099 0.625670 -0.176125
C37   C     C_R   0.690288 0.738856 0.384322 0.259914
C38   C     C_R   0.309703 0.238905 0.615660 0.259915
C39   C     C_R   0.739368 0.762027 0.339181 0.009249
C40   C     C_R   0.260623 0.262067 0.660804 0.009268
C41   C     C_R   0.731200 0.886975 0.280317 -0.031110
C42   C     C_R   0.268799 0.386970 0.719682 -0.031138
C43   C     C_R   0.676704 0.995070 0.270261 0.089388
C44   C     C_R   0.323303 0.495025 0.729750 0.089393
C45   C     C_R   0.796645 0.666836 0.352502 0.289016
C46   C     C_R   0.203342 0.166903 0.647477 0.289061
C47   C     C_R   0.841171 0.675625 0.301998 0.194694
C48   C     C_R   0.158819 0.175670 0.697987 0.194691
C49   C     C_R   0.832593 0.799167 0.242312 -0.006151
C50   C     C_R   0.167402 0.299183 0.757682 -0.006127
C51   C     C_R   0.777454 0.906696 0.231979 -0.169623
C52   C     C_R   0.222547 0.406687 0.768021 -0.169634
C53   C     C_R   0.767962 0.033481 0.173195 0.047721
C54   C     C_R   0.232043 0.533443 0.826814 0.047731
C55   C     C_R   0.710728 0.132161 0.162199 0.390109
C56   C     C_R   0.289284 0.632080 0.837821 0.390102
C57   C     C_R   0.667009 0.115092 0.211948 -0.281241
C58   C     C_R   0.333005 0.615004 0.788076 -0.281222
C59   C     C_R   0.878859 0.821458 0.194266 0.326544
C60   C     C_R   0.121137 0.321472 0.805729 0.326564
C61   C     C_R   0.869270 0.943827 0.134819 -0.277952
C62   C     C_R   0.130730 0.443823 0.865181 -0.277958
C63   C     C_R   0.815118 0.055988 0.126153 0.201932
C64   C     C_R   0.184887 0.555960 0.873854 0.201940
H9    H     H_    0.590098 0.067591 0.309561 0.162711
H10   H     H_    0.409917 0.567512 0.690463 0.162722
H11   H     H_    0.624121 0.193821 0.204079 0.138003
H12   H     H_    0.375900 0.693697 0.795954 0.138007
O11   O     O_R   0.060820 0.290050 0.937800 -0.530406
O12   O     O_R   0.939180 0.790050 0.062200 -0.530406
O13   O     O_R   0.057690 0.616620 0.086540 -0.534930
O14   O     O_R   0.942310 0.116620 0.913460 -0.534929
C65   C     C_R   0.072311 0.448223 0.111912 0.775292
C66   C     C_R   0.927689 0.948225 0.888088 0.775295
O15   O     O_R   0.068010 0.619890 0.939770 -0.537481
O16   O     O_R   0.931990 0.119890 0.060230 -0.537482
O17   O     O_R   0.949640 0.787940 0.914460 -0.540652
O18   O     O_R   0.050360 0.287940 0.085540 -0.540651
C67   C     C_R   0.083229 0.452206 0.917717 0.690342
C68   C     C_R   0.916771 0.952207 0.082283 0.690349
O19   O     O_3   0.961210 0.453080 0.991940 -0.379544
O20   O     O_3   0.038790 0.953080 0.008060 -0.379540
V3    V     V_3+5 0.007200 0.728820 0.001500 1.410845
V4    V     V_3+5 0.992800 0.228820 0.998500 1.410849
N1    N     N_2   0.694918 0.600519 0.439251 -0.458408
H13   H     H_    0.677506 0.637174 0.486465 0.246387
C69   C     C_3   0.678531 0.413864 0.414764 -0.372956
H14   H     H_    0.685751 0.315324 0.460467 0.173227
H15   H     H_    0.708055 0.368853 0.372818 0.196908
H16   H     H_    0.629154 0.407261 0.392222 0.169248
N2    N     N_2   0.305061 0.100638 0.560705 -0.458397
H17   H     H_    0.322481 0.137338 0.513502 0.246357
C70   C     C_3   0.321426 0.913934 0.585155 -0.372975
H18   H     H_    0.314192 0.815462 0.539432 0.173238
H19   H     H_    0.291897 0.868894 0.627093 0.196897
H20   H     H_    0.370802 0.907251 0.607694 0.169277
O21   O     O_3   0.808547 0.568089 0.415825 -0.615599
H21   H     H_    0.853632 0.549748 0.427467 0.306116
O22   O     O_3   0.191436 0.068224 0.584138 -0.615604
H22   H     H_    0.146359 0.049587 0.572550 0.306143
N3    N     N_2   0.894140 0.556613 0.310482 -0.459412
H23   H     H_    0.925211 0.583939 0.354635 0.270112
C71   C     C_3   0.882015 0.360910 0.297208 -0.474596
H24   H     H_    0.926694 0.285609 0.296359 0.201378
H25   H     H_    0.854626 0.341292 0.244514 0.189826
H26   H     H_    0.856222 0.299888 0.339795 0.198418
N4    N     N_2   0.105847 0.056670 0.689503 -0.459430
H27   H     H_    0.074780 0.083978 0.645344 0.270119
C72   C     C_3   0.117967 0.860975 0.702803 -0.474685
H28   H     H_    0.073286 0.785676 0.703628 0.201406
H29   H     H_    0.145330 0.841390 0.755516 0.189862
H30   H     H_    0.143786 0.799923 0.660245 0.198316
O23   O     O_3   0.934508 0.727217 0.207598 -0.619628
H31   H     H_    0.968692 0.808107 0.194655 0.285438
O24   O     O_3   0.065486 0.227253 0.792395 -0.619617
H32   H     H_    0.031304 0.308148 0.805343 0.285438
N5    N     N_2   0.807582 0.190373 0.069755 -0.458292
H33   H     H_    0.821459 0.149677 0.021166 0.267300
C73   C     C_3   0.825538 0.378730 0.090488 -0.380669
H34   H     H_    0.875368 0.385415 0.111153 0.197869
H35   H     H_    0.797419 0.430862 0.132592 0.193892
H36   H     H_    0.817483 0.471942 0.043318 0.171403
N6    N     N_2   0.192425 0.690332 0.930256 -0.458278
H37   H     H_    0.178541 0.649642 0.978841 0.267307
C74   C     C_3   0.174483 0.878701 0.909523 -0.380755
H38   H     H_    0.124652 0.885425 0.888868 0.197852
H39   H     H_    0.202601 0.930804 0.867413 0.193883
H40   H     H_    0.182553 0.971912 0.956691 0.171423
O25   O     O_3   0.696852 0.240019 0.101554 -0.624174
H41   H     H_    0.655462 0.298413 0.102585 0.290451
O26   O     O_3   0.303164 0.739901 0.898475 -0.624170
H42   H     H_    0.344564 0.798241 0.897458 0.290453
O27   O     O_3   0.791666 0.054649 0.566572 -0.622296
H43   H     H_    0.758221 0.068996 0.526690 0.290518
O28   O     O_3   0.208328 0.554563 0.433435 -0.622289
H44   H     H_    0.241771 0.568887 0.473320 0.290507
O29   O     O_3   0.902730 0.970629 0.629970 -0.608733
H45   H     H_    0.882844 0.878822 0.595451 0.328667
O30   O     O_3   0.097267 0.470559 0.370031 -0.608730
H46   H     H_    0.117153 0.378738 0.404544 0.328692
N7    N     N_2   0.794365 0.925594 0.888456 -0.545844
H47   H     H_    0.752270 0.992522 0.888647 0.275947
C75   C     C_3   0.805732 0.773778 0.939064 -0.552875
H48   H     H_    0.761538 0.726461 0.958375 0.189266
H49   H     H_    0.835352 0.823292 0.986149 0.196408
H50   H     H_    0.828537 0.653515 0.915138 0.204159
N8    N     N_2   0.205634 0.425593 0.111544 -0.545846
H51   H     H_    0.247727 0.492526 0.111351 0.275950
C76   C     C_3   0.194269 0.273773 0.060938 -0.552884
H52   H     H_    0.238463 0.226478 0.041619 0.189265
H53   H     H_    0.164640 0.323274 0.013857 0.196415
H54   H     H_    0.171475 0.153500 0.084868 0.204156
O31   O     O_3   0.524493 0.732197 0.743772 -0.653198
H55   H     H_    0.499933 0.803768 0.705672 0.266867
O32   O     O_3   0.475513 0.232244 0.256226 -0.653194
H56   H     H_    0.500070 0.303806 0.294329 0.266859

loop_
_geom_bond_atom_site_label_1
_geom_bond_atom_site_label_2
_ccdc_geom_bond_type
C37   N1    S    
O29   H45   S    
C9    C31   A    
C27   N7    S    
C13   C15   A    
C69   H15   S    
C62   C67   S    
C1    C36   S    
C46   C48   A    
N2    H17   S    
O1    C3    A    
C2    C35   S    
O2    C4    A    
C2    O7    A    
C5    C29   A    
N7    H47   S    
C71   H24   S    
N8    C76   S    
O31   H55   S    
O5    C3    A    
N1    C69   S    
C60   O24   S    
C54   C56   A    
O11   C67   A    
C75   H49   S    
C56   C58   A    
C72   H28   S    
C12   H6    S    
C19   C21   A    
C73   H36   S    
O15   C67   A    
C37   C39   A    
C7    C66   S    
C38   C40   A    
N6    H37   S    
C15   C19   A    
C40   C42   A    
C76   H52   S    
C49   C51   A    
C33   C43   A    
C42   C44   A    
C6    O30   S    
C74   H39   S    
C25   H7    S    
C7    C29   A    
C8    C30   A    
C75   H48   S    
H1    C29   S    
C14   C16   A    
C45   C47   A    
C20   C28   A    
C69   H14   S    
C36   C38   A    
C5    O29   S    
N5    H33   S    
C70   H20   S    
C41   C51   A    
O5    V1    S    
O26   H42   S    
C40   C46   A    
O6    V2    S    
C24   C26   A    
C76   H53   S    
C44   C58   A    
C24   O28   S    
C47   N3    S    
O12   C68   A    
C12   C14   A    
N7    C75   S    
O15   V3    S    
C74   H38   S    
C33   C35   A    
C59   O23   S    
C34   C36   A    
C39   C41   A    
C16   C20   A    
C50   C60   A    
C38   N2    S    
C23   O27   S    
O24   H32   S    
C75   H50   S    
C60   C62   A    
C54   C64   A    
N8    H51   S    
C51   C53   A    
C71   H26   S    
C56   O26   S    
C26   H8    S    
C47   C49   A    
O4    V2    S    
N4    C72   S    
C6    C30   A    
O13   C65   A    
N5    C73   S    
O30   H46   S    
O6    C4    A    
O14   C66   A    
C42   C52   A    
N2    C70   S    
O1    V2    S    
O22   H22   S    
O2    V1    S    
C55   C57   A    
C48   N4    S    
N3    H23   S    
O17   V3    S    
C7    C27   A    
C52   C54   A    
H2    C30   S    
O19   V4    S    
C62   C64   A    
C46   O22   S    
C35   C37   A    
O11   V4    S    
O23   H31   S    
C8    C65   S    
C49   C59   A    
O4    C2    A    
C53   C55   A    
N4    H27   S    
C63   N5    S    
C74   H40   S    
O3    V1    S    
C28   N8    S    
C34   H10   S    
C70   H18   S    
C43   C57   A    
C58   H12   S    
N6    C74   S    
C14   H4    S    
C21   C23   A    
C18   C32   A    
C41   C43   A    
C10   C12   A    
O13   V3    S    
C4    C31   S    
O3    C1    A    
C61   C63   A    
C33   H9    S    
C73   H34   S    
C9    O31   S    
C61   C68   S    
C11   C13   A    
N1    H13   S    
C64   N6    S    
C59   C61   A    
C13   H3    S    
C66   O17   A    
C19   C27   A    
C72   H30   S    
O16   V4    S    
O7    V1    S    
C10   C32   A    
C1    O8    A    
C15   C17   A    
O32   H56   S    
O8    V2    S    
O21   H21   S    
C39   C45   A    
C16   C18   A    
C73   H35   S    
C8    C28   A    
C34   C44   A    
C55   O25   S    
O18   V4    S    
O16   C68   A    
C22   C24   A    
C69   H16   S    
C17   C25   A    
C20   C22   A    
C18   C26   A    
O20   V3    S    
C11   H5    S    
O12   V3    S    
N3    C71   S    
C71   H25   S    
O14   V4    S    
C9    C11   A    
C57   H11   S    
C23   C25   A    
C17   C31   A    
O9    V2    S    
O28   H44   S    
C48   C50   A    
C45   O21   S    
O10   V1    S    
C3    C32   S    
C50   C52   A    
C76   H54   S    
C5    C21   A    
C72   H29   S    
O27   H43   S    
O25   H41   S    
C10   O32   S    
C6    C22   A    
C65   O18   A    
C53   C63   A    
C70   H19   S    
