data_mof_unit_45346.cif
_audit_creation_date              2012-10-26T18:40:23-0400
_audit_creation_method            fapswitch 2.2
_symmetry_space_group_name_H-M    P1
_symmetry_Int_Tables_number       1
_space_group_crystal_system       triclinic
_cell_length_a                    8.76327
_cell_length_b                    15.126144
_cell_length_c                    13.881374
_cell_angle_alpha                 89.884519
_cell_angle_beta                  97.839649
_cell_angle_gamma                 90.127439
_cell_volume                      1822.83356153

loop_
_atom_site_label
_atom_site_type_symbol
_atom_type_description
_atom_site_fract_x
_atom_site_fract_y
_atom_site_fract_z
_atom_type_partial_charge
C1    C     C_R   0.501166 0.330277 0.500077 0.528370
C2    C     C_R   0.395446 0.555939 0.882052 -0.081049
C3    C     C_R   0.495614 0.499473 0.053709 -0.036163
C4    C     C_R   0.496914 0.501665 0.944894 -0.051751
C5    C     C_R   0.204078 0.500842 0.475314 0.562534
C6    C     C_R   0.795868 0.501452 0.524626 0.577449
C7    C     C_2   0.039002 0.499587 0.461534 0.297158
C8    C     C_2   0.960707 0.506266 0.538089 0.337175
C9    C     C_R   0.624777 0.093272 0.533636 -0.115877
C10   C     C_R   0.405762 0.905316 0.421584 -0.121403
C11   C     C_R   0.631315 0.185311 0.535981 -0.053907
C12   C     C_R   0.495827 0.670009 0.499754 0.537446
C13   C     C_R   0.402141 0.813120 0.422104 -0.038769
C14   C     C_R   0.499694 0.234248 0.499534 -0.031177
C15   C     C_R   0.486694 0.766601 0.499805 -0.031462
C16   C     C_R   0.363445 0.190780 0.462411 -0.080544
C17   C     C_R   0.560673 0.812988 0.580083 -0.078024
C18   C     C_R   0.355069 0.098987 0.464873 0.372676
C19   C     C_R   0.556263 0.904727 0.581982 0.372812
C20   C     C_R   0.486629 0.049302 0.499980 0.048587
C21   C     C_R   0.482473 0.951874 0.501350 0.051080
C22   C     C_R   0.776526 0.228001 0.577681 0.025101
C23   C     C_R   0.557700 0.570767 0.111234 0.350332
C24   C     C_R   0.881444 0.258208 0.517222 -0.078782
C25   C     C_R   0.022046 0.294869 0.558080 -0.093039
C26   C     C_R   0.057154 0.303097 0.658931 -0.066617
C27   C     C_R   0.952380 0.273339 0.719249 -0.037736
C28   C     C_R   0.813325 0.234753 0.678871 -0.000586
C29   C     C_R   0.295370 0.766847 0.347601 0.044032
C30   C     C_R   0.336892 0.749790 0.255537 -0.046887
C31   C     C_R   0.241293 0.697835 0.189425 -0.121566
C32   C     C_R   0.101741 0.665437 0.213517 -0.058216
C33   C     C_R   0.057640 0.684863 0.304039 -0.053552
C34   C     C_R   0.601239 0.448671 0.902243 0.362615
C35   C     C_R   0.154903 0.734554 0.371468 -0.093667
C36   C     C_R   0.415430 0.337598 0.053963 0.111088
C37   C     C_R   0.318943 0.327853 0.964943 -0.075258
C38   C     C_R   0.304285 0.245664 0.918500 -0.093096
C39   C     C_R   0.382544 0.172115 0.961060 -0.081749
C40   C     C_R   0.476857 0.180581 0.049989 -0.090156
C41   C     C_R   0.493939 0.262762 0.095987 0.009216
C42   C     C_R   0.280664 0.614346 0.917900 0.075391
C43   C     C_R   0.139994 0.579756 0.938890 -0.071559
C44   C     C_R   0.022296 0.636512 0.958401 -0.094728
C45   C     C_R   0.564876 0.568062 0.213292 0.505828
C46   C     C_R   0.044508 0.728033 0.957716 -0.097631
C47   C     C_R   0.184497 0.762947 0.937373 -0.108871
C48   C     C_R   0.302032 0.706385 0.917044 -0.015152
C49   C     C_R   0.600357 0.448514 0.800723 0.493098
C50   C     C_R   0.436337 0.430505 0.204044 0.443980
C51   C     C_R   0.400457 0.553980 0.780629 0.475000
C52   C     C_R   0.443464 0.425041 0.102635 -0.066983
Cu1   Cu    Cu3+1 0.500000 0.499990 0.596430 1.130280
Cu2   Cu    Cu3+1 0.500000 0.500010 0.403570 1.142471
F1    F     F_    0.967383 0.487538 0.368982 -0.634789
F2    F     F_    0.304243 0.606719 0.721094 -0.553248
F3    F     F_    0.032234 0.517404 0.630764 -0.592559
F4    F     F_    0.217453 0.059356 0.435624 -0.638337
F5    F     F_    0.622290 0.947085 0.663344 -0.640093
F6    F     F_    0.618694 0.641199 0.069094 -0.637179
F7    F     F_    0.704058 0.397145 0.958776 -0.603594
F8    F     F_    0.638704 0.634187 0.266419 -0.602805
F9    F     F_    0.701891 0.397020 0.761883 -0.589885
F10   F     F_    0.365407 0.364608 0.247292 -0.602428
H1    H     H_    0.728322 0.055991 0.558228 0.189966
H2    H     H_    0.445295 0.773938 0.236461 0.174089
H3    H     H_    0.276939 0.681576 0.120262 0.131838
H4    H     H_    0.028085 0.624898 0.162512 0.165126
H5    H     H_    0.949415 0.660204 0.322634 0.212972
H6    H     H_    0.121853 0.747014 0.442607 0.134779
H7    H     H_    0.256852 0.383497 0.930512 0.094612
H8    H     H_    0.233379 0.238828 0.849002 0.102971
H9    H     H_    0.370653 0.108665 0.924871 0.133050
H10   H     H_    0.538220 0.123666 0.082813 0.122270
H11   H     H_    0.570885 0.268304 0.163748 0.149110
H12   H     H_    0.346541 0.940421 0.359404 0.182687
H13   H     H_    0.118978 0.509368 0.937053 0.137333
H14   H     H_    0.913486 0.609534 0.973513 0.180880
H15   H     H_    0.953348 0.771832 0.972997 0.154950
H16   H     H_    0.201434 0.833824 0.936501 0.129495
H17   H     H_    0.408461 0.734199 0.898789 0.159399
H18   H     H_    0.262363 0.228115 0.433300 0.152850
H19   H     H_    0.621884 0.778048 0.641768 0.166402
H20   H     H_    0.854955 0.252671 0.438947 0.147083
H21   H     H_    0.102875 0.318211 0.511573 0.109951
H22   H     H_    0.165010 0.332936 0.690163 0.139827
H23   H     H_    0.977909 0.280572 0.797279 0.149258
H24   H     H_    0.733532 0.211120 0.726296 0.161596
N1    N     N_R   0.500000 0.500020 0.258690 -0.249583
N2    N     N_R   0.500000 0.499980 0.741310 -0.269900
O1    O     O_R   0.500010 0.371450 0.581430 -0.490886
O2    O     O_R   0.499990 0.628550 0.418570 -0.457067
O3    O     O_R   0.500010 0.371460 0.418560 -0.444747
O4    O     O_R   0.499990 0.628540 0.581440 -0.477584
O5    O     O_R   0.274840 0.499990 0.562640 -0.442655
O6    O     O_R   0.725160 0.500010 0.437360 -0.457274
O7    O     O_R   0.274840 0.500000 0.399770 -0.454840
O8    O     O_R   0.725160 0.500000 0.600230 -0.430802

loop_
_geom_bond_atom_site_label_1
_geom_bond_atom_site_label_2
_ccdc_geom_bond_type
C49   F9    S    
Cu1   O5    S    
C50   F10   S    
C3    C23   A    
C7    F1    S    
C49   N2    A    
C7    C8    D    
Cu1   Cu2   S    
Cu2   O2    S    
C26   C27   A    
C29   C30   A    
C23   C45   A    
C6    O8    A    
C13   C29   S    
C36   C37   A    
C19   C21   A    
C51   N2    A    
C30   C31   A    
C11   C14   A    
C45   F8    S    
C48   H17   S    
C18   C20   A    
C51   F2    S    
Cu2   O3    S    
C50   N1    A    
C17   C19   A    
C10   H12   S    
C18   F4    S    
C46   H15   S    
C47   C48   A    
C35   H6    S    
Cu1   O1    S    
C50   C52   A    
Cu2   O7    S    
C45   N1    A    
Cu2   O6    S    
C36   C52   S    
C33   H5    S    
C32   H4    S    
C1    O1    A    
C22   C28   A    
C12   O4    A    
C36   C41   A    
C47   H16   S    
C16   H18   S    
C5    O5    A    
C44   C46   A    
C4    C34   A    
C10   C21   A    
C23   F6    S    
C38   H8    S    
C24   C25   A    
Cu2   N1    S    
C39   C40   A    
C5    C7    S    
C6    C8    S    
C19   F5    S    
C25   C26   A    
C34   F7    S    
C17   H19   S    
C31   H3    S    
C43   C44   A    
C28   H24   S    
C37   C38   A    
C8    F3    S    
C41   H11   S    
C9    C20   A    
C31   C32   A    
C12   C15   S    
C26   H22   S    
C25   H21   S    
C42   C48   A    
C27   H23   S    
C9    C11   A    
C30   H2    S    
C16   C18   A    
C40   C41   A    
C5    O7    A    
C6    O6    A    
C13   C15   A    
C14   C16   A    
C42   C43   A    
C3    C4    S    
C27   C28   A    
C15   C17   A    
C46   C47   A    
C34   C49   A    
Cu1   O4    S    
C12   O2    A    
C10   C13   A    
C3    C52   A    
Cu1   O8    S    
C43   H13   S    
C29   C35   A    
C11   C22   S    
C32   C33   A    
C37   H7    S    
C24   H20   S    
C38   C39   A    
C2    C42   S    
C2    C4    A    
C44   H14   S    
C33   C35   A    
C40   H10   S    
C22   C24   A    
C39   H9    S    
C9    H1    S    
C2    C51   A    
C20   C21   S    
C1    O3    A    
Cu1   N2    S    
C1    C14   S    
