data_mof_unit_33646.cif
_audit_creation_date              2012-12-10T17:51:24-0500
_audit_creation_method            fapswitch 2.2
_symmetry_space_group_name_H-M    P1
_symmetry_Int_Tables_number       1
_space_group_crystal_system       triclinic
_cell_length_a                    14.737602
_cell_length_b                    14.813996
_cell_length_c                    17.044352
_cell_angle_alpha                 106.525495
_cell_angle_beta                  72.168613
_cell_angle_gamma                 115.272803
_cell_volume                      3151.87226064

loop_
_atom_site_label
_atom_site_type_symbol
_atom_type_description
_atom_site_fract_x
_atom_site_fract_y
_atom_site_fract_z
_atom_type_partial_charge
C1    C     C_R   0.119274 0.688047 0.513000 0.814985
C2    C     C_R   0.881185 0.312152 0.486588 0.832565
C3    C     C_R   0.187339 0.795953 0.522869 -0.142790
C4    C     C_R   0.813549 0.205596 0.487734 -0.143333
C5    C     C_R   0.210588 0.973840 0.560505 -0.208210
C6    C     C_R   0.780584 0.039767 0.511285 -0.203312
C7    C     C_R   0.146195 0.871968 0.549560 -0.275293
C8    C     C_R   0.848671 0.137259 0.499635 -0.287813
C9    C     C_R   0.294752 0.823400 0.506566 0.410045
C10   C     C_R   0.710116 0.174547 0.484742 0.428692
C11   C     C_R   0.358510 0.925323 0.529332 -0.019985
C12   C     C_R   0.638049 0.082178 0.509594 -0.020734
C13   C     C_R   0.316476 0.001134 0.549903 0.109583
C14   C     C_R   0.675480 0.011924 0.517126 0.104830
C15   C     C_R   0.463929 0.954314 0.528113 0.058873
C16   C     C_R   0.530383 0.056584 0.525341 0.058707
C17   C     C_R   0.486536 0.130682 0.544938 -0.151046
C18   C     C_R   0.503415 0.886030 0.535486 -0.152681
C19   C     C_R   0.380879 0.103256 0.559202 -0.231522
C20   C     C_R   0.607380 0.915193 0.531579 -0.233858
C21   C     C_R   0.301250 0.335408 0.355699 -0.409203
C22   C     C_R   0.699149 0.665267 0.643810 -0.419677
C23   C     C_R   0.990088 0.506269 0.653637 0.806931
C24   C     C_R   0.012681 0.498422 0.346827 0.805301
C25   C     C_R   0.213362 0.360151 0.381026 0.700278
C26   C     C_R   0.786480 0.639144 0.619772 0.717575
C27   C     C_R   0.285193 0.490150 0.489340 -0.059485
C28   C     C_R   0.715904 0.511563 0.509431 -0.075118
C29   C     C_R   0.374656 0.466062 0.468029 -0.028091
C30   C     C_R   0.627302 0.536877 0.529851 -0.025210
C31   C     C_R   0.380846 0.387014 0.399276 0.094974
C32   C     C_R   0.620956 0.615578 0.598755 0.104274
C33   C     C_R   0.457673 0.516968 0.511696 0.100186
C34   C     C_R   0.544952 0.487086 0.485453 0.092337
C35   C     C_R   0.546924 0.408618 0.415726 -0.219561
C36   C     C_R   0.456412 0.596496 0.580680 -0.228406
C37   C     C_R   0.466574 0.359790 0.373842 -0.174893
C38   C     C_R   0.536366 0.644471 0.623013 -0.191982
C39   C     C_R   0.989823 0.524688 0.742417 -0.083513
C40   C     C_R   0.030899 0.511494 0.261174 -0.067857
C41   C     C_R   0.015304 0.463816 0.774366 -0.231132
C42   C     C_R   0.949815 0.474223 0.220447 -0.211057
C43   C     C_R   0.016914 0.485059 0.858998 -0.230119
C44   C     C_R   0.967788 0.493849 0.140873 -0.229569
C45   C     C_R   0.996629 0.569650 0.912169 0.047980
C46   C     C_R   0.066196 0.555578 0.102597 0.014245
C47   C     C_R   0.966404 0.628323 0.880868 0.507957
C48   C     C_R   0.149184 0.588149 0.141748 0.522056
C49   C     C_R   0.965262 0.606347 0.795594 -0.277911
C50   C     C_R   0.130422 0.566585 0.221411 -0.285449
C51   C     C_2   0.004715 0.594424 0.000899 0.281104
C52   C     C_2   0.082097 0.583820 0.021064 0.286686
Cu1   Cu    Cu3+1 0.916740 0.524770 0.521640 0.990596
Cu2   Cu    Cu3+1 0.083260 0.475230 0.478360 0.985819
H1    H     H_    0.033380 0.399862 0.734079 0.156817
H2    H     H_    0.872865 0.430021 0.250179 0.143620
H3    H     H_    0.531995 0.210896 0.555237 0.200321
H4    H     H_    0.453961 0.811471 0.549732 0.191554
H5    H     H_    0.471627 0.299587 0.320765 0.137937
H6    H     H_    0.531970 0.705232 0.675660 0.142740
H7    H     H_    0.726725 0.452149 0.458369 0.173872
H8    H     H_    0.274530 0.549839 0.540180 0.162129
H9    H     H_    0.307982 0.276752 0.301778 0.149299
H10   H     H_    0.690916 0.723238 0.697863 0.146218
H11   H     H_    0.610115 0.383170 0.391502 0.137732
H12   H     H_    0.394313 0.623696 0.603830 0.133519
H13   H     H_    0.192828 0.596966 0.253960 0.144358
H14   H     H_    0.948810 0.655500 0.770204 0.197948
H15   H     H_    0.903921 0.461764 0.109868 0.187410
H16   H     H_    0.035450 0.435997 0.882800 0.180661
H17   H     H_    0.349723 0.162202 0.575924 0.147696
H18   H     H_    0.634650 0.861416 0.539112 0.150602
H19   H     H_    0.928401 0.159588 0.501120 0.171583
H20   H     H_    0.064404 0.852820 0.560050 0.182607
H21   H     H_    0.177447 0.031352 0.578084 0.143296
H22   H     H_    0.809531 0.987301 0.518748 0.144215
N1    N     N_R   0.208390 0.438070 0.445820 -0.219283
N2    N     N_R   0.791610 0.561930 0.554180 -0.218300
O1    O     O_R   0.020090 0.662480 0.528530 -0.557097
O2    O     O_R   0.979910 0.337520 0.471470 -0.561782
O3    O     O_R   0.160710 0.620650 0.491980 -0.540809
O4    O     O_R   0.839290 0.379350 0.508020 -0.546092
O5    O     O_R   0.921540 0.523360 0.633990 -0.539423
O6    O     O_R   0.078460 0.476640 0.366010 -0.537318
O7    O     O_R   0.062170 0.481520 0.597440 -0.601347
O8    O     O_R   0.937830 0.518480 0.402560 -0.596001
O9    O     O_3   0.864854 0.683457 0.663973 -0.559333
C53   C     C_3   0.884393 0.787092 0.697733 -0.418503
H23   H     H_    0.962318 0.822693 0.711571 0.203102
H24   H     H_    0.829439 0.795723 0.758069 0.166967
H25   H     H_    0.883342 0.828543 0.652980 0.154746
O10   O     O_3   0.134845 0.312784 0.337351 -0.549037
C54   C     C_3   0.098906 0.206239 0.328755 -0.342575
H26   H     H_    0.020271 0.173337 0.316579 0.194849
H27   H     H_    0.093731 0.181831 0.386624 0.142280
H28   H     H_    0.147777 0.174782 0.274080 0.157270
O11   O     O_3   0.170236 0.581492 0.960935 -0.608028
C55   C     C_3   0.227979 0.677123 0.935277 0.093421
H29   H     H_    0.286282 0.723158 0.974127 0.191723
H30   H     H_    0.181014 0.722199 0.941636 0.115143
C56   C     C_3   0.283322 0.661093 0.843550 -0.339092
H31   H     H_    0.337100 0.623521 0.836775 0.223291
H32   H     H_    0.226287 0.611059 0.804341 0.236628
C57   C     C_3   0.343127 0.761606 0.811899 -0.942902
H33   H     H_    0.290680 0.800540 0.818451 0.265374
H34   H     H_    0.379747 0.747370 0.744672 0.250552
H35   H     H_    0.403857 0.811660 0.847680 0.255437
O12   O     O_3   0.923594 0.613078 0.061569 -0.616662
C58   C     C_3   0.959930 0.709753 0.112069 0.088684
H36   H     H_    0.004296 0.769939 0.072911 0.175055
H37   H     H_    0.009828 0.711757 0.150466 0.129016
C59   C     C_3   0.868093 0.732773 0.171659 -0.302467
H38   H     H_    0.816747 0.731182 0.134824 0.219520
H39   H     H_    0.823974 0.673497 0.211501 0.222688
C60   C     C_3   0.902238 0.836502 0.227889 -0.947696
H40   H     H_    0.952191 0.839166 0.266527 0.257445
H41   H     H_    0.833785 0.850677 0.270400 0.260570
H42   H     H_    0.944954 0.897211 0.189416 0.256282
O13   O     O_3   0.949743 0.713601 0.931478 -0.592228
C61   C     C_3   0.846514 0.700611 0.941436 -0.312845
H43   H     H_    0.831284 0.763707 0.989741 0.177680
H44   H     H_    0.792332 0.628414 0.963677 0.177956
H45   H     H_    0.831399 0.704227 0.882624 0.162984
O14   O     O_3   0.245812 0.650662 0.106502 -0.595291
C62   C     C_3   0.313974 0.599089 0.083536 -0.303169
H46   H     H_    0.283642 0.523365 0.043808 0.183688
H47   H     H_    0.331726 0.591317 0.139579 0.149356
H48   H     H_    0.387228 0.644453 0.045887 0.178504
O15   O     O_3   0.681505 0.232610 0.453251 -0.593626
C63   C     C_3   0.692737 0.199348 0.365881 -0.351164
H49   H     H_    0.642252 0.118403 0.350333 0.169215
H50   H     H_    0.774222 0.210819 0.334694 0.155646
H51   H     H_    0.669351 0.244956 0.340156 0.175393
O16   O     O_3   0.337548 0.751366 0.463804 -0.588031
C64   C     C_3   0.363502 0.754304 0.377499 -0.284578
H52   H     H_    0.424979 0.827983 0.363754 0.157322
H53   H     H_    0.295151 0.739776 0.353766 0.147327
H54   H     H_    0.393435 0.693518 0.342974 0.185671

loop_
_geom_bond_atom_site_label_1
_geom_bond_atom_site_label_2
_ccdc_geom_bond_type
C64   H54   S    
O9    C53   S    
C56   H31   S    
C49   H14   S    
C29   C33   A    
C27   C29   A    
C15   C18   A    
C19   H17   S    
C4    C8    A    
Cu2   O6    S    
O11   C55   S    
C64   H52   S    
C39   C41   A    
Cu1   Cu2   S    
C21   C31   A    
C26   N2    A    
C22   C32   A    
C25   N1    A    
Cu1   O1    S    
C3    C7    A    
C58   H37   S    
C36   H12   S    
C35   H11   S    
C43   H16   S    
C1    O3    A    
C15   C16   A    
C46   C52   S    
C52   O11   S    
C33   C36   A    
O12   C58   S    
C34   C35   A    
C26   O9    S    
C57   H33   S    
C42   H2    S    
C11   C15   A    
C18   H4    S    
C41   H1    S    
C12   C16   A    
C44   C46   A    
C51   O12   S    
C60   H41   S    
C62   H48   S    
Cu1   O8    S    
C32   C38   A    
C28   N2    A    
C50   H13   S    
C5    C13   A    
C61   H45   S    
Cu2   N1    S    
C9    O16   S    
C48   C50   A    
C56   H32   S    
C8    H19   S    
C41   C43   A    
C42   C44   A    
C10   C12   A    
C59   H39   S    
C59   H38   S    
C61   H44   S    
C7    H20   S    
Cu2   O2    S    
C45   C47   A    
C46   C48   A    
C30   C34   A    
C51   C52   D    
C14   C20   A    
C59   C60   S    
C47   C49   A    
C58   C59   S    
C5    C7    A    
C13   C19   A    
C16   C17   A    
C6    C8    A    
C31   C37   A    
Cu1   O4    S    
C1    C3    S    
C5    H21   S    
C63   H50   S    
C3    C9    A    
C27   H8    S    
C6    C14   A    
C43   C45   A    
C53   H25   S    
C60   H42   S    
C33   C34   A    
C44   H15   S    
C54   H26   S    
C9    C11   A    
C37   H5    S    
C23   O5    A    
C38   H6    S    
C39   C49   A    
C53   H24   S    
C54   H28   S    
C55   H30   S    
C23   O7    A    
C62   H46   S    
C1    O1    A    
C2    O4    A    
C63   H51   S    
C4    C10   A    
C36   C38   A    
C61   H43   S    
O15   C63   S    
C64   H53   S    
C21   C25   A    
C25   O10   S    
C35   C37   A    
C12   C14   A    
C40   C42   A    
C27   N1    A    
C48   O14   S    
Cu2   O7    S    
O13   C61   S    
C6    H22   S    
C57   H34   S    
C56   C57   S    
C55   C56   S    
O16   C64   S    
Cu1   O5    S    
C28   C30   A    
C63   H49   S    
C24   O6    A    
C10   O15   S    
C29   C31   A    
C58   H36   S    
C28   H7    S    
C30   C32   A    
C11   C13   A    
C40   C50   A    
C2    C4    S    
C47   O13   S    
O10   C54   S    
C24   C40   S    
Cu1   N2    S    
C18   C20   A    
Cu2   O3    S    
C21   H9    S    
C2    O2    A    
C22   H10   S    
C17   C19   A    
C53   H23   S    
C54   H27   S    
C55   H29   S    
C22   C26   A    
C62   H47   S    
C45   C51   S    
C20   H18   S    
C24   O8    A    
C23   C39   S    
C57   H35   S    
C60   H40   S    
C17   H3    S    
O14   C62   S    
