data_mof_unit_15845.cif
_audit_creation_date              2013-03-05T16:00:50-0500
_audit_creation_method            fapswitch 2.2
_symmetry_space_group_name_H-M    P1
_symmetry_Int_Tables_number       1
_space_group_crystal_system       triclinic
_cell_length_a                    8.225551
_cell_length_b                    12.779947
_cell_length_c                    18.716116
_cell_angle_alpha                 99.31598
_cell_angle_beta                  90.917848
_cell_angle_gamma                 98.838958
_cell_volume                      1916.78257279

loop_
_atom_site_label
_atom_site_type_symbol
_atom_site_description
_atom_site_fract_x
_atom_site_fract_y
_atom_site_fract_z
_atom_type_partial_charge
P1    P     P_3+3 0.041040 0.394770 0.336330 0.469843
O1    O     O_2   0.873090 0.425890 0.325140 -0.362212
O2    O     O_3   0.122420 0.434370 0.414380 -0.413979
O3    O     O_3   0.659500 0.627100 0.368810 -0.358268
O4    O     O_2   0.769627 0.539614 0.243992 -0.318738
O5    O     O_3   0.005518 0.254692 0.317701 -0.573404
O6    O     O_3   0.717942 0.738105 0.254175 -0.442473
H1    H     H_    0.516310 0.782955 0.312569 0.030002
C1    C     C_3   0.667102 0.918608 0.283254 -0.877568
H2    H     H_    0.734216 0.933270 0.336657 0.258165
H3    H     H_    0.751675 0.939674 0.240360 0.267519
P2    P     P_3+3 0.672880 0.754030 0.556100 0.511614
P3    P     P_3+3 0.131662 0.823981 0.404933 0.487905
O7    O     O_2   0.848200 0.768190 0.534530 -0.364691
O8    O     O_3   0.081160 0.685950 0.404810 -0.333238
O9    O     O_2   0.023797 0.878296 0.461484 -0.403915
O10   O     O_3   0.723581 0.803219 0.648781 -0.541654
O11   O     O_3   0.058824 0.856627 0.323762 -0.460683
C2    C     C_3   0.179772 0.853158 0.271169 0.506558
H4    H     H_    0.305785 0.871302 0.295518 -0.072335
C3    C     C_3   0.166288 0.938982 0.224339 -1.002244
H5    H     H_    0.039037 0.930317 0.200941 0.278736
H6    H     H_    0.200238 0.019740 0.257385 0.265906
C4    C     C_3   0.211427 0.785145 0.615678 0.336501
H7    H     H_    0.318781 0.757854 0.588337 0.033469
H8    H     H_    0.104268 0.756995 0.578148 0.176011
C5    C     C_3   0.237026 0.906806 0.631455 -0.789439
H9    H     H_    0.344050 0.936790 0.669927 0.260440
H10   H     H_    0.260533 0.939390 0.580650 0.250549
H11   H     H_    0.125578 0.934661 0.655628 0.268840
Ba1   Ba    Ba6+2 0.852780 0.548340 0.465070 1.613421
C6    C     C_3   0.956652 0.211485 0.379332 0.368383
H12   H     H_    0.821838 0.204215 0.380926 0.086903
H13   H     H_    0.015615 0.258136 0.430881 0.130928
C7    C     C_3   0.003986 0.100710 0.371372 -0.915570
H14   H     H_    0.957103 0.054452 0.318135 0.277002
H15   H     H_    0.953378 0.058053 0.415017 0.232180
H16   H     H_    0.139409 0.107783 0.373208 0.266681
C8    C     C_3   0.613312 0.757728 0.695307 0.400423
H17   H     H_    0.488256 0.740094 0.671738 0.107341
C9    C     C_3   0.612121 0.836798 0.765756 -0.984588
H18   H     H_    0.739838 0.869253 0.787232 0.279960
H19   H     H_    0.543413 0.797354 0.807378 0.219520
H20   H     H_    0.549066 0.903813 0.755747 0.288497
P4    P     P_3+3 0.148670 0.605320 0.663680 0.476370
O12   O     O_2   0.316610 0.574140 0.674900 -0.377455
O13   O     O_3   0.067290 0.565720 0.585630 -0.391376
O14   O     O_3   0.530210 0.372990 0.631200 -0.271621
O15   O     O_3   0.188283 0.745866 0.681084 -0.578881
P5    P     P_3+3 0.066285 0.175379 0.594669 0.507098
O16   O     O_3   0.611340 0.366290 0.463630 -0.385997
O17   O     O_3   0.108550 0.314140 0.595200 -0.396551
O18   O     O_2   0.200677 0.123700 0.551800 -0.329311
O19   O     O_3   0.097922 0.151367 0.682824 -0.482600
Ba2   Ba    Ba6+2 0.337060 0.451750 0.534940 1.608674
P6    P     P_3+3 0.644085 0.611398 0.274968 0.522311
C10   C     C_3   0.592121 0.801111 0.266035 0.400910
H21   H     H_    0.512495 0.788525 0.216069 0.037712
H22   H     H_    0.569465 0.970027 0.286358 0.226175
O20   O     O_3   0.578370 0.633800 0.536380 -0.355087
C11   C     C_3   0.461119 0.281876 0.315235 0.374174
H23   H     H_    0.352819 0.311999 0.340825 0.103616
H24   H     H_    0.568159 0.347583 0.322415 0.130982
C12   C     C_3   0.420839 0.246273 0.234556 -0.910173
H25   H     H_    0.299199 0.193767 0.225836 0.256660
H26   H     H_    0.416843 0.317075 0.207640 0.221866
H27   H     H_    0.516423 0.201250 0.209637 0.304581
P7    P     P_3+3 0.521493 0.230799 0.439181 0.424773
O21   O     O_2   0.341510 0.231850 0.465510 -0.360772
O22   O     O_3   0.499144 0.194188 0.344931 -0.593075
H28   H     H_    0.253216 0.932902 0.179527 0.233889
C13   C     C_3   0.035565 0.230062 0.731176 0.492650
H29   H     H_    0.118279 0.308483 0.735455 0.120419
H30   H     H_    0.909626 0.239045 0.713494 0.017420
C14   C     C_3   0.027170 0.197221 0.805767 -0.895648
H31   H     H_    0.152225 0.191612 0.826259 0.269890
H32   H     H_    0.975610 0.257712 0.844339 0.221047
H33   H     H_    0.947127 0.118191 0.802853 0.279337
P8    P     P_3+3 0.550884 0.380597 0.725175 0.526008
C15   C     C_3   0.554810 0.191077 0.760649 0.864481
H34   H     H_    0.677053 0.233160 0.782688 -0.099180
O23   O     O_2   0.444110 0.465049 0.757049 -0.367893
O24   O     O_3   0.444934 0.261613 0.748567 -0.542750
H35   H     H_    0.574245 0.075686 0.832742 0.256120
C16   C     C_3   0.483537 0.124662 0.816922 -0.969110
H36   H     H_    0.368586 0.070762 0.794843 0.257887
H37   H     H_    0.455325 0.178544 0.866341 0.241946
C17   C     C_R   0.007843 0.432691 0.044962 -0.071742
C18   C     C_R   0.926620 0.361912 0.089681 0.293436
C19   C     C_R   0.775420 0.403930 0.954149 -0.052060
C20   C     C_R   0.941953 0.441813 0.975616 0.055047
C21   C     C_R   0.716583 0.402763 0.884015 -0.078268
C22   C     C_R   0.819832 0.442755 0.832652 -0.033413
C23   C     C_R   0.979247 0.497408 0.855975 0.009016
C24   C     C_R   0.039515 0.498964 0.928381 0.056698
C25   C     C_R   0.768359 0.431015 0.759033 0.085492
C26   C     C_R   0.881402 0.467428 0.709437 -0.411166
C27   C     C_R   0.026847 0.538084 0.732951 0.233587
C28   C     C_R   0.075608 0.554010 0.807851 -0.042911
C29   C     C_R   0.163441 0.493423 0.070084 0.015645
C30   C     C_R   0.220740 0.494181 0.142806 0.056827
C31   C     C_R   0.118927 0.441700 0.191493 -0.024748
C32   C     C_R   0.975401 0.373420 0.162957 -0.184753
H38   H     H_    0.847808 0.449683 0.652158 0.204913
H39   H     H_    0.588257 0.371100 0.871123 0.151863
H40   H     H_    0.906245 0.321853 0.195973 0.193342
C33   C     C_R   0.213627 0.627188 0.837302 -0.095069
C34   C     C_R   0.265423 0.634487 0.909617 -0.089024
C35   C     C_R   0.193533 0.560762 0.953509 0.073652
C36   C     C_R   0.262531 0.552517 0.023082 -0.098602
C37   C     C_R   0.428660 0.596658 0.047361 0.319480
C38   C     C_R   0.380167 0.546966 0.166932 -0.064765
C39   C     C_R   0.483087 0.592545 0.117720 -0.297045
C40   C     C_R   0.433026 0.552583 0.239835 0.108802
C41   C     C_R   0.324024 0.512320 0.289003 -0.489533
C42   C     C_R   0.168516 0.455118 0.266374 0.316297
H41   H     H_    0.280639 0.681352 0.805432 0.149518
H42   H     H_    0.609977 0.625431 0.133019 0.215314
H43   H     H_    0.364394 0.520545 0.345214 0.166505
H44   H     H_    0.686026 0.377764 0.991722 0.153605
H45   H     H_    0.360621 0.700668 0.930373 0.164770
C43   C     C_R   0.767368 0.181042 0.524623 -0.451302
C44   C     C_R   0.437626 0.806814 0.465570 -0.472669
C45   C     C_R   0.409934 0.982316 0.440572 -0.207992
C46   C     C_R   0.346779 0.874280 0.436355 0.152484
C47   C     C_R   0.585392 0.847779 0.505527 0.263109
C48   C     C_R   0.650607 0.959142 0.511264 -0.032306
C49   C     C_R   0.560994 0.026647 0.477589 -0.011980
C50   C     C_R   0.621074 0.137963 0.484800 0.287172
C51   C     C_R   0.860911 0.115431 0.553975 0.181786
C52   C     C_R   0.801450 0.005722 0.549158 -0.052381
H46   H     H_    0.336365 0.031275 0.416842 0.169154
H47   H     H_    0.874360 0.958943 0.575682 0.182631
H48   H     H_    0.813248 0.266054 0.529647 0.149767
H49   H     H_    0.385958 0.722905 0.462071 0.160029
C53   C     C_2   0.667286 0.657917 0.710440 0.590989
H50   H     H_    0.709746 0.650028 0.764271 -0.014406
O25   O     O_2   0.665452 0.584163 0.660470 -0.540586
N1    N     N_R   0.576832 0.120079 0.693617 0.195693
O26   O     O_R   0.494201 0.123649 0.634529 -0.373202
O27   O     O_R   0.681092 0.053104 0.692709 -0.484245
C54   C     C_2   0.156160 0.745466 0.223319 0.528398
H51   H     H_    0.228988 0.732738 0.175844 -0.058277
O28   O     O_2   0.054490 0.672067 0.236543 -0.495184
N2    N     N_R   0.811314 0.268147 0.059770 0.225991
O29   O     O_R   0.686251 0.234987 0.096440 -0.417258
O30   O     O_R   0.843620 0.207499 0.000536 -0.391140
N3    N     N_R   0.550858 0.638691 0.001014 0.219584
O31   O     O_R   0.573226 0.583538 0.938310 -0.432001
O32   O     O_R   0.655969 0.724506 0.025591 -0.390376

loop_
_geom_bond_atom_site_label_1
_geom_bond_atom_site_label_2
_geom_bond_distance
_ccdc_geom_bond_type
C11   O22   1.402272 S    
O14   Ba2   2.787469 S    
O5    C6    1.396377 S    
C4    H7    1.102100 S    
C29   C36   1.434373 A    
C47   C48   1.427892 A    
C5    H10   1.106464 S    
C9    H18   1.111672 S    
O4    P6    1.543438 D    
C2    H4    1.101190 S    
C4    C5    1.515839 S    
C34   H45   1.076933 S    
C49   C50   1.416310 A    
C38   C40   1.412677 A    
N2    O29   1.300663 A    
C19   C20   1.409903 A    
C8    C9    1.527043 S    
P4    O12   1.515952 D    
C30   C38   1.410393 A    
C18   N2    1.437159 S    
P5    O19   1.748944 S    
P3    O11   1.758940 S    
C3    H28   1.111716 S    
O14   P8    1.749820 S    
C3    H5    1.110689 S    
C2    C3    1.526139 S    
N3    O32   1.301702 A    
O11   C2    1.411183 S    
P4    C27   1.887075 S    
C15   O24   1.410824 S    
C44   C46   1.392238 A    
P2    C47   1.859981 S    
C41   C42   1.394643 A    
P1    Ba1   3.402658 S    
C34   C35   1.416762 A    
C45   H46   1.073624 S    
P1    O1    1.515610 D    
O10   C8    1.395027 S    
C11   H24   1.109458 S    
C36   C37   1.432576 A    
C43   H48   1.082327 S    
P5    C51   1.841993 S    
O2    Ba2   2.801330 S    
C7    H14   1.103593 S    
P7    O21   1.569110 D    
O12   Ba2   2.846943 S    
P5    O17   1.752278 S    
C33   C34   1.396596 A    
P1    C42   1.879094 S    
C1    H2    1.108499 S    
O7    Ba1   2.904695 S    
C43   C50   1.393369 A    
O16   Ba2   2.906184 S    
C11   H23   1.109289 S    
O17   Ba2   2.755367 S    
C45   C49   1.404957 A    
P3    C46   1.839771 S    
C16   H37   1.110549 S    
Ba1   O13   2.800682 S    
Ba2   O20   2.812896 S    
C18   C32   1.400868 A    
C5    H11   1.110516 S    
C9    H19   1.110876 S    
P7    C50   1.847093 S    
O6    P6    1.746980 S    
C13   C14   1.521102 S    
C38   C39   1.396962 A    
N2    O30   1.301891 A    
C26   C27   1.401006 A    
C8    C53   1.480334 S    
P4    O13   1.569502 S    
P5    O18   1.543759 D    
C12   H27   1.109344 S    
P1    O5    1.745168 S    
O3    Ba1   2.788125 S    
C30   C31   1.425224 A    
C7    H16   1.103189 S    
H35   C16   1.110215 S    
C13   H29   1.111971 S    
C53   O25   1.213729 D    
C24   C35   1.415315 A    
C8    H17   1.088825 S    
C15   H34   1.104154 S    
C44   C47   1.399742 A    
C16   H36   1.111057 S    
C43   C51   1.389532 A    
O8    Ba1   2.754734 S    
C44   H49   1.082205 S    
O1    Ba1   2.846607 S    
P1    O2    1.569502 S    
C6    H13   1.109696 S    
Ba1   O20   2.907084 S    
P2    O10   1.766705 S    
C11   C12   1.520562 S    
C14   H31   1.108724 S    
C6    C7    1.510279 S    
C15   C16   1.526310 S    
H1    C10   1.113367 S    
C1    H3    1.109618 S    
C19   C21   1.388729 A    
C17   C20   1.427483 A    
P4    O15   1.750955 S    
C25   C26   1.406183 A    
C23   C24   1.431538 A    
C37   C39   1.395716 A    
C22   C23   1.413978 A    
C17   C29   1.420862 A    
N3    O31   1.298813 A    
O2    Ba1   2.924656 S    
C14   H32   1.108395 S    
C12   H26   1.108964 S    
Ba2   O21   2.904926 S    
C13   H30   1.110715 S    
P2    O7    1.495824 D    
C2    C54   1.499061 S    
C41   H43   1.081858 S    
C3    H6    1.106774 S    
P2    Ba1   3.439294 S    
C9    H20   1.105864 S    
C54   O28   1.217081 D    
C48   C49   1.428787 A    
O13   Ba2   2.925555 S    
C4    O15   1.401346 S    
C7    H15   1.105933 S    
C4    H8    1.095744 S    
Ba1   O16   2.813516 S    
C53   H50   1.086125 S    
C52   H47   1.077149 S    
P8    O23   1.546536 D    
N1    O26   1.299556 A    
C40   C41   1.397646 A    
C22   C25   1.412487 A    
C15   N1    1.455778 S    
C28   C33   1.397890 A    
C6    H12   1.099785 S    
P3    O8    1.748659 S    
C51   C52   1.400024 A    
P8    C25   1.869225 S    
C37   N3    1.436716 S    
C12   H25   1.109505 S    
P8    O24   1.756108 S    
N1    O27   1.299905 A    
C10   H21   1.108471 S    
C23   C28   1.421395 A    
C21   C22   1.399447 A    
O6    C10   1.405117 S    
C32   H40   1.080573 S    
C1    C10   1.513745 S    
O16   P7    1.758766 S    
C31   C32   1.397417 A    
C14   H33   1.110505 S    
C48   C52   1.415981 A    
C26   H38   1.081468 S    
C31   C42   1.429084 A    
C20   C24   1.417994 A    
C39   H42   1.079198 S    
P2    O20   1.594246 S    
C21   H39   1.079409 S    
O19   C13   1.404368 S    
C17   C18   1.429127 A    
P4    Ba2   3.403252 S    
P7    O22   1.749401 S    
C27   C28   1.425470 A    
P3    O9    1.539733 D    
C5    H9    1.107697 S    
P6    C40   1.847622 S    
C54   H51   1.083993 S    
C29   C30   1.431271 A    
Ba1   Ba2   4.579167 S    
C35   C36   1.438013 A    
C1    H22   1.109731 S    
C33   H41   1.079696 S    
O3    P6    1.735537 S    
C19   H44   1.078962 S    
C45   C46   1.387583 A    
