data_mof_unit_16597.cif
_audit_creation_date              2012-12-10T18:14:26-0500
_audit_creation_method            fapswitch 2.2
_symmetry_space_group_name_H-M    P1
_symmetry_Int_Tables_number       1
_space_group_crystal_system       triclinic
_cell_length_a                    12.59658
_cell_length_b                    13.175974
_cell_length_c                    19.135543
_cell_angle_alpha                 90.444909
_cell_angle_beta                  102.302871
_cell_angle_gamma                 82.77421
_cell_volume                      3077.79449713

loop_
_atom_site_label
_atom_site_type_symbol
_atom_type_description
_atom_site_fract_x
_atom_site_fract_y
_atom_site_fract_z
_atom_type_partial_charge
C1    C     C_R   0.439180 0.691002 0.493781 0.857689
C2    C     C_R   0.517545 0.446219 0.148743 0.089261
C3    C     C_R   0.698019 0.068941 0.606726 -0.200157
C4    C     C_R   0.501055 0.498647 0.634484 0.846805
C5    C     C_R   0.596810 0.201458 0.523866 -0.051796
C6    C     C_R   0.306237 0.833198 0.435156 -0.185853
C7    C     C_R   0.281861 0.935527 0.414813 -0.160084
C8    C     C_R   0.353859 0.004509 0.443168 -0.190811
C9    C     C_R   0.450533 0.972274 0.495250 0.092459
C10   C     C_R   0.467433 0.870886 0.522106 0.093103
C11   C     C_R   0.531163 0.036884 0.521488 0.082829
C12   C     C_R   0.505769 0.487357 0.710850 -0.032001
C13   C     C_R   0.619745 0.003759 0.579421 0.179328
C14   C     C_R   0.627262 0.907332 0.610569 -0.253012
C15   C     C_R   0.551497 0.841964 0.582719 -0.209698
C16   C     C_R   0.560837 0.309120 0.508709 0.862813
C17   C     C_R   0.526170 0.133913 0.491770 -0.252904
C18   C     C_R   0.685507 0.168564 0.579749 -0.193278
C19   C     C_R   0.400799 0.799946 0.486793 -0.113996
C20   C     C_R   0.087157 0.349749 0.396548 0.017128
C21   C     C_R   0.800904 0.628105 0.585309 0.022249
C22   C     C_R   0.905887 0.655825 0.602859 -0.250280
C23   C     C_R   0.521925 0.434892 0.073385 0.287863
C24   C     C_R   0.986630 0.607436 0.570082 -0.194189
C25   C     C_R   0.962510 0.530259 0.519391 0.030135
C26   C     C_R   0.854049 0.505179 0.503490 0.237307
C27   C     C_R   0.041132 0.477274 0.484089 -0.039861
C28   C     C_R   0.500256 0.497719 0.365708 0.852361
C29   C     C_R   0.009402 0.401998 0.432341 0.157248
C30   C     C_R   0.900995 0.380672 0.417775 -0.306197
C31   C     C_R   0.826115 0.429575 0.453907 -0.219283
C32   C     C_R   0.150673 0.496257 0.498163 -0.068320
C33   C     C_R   0.194151 0.373648 0.413709 -0.036874
C34   C     C_R   0.522136 0.437691 0.932364 0.288772
C35   C     C_R   0.413836 0.462560 0.734247 -0.190497
C36   C     C_R   0.420021 0.444225 0.806283 -0.165144
C37   C     C_R   0.518072 0.450873 0.856084 0.087973
C38   C     C_R   0.609971 0.476117 0.832742 -0.163277
C39   C     C_R   0.603817 0.494364 0.760543 -0.200265
C40   C     C_3   0.059488 0.270232 0.340095 -0.443415
C41   C     C_3   0.049240 0.167706 0.374014 -0.330292
C42   C     C_3   0.009383 0.091749 0.316789 -0.893481
C43   C     C_R   0.419545 0.438788 0.171005 -0.164068
C44   C     C_R   0.412982 0.457712 0.241512 -0.199690
C45   C     C_R   0.504374 0.484153 0.290610 -0.031100
C46   C     C_R   0.602566 0.490782 0.268474 -0.200260
C47   C     C_R   0.609169 0.471722 0.198118 -0.167376
H1    H     H_    0.337221 0.456282 0.696941 0.158621
H2    H     H_    0.872097 0.325167 0.378778 0.168311
H3    H     H_    0.347634 0.425556 0.822818 0.150189
H4    H     H_    0.182221 0.551180 0.536394 0.132781
H5    H     H_    0.737959 0.665039 0.610794 0.129046
H6    H     H_    0.066408 0.632339 0.585471 0.137397
H7    H     H_    0.924652 0.714667 0.641716 0.147852
H8    H     H_    0.746422 0.406085 0.441788 0.215622
H9    H     H_    0.686480 0.482318 0.870136 0.149331
H10   H     H_    0.676069 0.512818 0.743700 0.155693
H11   H     H_    0.347486 0.419529 0.133920 0.148894
H12   H     H_    0.692166 0.882100 0.656267 0.141361
H13   H     H_    0.336628 0.451113 0.257514 0.153763
H14   H     H_    0.674751 0.510001 0.305484 0.165476
H15   H     H_    0.685738 0.478189 0.182401 0.149273
H16   H     H_    0.740664 0.221240 0.605195 0.158661
H17   H     H_    0.927104 0.121900 0.284966 0.267313
H18   H     H_    0.067558 0.077489 0.280520 0.259995
H19   H     H_    0.003344 0.018155 0.342647 0.250269
H20   H     H_    0.130325 0.135494 0.406325 0.219572
H21   H     H_    0.991249 0.177849 0.410529 0.230320
H22   H     H_    0.983235 0.299201 0.300976 0.207313
H23   H     H_    0.765510 0.044540 0.651083 0.137520
H24   H     H_    0.124591 0.256953 0.308631 0.192833
H25   H     H_    0.464383 0.161662 0.445557 0.138009
H26   H     H_    0.253863 0.779344 0.408053 0.158940
H27   H     H_    0.330456 0.082452 0.424016 0.125407
H28   H     H_    0.209451 0.960511 0.374360 0.155345
H29   H     H_    0.558746 0.768596 0.609482 0.152197
H30   H     H_    0.256253 0.335638 0.387772 0.127683
N1    N     N_R   0.613590 0.452200 0.981393 -0.181203
N2    N     N_R   0.613459 0.450845 0.050692 -0.181824
N3    N     N_R   0.431483 0.417456 0.024444 -0.180946
N4    N     N_R   0.431619 0.418789 0.955160 -0.181017
N5    N     N_R   0.222200 0.444680 0.463280 -0.110364
N6    N     N_R   0.776960 0.554780 0.536340 -0.129913
O1    O     O_R   0.366740 0.627160 0.482470 -0.613974
O2    O     O_R   0.544830 0.662520 0.505920 -0.606222
O3    O     O_R   0.410920 0.482320 0.590130 -0.616752
O4    O     O_R   0.589010 0.517690 0.613590 -0.629960
O5    O     O_R   0.455170 0.337480 0.494080 -0.608127
O6    O     O_R   0.633260 0.372840 0.517530 -0.638650
O7    O     O_R   0.410990 0.482310 0.386410 -0.619972
O8    O     O_R   0.589080 0.517680 0.409870 -0.633644
Zn1   Zn    Zn3+2 0.381090 0.476390 0.484340 0.939294
Zn2   Zn    Zn3+2 0.618910 0.523610 0.515660 0.930424

loop_
_geom_bond_atom_site_label_1
_geom_bond_atom_site_label_2
_ccdc_geom_bond_type
C26   N6    A    
C40   H24   S    
C27   C29   A    
C34   C37   S    
C41   C42   S    
C35   C36   A    
C47   H15   S    
C7    C8    A    
C41   H20   S    
C4    O4    A    
C45   C46   A    
C1    O1    A    
C14   H12   S    
C29   C30   A    
C36   C37   A    
C10   C15   A    
C38   C39   A    
C20   C40   S    
C18   H16   S    
C5    C17   A    
C39   H10   S    
N5    Zn1   S    
C3    C18   A    
C5    C16   S    
C43   H11   S    
O2    Zn2   S    
O5    Zn1   S    
C8    C9    A    
C42   H18   S    
C34   N4    A    
C23   N3    A    
C4    C12   S    
C33   N5    A    
C10   C19   A    
C3    C13   A    
C15   H29   S    
C16   O6    A    
C13   C14   A    
C35   H1    S    
C41   H21   S    
C20   C29   A    
C1    O2    A    
C28   C45   S    
C1    C19   S    
C40   H22   S    
C46   H14   S    
C21   N6    A    
C3    H23   S    
C24   C25   A    
C22   H7    S    
N1    N2    A    
C7    H28   S    
C5    C18   A    
C25   C26   A    
C43   C44   A    
C32   H4    S    
C37   C38   A    
C6    C19   A    
O8    Zn2   S    
O7    Zn1   S    
C2    C43   A    
C8    H27   S    
C38   H9    S    
C12   C35   A    
C9    C11   A    
C20   C33   A    
C40   C41   S    
C30   H2    S    
C22   C24   A    
C42   H17   S    
C36   H3    S    
C44   C45   A    
C6    H26   S    
C42   H19   S    
C9    C10   A    
C46   C47   A    
C11   C17   A    
C27   C32   A    
N3    N4    A    
C6    C7    A    
C2    C47   A    
C25   C27   A    
C32   N5    A    
C23   N2    A    
C12   C39   A    
C24   H6    S    
O3    Zn1   S    
C34   N1    A    
C11   C13   A    
C33   H30   S    
C30   C31   A    
C44   H13   S    
O4    Zn2   S    
C28   O8    A    
O6    Zn2   S    
C26   C31   A    
C4    O3    A    
C17   H25   S    
C2    C23   S    
C16   O5    A    
C14   C15   A    
C28   O7    A    
O1    Zn1   S    
C31   H8    S    
C21   C22   A    
C21   H5    S    
N6    Zn2   S    
