data_mof_unit_24608.cif
_audit_creation_date              2012-12-11T14:58:03-0500
_audit_creation_method            fapswitch 2.2
_symmetry_space_group_name_H-M    P1
_symmetry_Int_Tables_number       1
_space_group_crystal_system       triclinic
_cell_length_a                    6.938108
_cell_length_b                    16.670804
_cell_length_c                    17.140155
_cell_angle_alpha                 100.453086
_cell_angle_beta                  90.323635
_cell_angle_gamma                 90.317927
_cell_volume                      1949.51954558

loop_
_atom_site_label
_atom_site_type_symbol
_atom_type_description
_atom_site_fract_x
_atom_site_fract_y
_atom_site_fract_z
_atom_type_partial_charge
O1    O     O_R   0.506180 0.438940 0.579430 -0.541213
O2    O     O_R   0.170520 0.406230 0.413590 -0.538283
O3    O     O_R   0.005180 0.561060 0.420570 -0.537594
C1    C     C_R   0.339306 0.383316 0.385108 0.696135
O4    O     O_R   0.176140 0.429310 0.578370 -0.546010
O5    O     O_R   0.010830 0.584300 0.586530 -0.536229
C2    C     C_R   0.343485 0.413563 0.605139 0.694495
O6    O     O_R   0.500520 0.415700 0.413470 -0.536023
O7    O     O_3   0.340830 0.550820 0.502480 -0.369647
V1    V     V_3+5 0.064040 0.490570 0.499540 1.417056
O8    O     O_R   0.681400 0.593770 0.586410 -0.535813
C3    C     C_R   0.850716 0.618298 0.613423 0.784601
O9    O     O_R   0.675790 0.570690 0.421630 -0.543156
C4    C     C_R   0.842325 0.584727 0.393407 0.734821
V2    V     V_3+5 0.564650 0.509430 0.500460 1.411378
O10   O     O_3   0.837730 0.449180 0.497520 -0.370869
C5    C     C_R   0.929083 0.859125 0.165243 -0.063518
C6    C     C_R   0.837698 0.636785 0.331138 -0.069593
C7    C     C_R   0.644254 0.697298 0.236978 -0.208251
C8    C     C_R   0.664313 0.642181 0.288857 -0.177629
C9    C     C_R   0.993338 0.687086 0.318569 -0.257180
C10   C     C_R   0.972062 0.744521 0.267894 0.168939
C11   C     C_R   0.795976 0.749862 0.226784 0.166457
C12   C     C_R   0.774919 0.807289 0.175988 -0.251496
C13   C     C_R   0.102043 0.853888 0.207889 -0.163181
C14   C     C_R   0.123113 0.797660 0.258516 -0.213968
H1    H     H_    0.641584 0.809861 0.143269 0.121408
H2    H     H_    0.224054 0.892745 0.201191 0.123319
H3    H     H_    0.508577 0.699704 0.205888 0.121579
H4    H     H_    0.258450 0.795427 0.289904 0.119336
H5    H     H_    0.541132 0.604551 0.297003 0.121801
H6    H     H_    0.127282 0.684273 0.350830 0.116496
H7    H     H_    0.672067 0.635004 0.969289 0.113019
C15   C     C_R   0.044689 0.903160 0.731337 -0.172244
C16   C     C_R   0.091681 0.919126 0.656724 0.168622
C17   C     C_R   0.041529 0.862505 0.589514 -0.175854
C18   C     C_R   0.949951 0.788848 0.596192 0.240779
C19   C     C_R   0.923872 0.767062 0.672182 0.037674
C20   C     C_R   0.959224 0.828160 0.740606 -0.012958
C21   C     C_R   0.859768 0.687811 0.681857 -0.181367
C22   C     C_R   0.811541 0.673737 0.758725 0.050905
C23   C     C_R   0.829553 0.737758 0.825760 0.076135
C24   C     C_R   0.903784 0.814774 0.816666 -0.156398
C25   C     C_R   0.744923 0.596322 0.770483 -0.151044
C26   C     C_R   0.694727 0.582955 0.845704 -0.117774
C27   C     C_R   0.710645 0.645760 0.910919 -0.117612
C28   C     C_R   0.777871 0.722284 0.901461 -0.134300
H8    H     H_    0.076605 0.950507 0.781837 0.131710
H9    H     H_    0.064229 0.877361 0.531240 0.117203
H10   H     H_    0.730447 0.545204 0.721919 0.101514
H11   H     H_    0.643477 0.523440 0.853404 0.115359
H12   H     H_    0.790777 0.768741 0.954268 0.096380
H13   H     H_    0.553584 0.490530 0.151895 0.118509
C29   C     C_R   0.248029 0.215370 0.396389 -0.138338
C30   C     C_R   0.211411 0.135115 0.404805 -0.117452
C31   C     C_R   0.240751 0.071483 0.341505 -0.126931
C32   C     C_R   0.307118 0.087591 0.269302 -0.135044
C33   C     C_R   0.344143 0.168439 0.258560 0.073292
C34   C     C_R   0.313777 0.233762 0.323584 0.066615
C35   C     C_R   0.413658 0.184387 0.184982 -0.186803
C36   C     C_R   0.453032 0.265977 0.176806 0.066928
C37   C     C_R   0.422459 0.331296 0.241796 0.073515
C38   C     C_R   0.352960 0.315366 0.315372 -0.186375
C39   C     C_R   0.519163 0.284365 0.104055 -0.139272
C40   C     C_R   0.555933 0.364608 0.095674 -0.117192
C41   C     C_R   0.526122 0.428247 0.158910 -0.125718
C42   C     C_R   0.459315 0.412139 0.231039 -0.137104
H14   H     H_    0.224776 0.262563 0.447680 0.105222
H15   H     H_    0.161002 0.122210 0.460936 0.114983
H16   H     H_    0.213249 0.009198 0.348517 0.116058
H17   H     H_    0.331231 0.035898 0.222399 0.097286
H18   H     H_    0.542653 0.237188 0.052778 0.105464
H19   H     H_    0.606754 0.377495 0.039602 0.114078
H20   H     H_    0.434712 0.463809 0.277887 0.096072
C43   C     C_R   0.426090 0.138350 0.832758 -0.071890
C44   C     C_R   0.339317 0.360580 0.666477 -0.070883
C45   C     C_R   0.150036 0.303576 0.763857 -0.202981
C46   C     C_R   0.171052 0.358815 0.712127 -0.159715
C47   C     C_R   0.489015 0.306385 0.675196 -0.248628
C48   C     C_R   0.467889 0.249906 0.726962 0.161713
C49   C     C_R   0.296649 0.248226 0.771459 0.159386
C50   C     C_R   0.275852 0.192067 0.823525 -0.246703
C51   C     C_R   0.593961 0.139715 0.786795 -0.167805
C52   C     C_R   0.614466 0.194513 0.734580 -0.198120
H21   H     H_    0.146466 0.192233 0.858720 0.124155
H22   H     H_    0.712111 0.098746 0.792024 0.129400
H23   H     H_    0.018055 0.303763 0.797417 0.121617
H24   H     H_    0.746304 0.194167 0.700900 0.121303
H25   H     H_    0.053001 0.399888 0.707085 0.126962
H26   H     H_    0.618439 0.306301 0.640035 0.123889
O11   O     O_R   0.265840 0.084300 0.086750 -0.534877
O12   O     O_R   0.589750 0.070740 0.921690 -0.544207
O13   O     O_R   0.755020 0.915730 0.913400 -0.535752
C53   C     C_R   0.422342 0.086106 0.894696 0.695589
O14   O     O_R   0.595830 0.093740 0.086480 -0.536888
O15   O     O_R   0.761150 0.938890 0.079360 -0.539789
C54   C     C_R   0.427144 0.116513 0.115180 0.698557
O16   O     O_R   0.259710 0.061140 0.920790 -0.540352
O17   O     O_3   0.425260 0.949200 0.997610 -0.368019
V3    V     V_3+5 0.702060 0.009430 0.000450 1.413050
O18   O     O_R   0.090530 0.929220 0.078150 -0.544362
C55   C     C_R   0.923837 0.913171 0.104790 0.697391
O19   O     O_R   0.084440 0.906220 0.913360 -0.540108
C56   C     C_R   0.915045 0.882783 0.885807 0.695302
V4    V     V_3+5 0.201450 0.990520 0.999290 1.413146
O20   O     O_3   0.928380 0.050800 0.002390 -0.366838
N1    N     N_2   0.861689 0.743432 0.527030 -0.534476
H27   H     H_    0.939413 0.745282 0.476393 0.244507
C57   C     C_3   0.661708 0.764857 0.517929 -0.512835
H28   H     H_    0.599335 0.726928 0.463771 0.198408
H29   H     H_    0.650085 0.829980 0.512076 0.183326
H30   H     H_    0.576204 0.754170 0.569731 0.204838
C58   C     C_3   0.186134 0.998798 0.649618 -0.781425
H31   H     H_    0.211852 0.003511 0.586689 0.202762
H32   H     H_    0.092711 0.050205 0.676588 0.209346
H33   H     H_    0.327004 0.004312 0.681281 0.216295

loop_
_geom_bond_atom_site_label_1
_geom_bond_atom_site_label_2
_ccdc_geom_bond_type
C30   C31   A    
O18   C55   A    
O15   C55   A    
C6    C9    A    
C22   C23   A    
C4    C6    S    
O2    C1    A    
C7    C8    A    
C44   C47   A    
C48   C52   A    
C49   C50   A    
C26   C27   A    
C13   H2    S    
C1    C38   S    
C18   C19   A    
O16   V4    S    
C37   C42   A    
C17   C18   A    
C44   C46   A    
C18   N1    S    
C57   H29   S    
O5    C3    A    
C19   C20   A    
C29   H14   S    
C53   O16   A    
C33   C35   A    
V2    O10   S    
C40   H19   S    
C31   C32   A    
C15   C16   A    
O11   V4    S    
C24   C56   S    
C47   H26   S    
C29   C30   A    
O8    V2    S    
O17   V3    S    
C11   C12   A    
C12   H1    S    
O1    V2    S    
O7    V1    S    
C1    O6    A    
C58   H33   S    
C41   C42   A    
O9    C4    A    
H7    C27   S    
N1    C57   S    
O13   C56   A    
C29   C34   A    
C46   H25   S    
O18   V4    S    
O17   V4    S    
C9    H6    S    
C5    C12   A    
C15   C20   A    
C35   C54   S    
C57   H30   S    
O4    C2    A    
O14   V3    S    
C20   C24   A    
C13   C14   A    
C45   C46   A    
C32   H17   S    
C35   C36   A    
C16   C17   A    
C3    C21   S    
C36   C39   A    
C7    C11   A    
C5    C55   S    
C37   C38   A    
C51   C52   A    
C45   C49   A    
N1    H27   S    
O12   C53   A    
O19   V4    S    
C42   H20   S    
O11   C54   A    
H13   C41   S    
O13   V3    S    
C30   H15   S    
O3    C4    A    
C21   C22   A    
C14   H4    S    
O6    V2    S    
C31   H16   S    
O9    V2    S    
C22   C25   A    
C15   H8    S    
C23   C24   A    
O2    V1    S    
C25   C26   A    
O12   V3    S    
C58   H31   S    
C25   H10   S    
C27   C28   A    
O1    C2    A    
V3    O20   S    
C52   H24   S    
C48   C49   A    
O5    V1    S    
O8    C3    A    
O14   C54   A    
C43   C50   A    
C2    C44   S    
C50   H21   S    
V4    O20   S    
C34   C38   A    
C5    C13   A    
C39   C40   A    
C33   C34   A    
O4    V1    S    
O3    V1    S    
V1    O10   S    
C57   H28   S    
C19   C21   A    
C43   C51   A    
C32   C33   A    
O15   V3    S    
C16   C58   S    
C6    C8    A    
C23   C28   A    
C39   H18   S    
O7    V2    S    
C36   C37   A    
C47   C48   A    
C51   H22   S    
C45   H23   S    
C40   C41   A    
C10   C14   A    
C28   H12   S    
O19   C56   A    
C26   H11   S    
C10   C11   A    
C9    C10   A    
C17   H9    S    
C43   C53   S    
C58   H32   S    
C8    H5    S    
C7    H3    S    
