data_mof_unit_18581.cif
_audit_creation_date              2012-12-10T17:01:33-0500
_audit_creation_method            fapswitch 2.2
_symmetry_space_group_name_H-M    P1
_symmetry_Int_Tables_number       1
_space_group_crystal_system       triclinic
_cell_length_a                    9.822869
_cell_length_b                    11.068577
_cell_length_c                    13.077813
_cell_angle_alpha                 89.893727
_cell_angle_beta                  76.359907
_cell_angle_gamma                 111.665454
_cell_volume                      1277.93039123

loop_
_atom_site_label
_atom_site_type_symbol
_atom_type_description
_atom_site_fract_x
_atom_site_fract_y
_atom_site_fract_z
_atom_type_partial_charge
C1    C     C_R   0.438316 0.253204 0.507465 0.753849
C2    C     C_R   0.694890 0.524657 0.006703 0.424823
C3    C     C_R   0.322421 0.470171 0.884933 -0.325036
C4    C     C_R   0.672516 0.513594 0.116114 -0.328341
C5    C     C_R   0.596780 0.549562 0.854725 0.110928
C6    C     C_R   0.425581 0.528418 0.141307 0.138416
C7    C     C_R   0.577402 0.530275 0.964406 0.006971
C8    C     C_R   0.434727 0.512719 0.033481 0.008992
C9    C     C_2   0.401273 0.111819 0.510348 0.200018
C10   C     C_2   0.599047 0.888234 0.487022 0.202820
C11   C     C_2   0.515112 0.069769 0.492140 -0.120749
C12   C     C_R   0.561730 0.746794 0.492083 0.731841
C13   C     C_2   0.486709 0.930820 0.494507 -0.124871
C14   C     C_3   0.307501 0.575122 0.205645 -0.710242
C15   C     C_3   0.752060 0.630357 0.783827 -0.662950
C16   C     C_2   0.083175 0.512963 0.493148 -0.057942
C17   C     C_2   0.916864 0.489135 0.508820 -0.058856
C18   C     C_R   0.476212 0.501571 0.702050 0.846303
C19   C     C_R   0.526602 0.508952 0.297465 0.847928
C20   C     C_R   0.541043 0.518060 0.183519 -0.135601
C21   C     C_R   0.466342 0.508333 0.815194 -0.136277
C22   C     C_R   0.305123 0.476730 0.993398 0.426234
Cu1   Cu    Cu3+1 0.647370 0.522180 0.481340 0.955226
Cu2   Cu    Cu3+1 0.352630 0.477820 0.518660 0.960857
H1    H     H_    0.759842 0.503054 0.148515 0.177801
H2    H     H_    0.266442 0.626496 0.154316 0.238024
H3    H     H_    0.210122 0.491419 0.254104 0.264170
H4    H     H_    0.743193 0.698550 0.725675 0.207161
H5    H     H_    0.827461 0.695051 0.829266 0.239741
H6    H     H_    0.805965 0.565744 0.742236 0.254001
H7    H     H_    0.084671 0.412996 0.020434 0.321482
H8    H     H_    0.893647 0.513364 0.983661 0.322098
H9    H     H_    0.814152 0.929690 0.473742 0.347143
H10   H     H_    0.183131 0.069263 0.543817 0.346809
H11   H     H_    0.222170 0.436660 0.854963 0.176285
H12   H     H_    0.371137 0.861887 0.503623 0.190255
H13   H     H_    0.631705 0.139050 0.476058 0.194101
H14   H     H_    0.834224 0.413612 0.569304 0.164400
H15   H     H_    0.165858 0.590647 0.434542 0.155857
H16   H     H_    0.949926 0.627416 0.397067 0.200595
H17   H     H_    0.049931 0.370580 0.601237 0.202483
H18   H     H_    0.357890 0.649475 0.257079 0.189904
N1    N     N_2   0.131210 0.444490 0.546730 -0.277734
N2    N     N_2   0.868790 0.555510 0.453270 -0.282226
O1    O     O_R   0.578710 0.332530 0.490040 -0.592255
O2    O     O_3   0.823649 0.516707 0.941087 -0.742101
O3    O     O_3   0.745946 0.977229 0.475477 -0.732163
O4    O     O_3   0.253036 0.022303 0.531319 -0.735281
O5    O     O_R   0.421290 0.667470 0.509960 -0.597557
O6    O     O_R   0.329810 0.295070 0.521560 -0.570295
O7    O     O_R   0.670190 0.704930 0.478440 -0.576831
O8    O     O_R   0.604230 0.515670 0.637800 -0.581774
O9    O     O_R   0.395770 0.484330 0.362200 -0.573547
O10   O     O_R   0.355330 0.478200 0.669330 -0.573033
O11   O     O_R   0.644670 0.521800 0.330670 -0.574543
O12   O     O_3   0.162015 0.435732 0.061640 -0.737311

loop_
_geom_bond_atom_site_label_1
_geom_bond_atom_site_label_2
_ccdc_geom_bond_type
C13   H12   S    
C8    C22   A    
Cu1   Cu2   S    
Cu1   O11   S    
Cu1   O1    S    
H7    O12   S    
C6    C14   S    
C18   C21   S    
C11   C13   S    
C1    O6    A    
C2    C4    A    
C19   C20   S    
C3    H11   S    
C14   H18   S    
C19   O9    A    
C12   O5    A    
Cu1   O8    S    
C17   N2    D    
C18   O8    A    
C7    C8    A    
C2    O2    S    
H17   N1    S    
C16   N1    D    
C1    O1    A    
C15   H4    S    
C10   C12   S    
C6    C20   A    
C9    O4    S    
H9    O3    S    
C6    C8    A    
C15   H5    S    
C17   H14   S    
C9    C11   D    
Cu2   O6    S    
C14   H3    S    
C3    C21   A    
C5    C15   S    
C18   O10   A    
C16   H15   S    
Cu2   O10   S    
C4    C20   A    
C1    C9    S    
C4    H1    S    
H16   N2    S    
C12   O7    A    
H10   O4    S    
C15   H6    S    
C11   H13   S    
C19   O11   A    
Cu2   O5    S    
C5    C7    A    
Cu2   N1    S    
C3    C22   A    
C22   O12   S    
Cu2   O9    S    
C10   O3    S    
H8    O2    S    
C10   C13   D    
C14   H2    S    
Cu1   O7    S    
C2    C7    A    
C16   C17   S    
Cu1   N2    S    
C5    C21   A    
