data_mof_unit_19891.cif
_audit_creation_date              2012-12-11T15:23:40-0500
_audit_creation_method            fapswitch 2.2
_symmetry_space_group_name_H-M    P1
_symmetry_Int_Tables_number       1
_space_group_crystal_system       triclinic
_cell_length_a                    6.933506
_cell_length_b                    17.508531
_cell_length_c                    19.279747
_cell_angle_alpha                 109.498861
_cell_angle_beta                  90.148249
_cell_angle_gamma                 90.509668
_cell_volume                      2206.11839585

loop_
_atom_site_label
_atom_site_type_symbol
_atom_type_description
_atom_site_fract_x
_atom_site_fract_y
_atom_site_fract_z
_atom_type_partial_charge
O1    O     O_R   0.505810 0.439670 0.562310 -0.538738
O2    O     O_R   0.169070 0.404920 0.411210 -0.541299
O3    O     O_R   0.005550 0.560330 0.437690 -0.540037
C1    C     C_R   0.338710 0.381478 0.382966 0.675548
O4    O     O_R   0.175650 0.430000 0.560110 -0.542551
O5    O     O_R   0.012170 0.585580 0.587650 -0.537201
C2    C     C_R   0.344559 0.414670 0.581619 0.709955
O6    O     O_R   0.499180 0.414420 0.412350 -0.540259
O7    O     O_3   0.341430 0.551020 0.508860 -0.367560
V1    V     V_3+5 0.063930 0.490540 0.498360 1.394692
O8    O     O_R   0.682850 0.595080 0.588790 -0.542528
C3    C     C_R   0.852628 0.618408 0.616919 0.680810
O9    O     O_R   0.676280 0.570000 0.439890 -0.542670
C4    C     C_R   0.845264 0.585078 0.418153 0.709124
V2    V     V_3+5 0.564760 0.509460 0.501640 1.397498
O10   O     O_3   0.837130 0.448980 0.491140 -0.369547
C5    C     C_R   0.750486 0.870359 0.175825 -0.221145
C6    C     C_R   0.913899 0.865637 0.131350 -0.085635
C7    C     C_R   0.065824 0.814158 0.134801 -0.226234
C8    C     C_R   0.054476 0.767265 0.181305 0.090327
C9    C     C_R   0.890978 0.773080 0.226214 0.052836
C10   C     C_R   0.738913 0.825109 0.223659 0.088922
C11   C     C_R   0.203652 0.714507 0.183662 -0.183187
C12   C     C_R   0.192416 0.668735 0.230788 -0.192405
C13   C     C_R   0.031600 0.674766 0.276325 0.088903
C14   C     C_R   0.879525 0.726791 0.273769 0.052841
C15   C     C_R   0.716035 0.732606 0.318683 0.090339
C16   C     C_R   0.566853 0.785361 0.316321 -0.183186
C17   C     C_R   0.578090 0.831135 0.269193 -0.192413
C18   C     C_R   0.020063 0.629535 0.324169 -0.221083
C19   C     C_R   0.856685 0.634266 0.368663 -0.085714
C20   C     C_R   0.704721 0.685725 0.365203 -0.226245
H1    H     H_    0.633198 0.910234 0.174052 0.123626
H2    H     H_    0.191965 0.809794 0.100624 0.128047
H3    H     H_    0.329880 0.709017 0.149374 0.134498
H4    H     H_    0.310298 0.628932 0.231925 0.131547
H5    H     H_    0.137373 0.589670 0.325943 0.123689
H6    H     H_    0.578602 0.690091 0.399391 0.128077
H7    H     H_    0.440628 0.790852 0.350610 0.134510
H8    H     H_    0.460211 0.870939 0.268057 0.131545
C21   C     C_3   0.811771 0.816858 0.741491 -0.140930
C22   C     C_3   0.981122 0.767359 0.696624 -0.139034
H9    H     H_    0.059516 0.781276 0.652075 0.102778
H10   H     H_    0.751290 0.872584 0.734966 0.099863
C23   C     C_3   0.867420 0.688666 0.687622 -0.007748
C24   C     C_3   0.697925 0.737339 0.731671 -0.116370
C25   C     C_3   0.789929 0.732568 0.803426 -0.139043
C26   C     C_3   0.959281 0.683068 0.758558 -0.140940
C27   C     C_3   0.073126 0.762587 0.768379 -0.116369
C28   C     C_3   0.903631 0.811260 0.812428 -0.007732
H11   H     H_    0.543374 0.726548 0.716013 0.106207
H12   H     H_    0.711535 0.718650 0.847974 0.102741
H13   H     H_    0.227677 0.773377 0.784036 0.106200
C29   C     C_3   0.556666 0.281828 0.277435 -0.102740
C30   C     C_3   0.492842 0.192940 0.263487 -0.148223
H14   H     H_    0.582750 0.145979 0.274368 0.099995
H15   H     H_    0.699243 0.307972 0.300057 0.113477
C31   C     C_3   0.413295 0.189070 0.187842 -0.008804
C32   C     C_3   0.476562 0.277213 0.201069 -0.147565
C33   C     C_3   0.278249 0.307183 0.236429 -0.148153
C34   C     C_3   0.214426 0.218294 0.222479 -0.102720
C35   C     C_3   0.294532 0.222908 0.298844 -0.147656
C36   C     C_3   0.357797 0.311051 0.312073 -0.008849
H16   H     H_    0.552985 0.299354 0.160833 0.102249
H17   H     H_    0.071848 0.192151 0.199858 0.113498
H18   H     H_    0.218109 0.200766 0.339080 0.102232
C37   C     C_R   0.569026 0.135037 0.821165 -0.226017
C38   C     C_R   0.416779 0.135297 0.869440 -0.084468
C39   C     C_R   0.252532 0.182200 0.869729 -0.221516
C40   C     C_R   0.240275 0.228815 0.823043 0.088892
C41   C     C_R   0.392170 0.227193 0.774014 0.052484
C42   C     C_R   0.556632 0.179785 0.772823 0.091476
C43   C     C_R   0.078653 0.277037 0.824449 -0.191994
C44   C     C_R   0.066293 0.322489 0.777075 -0.184589
C45   C     C_R   0.214954 0.320357 0.727198 0.091480
C46   C     C_R   0.379424 0.272955 0.726009 0.052493
C47   C     C_R   0.531313 0.271332 0.676976 0.088942
C48   C     C_R   0.692940 0.223113 0.675574 -0.192016
C49   C     C_R   0.705299 0.177659 0.722949 -0.184573
C50   C     C_R   0.202530 0.365088 0.678845 -0.225970
C51   C     C_R   0.354749 0.364818 0.630557 -0.084660
C52   C     C_R   0.519028 0.317934 0.630278 -0.221618
H19   H     H_    0.134874 0.183109 0.906930 0.127521
H20   H     H_    0.960931 0.279216 0.861906 0.133208
H21   H     H_    0.939519 0.358915 0.779111 0.134195
H22   H     H_    0.076133 0.401478 0.679883 0.121562
H23   H     H_    0.636668 0.317023 0.593069 0.127406
H24   H     H_    0.810660 0.220934 0.638116 0.133203
H25   H     H_    0.832070 0.141231 0.720911 0.134211
O11   O     O_R   0.271890 0.085690 0.087580 -0.540312
O12   O     O_R   0.595690 0.070020 0.939870 -0.542482
O13   O     O_R   0.758900 0.914390 0.912370 -0.537206
C53   C     C_R   0.426843 0.085403 0.918345 0.710248
O14   O     O_R   0.602020 0.095100 0.088770 -0.541280
O15   O     O_R   0.765280 0.939660 0.062330 -0.540052
C54   C     C_R   0.432372 0.118614 0.116970 0.675539
O16   O     O_R   0.265520 0.060430 0.937620 -0.538963
O17   O     O_3   0.429560 0.949050 0.991100 -0.367606
V3    V     V_3+5 0.707160 0.009450 0.001650 1.394745
O18   O     O_R   0.094540 0.929890 0.060190 -0.542974
C55   C     C_R   0.925475 0.914857 0.081891 0.708861
O19   O     O_R   0.088200 0.904800 0.911290 -0.542593
C56   C     C_R   0.918431 0.881520 0.883129 0.680774
V4    V     V_3+5 0.206300 0.990390 0.998440 1.397610
O20   O     O_3   0.934030 0.050940 0.008900 -0.369451
H26   H     H_    0.019761 0.627342 0.765083 0.099832
H27   H     H_    0.188341 0.354145 0.225548 0.100005
H28   H     H_    0.695403 0.098635 0.820122 0.121598

loop_
_geom_bond_atom_site_label_1
_geom_bond_atom_site_label_2
_ccdc_geom_bond_type
C9    C14   A    
C10   C17   A    
C21   C22   S    
C7    C8    A    
C4    C19   S    
C1    O6    A    
C51   C52   A    
C47   C48   A    
C1    C36   S    
C14   C15   A    
C12   H4    S    
C33   C36   S    
C47   C52   A    
C16   C17   A    
C6    C7    A    
C42   C49   A    
O5    C3    A    
C41   C46   A    
O19   V4    S    
C27   H13   S    
C37   H28   S    
C29   C36   S    
C52   H23   S    
C30   C35   S    
O18   V4    S    
C37   C42   A    
C43   C44   A    
C31   C54   S    
C50   H22   S    
O13   C56   A    
O19   C56   A    
C24   C25   S    
O8    V2    S    
C26   H26   S    
C25   C26   S    
C38   C39   A    
C21   C24   S    
C40   C41   A    
O1    V2    S    
C20   H6    S    
O7    V1    S    
C43   H20   S    
C31   C34   S    
C32   C33   S    
O9    C4    A    
C39   C40   A    
C5    H1    S    
O4    V1    S    
V4    O20   S    
C25   C28   S    
C29   C32   S    
V3    O20   S    
C44   C45   A    
C35   H18   S    
C37   C38   A    
C12   C13   A    
O4    C2    A    
C48   C49   A    
C50   C51   A    
C22   C27   S    
C16   H7    S    
C31   C32   S    
C23   C24   S    
C24   H11   S    
C18   H5    S    
C33   C34   S    
C22   C23   S    
O2    C1    A    
C45   C46   A    
C35   C36   S    
C39   H19   S    
O12   C53   A    
C19   C20   A    
C8    C11   A    
C11   C12   A    
C40   C43   A    
C5    C6    A    
C32   H16   S    
C46   C47   A    
O14   C54   A    
C33   H27   S    
O11   V4    S    
O3    C4    A    
C26   C27   S    
C2    C51   S    
O17   V3    S    
O6    V2    S    
C11   H3    S    
O9    V2    S    
C21   H10   S    
C22   H9    S    
O2    V1    S    
C53   O16   A    
C21   C28   S    
C45   C50   A    
C23   C26   S    
C48   H24   S    
C13   C18   A    
C29   C30   S    
C15   C20   A    
O1    C2    A    
C38   C53   S    
C3    C23   S    
C7    H2    S    
O5    V1    S    
O8    C3    A    
O11   C54   A    
C25   H12   S    
C5    C10   A    
C13   C14   A    
C41   C42   A    
O3    V1    S    
V1    O10   S    
C18   C19   A    
O14   V3    S    
O17   V4    S    
V2    O10   S    
C17   H8    S    
O18   C55   A    
O15   V3    S    
C44   H21   S    
O7    V2    S    
C34   C35   S    
C49   H25   S    
O16   V4    S    
C30   H14   S    
C34   H17   S    
C28   C56   S    
C8    C9    A    
C27   C28   S    
C30   C31   S    
C15   C16   A    
O12   V3    S    
C9    C10   A    
C6    C55   S    
O15   C55   A    
O13   V3    S    
C29   H15   S    
