data_mof_unit_28617.cif
_audit_creation_date              2013-03-05T15:46:46-0500
_audit_creation_method            fapswitch 2.2
_symmetry_space_group_name_H-M    P1
_symmetry_Int_Tables_number       1
_space_group_crystal_system       triclinic
_cell_length_a                    10.197651
_cell_length_b                    10.749658
_cell_length_c                    12.326661
_cell_angle_alpha                 89.872399
_cell_angle_beta                  109.663225
_cell_angle_gamma                 95.472021
_cell_volume                      1266.02585664

loop_
_atom_site_label
_atom_site_type_symbol
_atom_site_description
_atom_site_fract_x
_atom_site_fract_y
_atom_site_fract_z
_atom_type_partial_charge
O1    O     O_R   0.936910 0.692950 0.509080 -0.591368
O2    O     O_R   0.138320 0.658600 0.480130 -0.564521
C1    C     C_R   0.053555 0.732807 0.496088 0.956005
O3    O     O_R   0.002900 0.525670 0.675280 -0.589474
O4    O     O_R   0.204310 0.491320 0.646330 -0.577902
C2    C     C_R   0.133157 0.504857 0.714396 0.926431
Zn1   Zn    Zn3+2 0.865520 0.522940 0.519330 0.989767
Zn2   Zn    Zn3+2 0.134480 0.477060 0.480670 0.981115
O5    O     O_R   0.861680 0.341400 0.519870 -0.602097
O6    O     O_R   0.063090 0.307050 0.490920 -0.635012
O7    O     O_R   0.795690 0.508680 0.353670 -0.617784
O8    O     O_R   0.997100 0.474330 0.324720 -0.613664
C3    C     C_R   0.949923 0.266743 0.509674 0.895044
C4    C     C_R   0.865490 0.489255 0.285887 0.853313
C5    C     C_R   0.736426 0.334626 0.993703 -0.146208
H1    H     H_    0.936130 0.355838 0.128110 0.166615
H2    H     H_    0.772820 0.272932 0.943024 0.176988
C6    C     C_R   0.786686 0.464194 0.164783 -0.059104
C7    C     C_R   0.149792 0.557716 0.913259 -0.172071
C8    C     C_R   0.219480 0.560946 0.031231 -0.128020
C9    C     C_R   0.348648 0.513085 0.076168 0.112460
C10   C     C_R   0.408782 0.460870 0.999207 0.027116
C11   C     C_R   0.321373 0.429547 0.885298 0.031377
C12   C     C_R   0.551060 0.438905 0.029504 0.040936
C13   C     C_R   0.595170 0.359186 0.959635 0.143808
C14   C     C_R   0.496698 0.302481 0.859727 0.072456
C15   C     C_R   0.358840 0.334888 0.823677 0.081075
C16   C     C_R   0.652297 0.500642 0.124137 -0.226757
C17   C     C_R   0.831073 0.384284 0.097803 -0.211873
C18   C     C_R   0.200440 0.493766 0.839000 -0.119664
H3    H     H_    0.626755 0.574045 0.170775 0.157363
H4    H     H_    0.054830 0.603744 0.880296 0.204994
H5    H     H_    0.173266 0.601823 0.088287 0.159063
H6    H     H_    0.141052 0.113832 0.540582 0.193159
C19   C     C_2   0.087896 0.866887 0.500536 -0.175826
C20   C     C_2   0.042101 0.937967 0.568299 0.335031
H7    H     H_    0.834720 0.091080 0.536473 0.200491
C21   C     C_2   0.933336 0.134475 0.532148 -0.336750
C22   C     C_2   0.044893 0.070635 0.549728 -0.226609
H8    H     H_    0.567150 0.409419 0.436760 0.152939
N1    N     N_2   0.313640 0.446500 0.454900 -0.253864
C23   C     C_2   0.432529 0.510812 0.511107 0.327375
H9    H     H_    0.685382 0.626619 0.598469 0.243958
N2    N     N_2   0.686360 0.553430 0.545150 -0.167370
C24   C     C_2   0.568234 0.486107 0.494187 -0.237489
H10   H     H_    0.316782 0.377499 0.398169 0.137176
N3    N     N_R   0.002370 0.887905 0.663089 0.226631
O9    O     O_R   0.915359 0.942167 0.699250 -0.381745
O10   O     O_R   0.073257 0.804074 0.727053 -0.400900
N4    N     N_3   0.150782 0.922776 0.420914 -0.458183
H11   H     H_    0.189657 0.854433 0.383304 0.225559
H12   H     H_    0.071507 0.958718 0.353916 0.180101
N5    N     N_R   0.435663 0.607780 0.591487 0.245042
O11   O     O_R   0.425289 0.721963 0.556969 -0.382768
O12   O     O_R   0.487634 0.588723 0.701310 -0.397139
N6    N     N_3   0.536632 0.211233 0.794961 -0.452547
H13   H     H_    0.517109 0.242277 0.711051 0.198586
H14   H     H_    0.474668 0.126990 0.791278 0.230522
N7    N     N_3   0.401806 0.499752 0.198823 -0.483745
H15   H     H_    0.468304 0.428731 0.221409 0.190803
H16   H     H_    0.453385 0.585025 0.238357 0.194505
N8    N     N_3   0.256221 0.256511 0.736101 -0.453508
H17   H     H_    0.269506 0.278218 0.657765 0.219986
H18   H     H_    0.154755 0.267954 0.733487 0.186170

loop_
_geom_bond_atom_site_label_1
_geom_bond_atom_site_label_2
_geom_bond_distance
_ccdc_geom_bond_type
O4    Zn2   1.924178 S    
N4    H12   1.045805 S    
N1    H10   1.030611 S    
C16   H3    1.078396 S    
C5    C17   1.390839 A    
H7    C21   1.085485 S    
C15   N8    1.430368 S    
C11   C15   1.425228 A    
N1    C23   1.305691 D    
C4    C6    1.449146 S    
C7    C8    1.385987 A    
C1    C19   1.447141 S    
Zn2   O8    1.959318 S    
C7    H4    1.083228 S    
C8    C9    1.394104 A    
C19   N4    1.443240 S    
N4    H11   1.045269 S    
C14   C15   1.402665 A    
C6    C16   1.386405 A    
N7    H15   1.044486 S    
N3    O10   1.301462 A    
C6    C17   1.397596 A    
O1    Zn1   1.921724 S    
Zn1   N2    2.013131 S    
C12   C13   1.419846 A    
Zn1   O7    1.924178 S    
C3    C21   1.452883 S    
N8    H17   1.042228 S    
C5    H2    1.082874 S    
O3    Zn1   1.959318 S    
O4    C2    1.296920 A    
O3    C2    1.293116 A    
C2    C18   1.466183 S    
O8    C4    1.290154 A    
C9    N7    1.436170 S    
O2    C1    1.291837 A    
N5    O12   1.300816 A    
H9    N2    1.029209 S    
H8    C24   1.084622 S    
O7    C4    1.295284 A    
C10   C12   1.414434 A    
C23   N5    1.430462 S    
N7    H16   1.044963 S    
C5    C13   1.409248 A    
N6    H13   1.045660 S    
C8    H5    1.083404 S    
H6    C22   1.085000 S    
C11   C18   1.417772 A    
C12   C16   1.388996 A    
C21   C22   1.339561 D    
Zn2   N1    2.013033 S    
H1    C17   1.083250 S    
C20   N3    1.446809 S    
Zn2   O6    1.921726 S    
Zn1   O5    1.948191 S    
O5    C3    1.297663 A    
C10   C11   1.407851 A    
N8    H18   1.043373 S    
O1    C1    1.286404 A    
C13   C14   1.396763 A    
C9    C10   1.431994 A    
C7    C18   1.402115 A    
O6    C3    1.287135 A    
C20   C22   1.443003 S    
O2    Zn2   1.948189 S    
N2    C24   1.302283 D    
C19   C20   1.353894 D    
N5    O11   1.300365 A    
N6    H14   1.045550 S    
N3    O9    1.300877 A    
C23   C24   1.514503 S    
C14   N6    1.436590 S    
