data_mof_unit_44856.cif
_audit_creation_date              2012-12-10T20:36:35-0500
_audit_creation_method            fapswitch 2.2
_symmetry_space_group_name_H-M    P1
_symmetry_Int_Tables_number       1
_space_group_crystal_system       triclinic
_cell_length_a                    10.492906
_cell_length_b                    10.677641
_cell_length_c                    9.865405
_cell_angle_alpha                 89.953783
_cell_angle_beta                  89.300303
_cell_angle_gamma                 90.198341
_cell_volume                      1105.22543975

loop_
_atom_site_label
_atom_site_type_symbol
_atom_type_description
_atom_site_fract_x
_atom_site_fract_y
_atom_site_fract_z
_atom_type_partial_charge
C1    C     C_R   0.497519 0.260045 0.499869 0.872475
C2    C     C_3   0.962002 0.505294 0.369868 -0.165663
C3    C     C_3   0.043746 0.399079 0.429765 -0.199326
C4    C     C_3   0.122509 0.499149 0.501907 0.005828
C5    C     C_R   0.438203 0.063694 0.611066 0.087184
C6    C     C_R   0.481830 0.128459 0.496963 -0.091434
C7    C     C_R   0.503094 0.064537 0.374744 -0.232434
C8    C     C_R   0.503665 0.935754 0.374905 -0.234865
C9    C     C_R   0.481525 0.871444 0.496887 -0.114306
C10   C     C_R   0.437348 0.935748 0.610889 0.075697
C11   C     C_3   0.473565 0.928037 0.757109 -0.105597
C12   C     C_R   0.257358 0.499706 0.500750 0.868180
C13   C     C_3   0.475222 0.071036 0.756765 -0.499057
C14   C     C_R   0.431473 0.412233 0.072260 0.216917
C15   C     C_R   0.576909 0.578777 0.070909 -0.135919
C16   C     C_R   0.576851 0.578856 0.926903 -0.139169
C17   C     C_R   0.431216 0.412500 0.929700 0.221494
C18   C     C_3   0.290367 0.394810 0.926591 -0.534484
C19   C     C_3   0.290856 0.393049 0.080367 -0.514120
C20   C     C_R   0.497372 0.739947 0.499769 0.871983
C21   C     C_R   0.742611 0.499937 0.499136 0.862302
C22   C     C_3   0.038298 0.493010 0.629590 -0.164647
C23   C     C_3   0.957382 0.394156 0.556765 0.133731
C24   C     C_3   0.877539 0.499074 0.497423 -0.006626
C25   C     C_3   0.956812 0.598975 0.568952 -0.202305
C26   C     C_3   0.043814 0.605201 0.441629 -0.173195
H1    H     H_    0.569168 0.885534 0.771628 0.160807
H2    H     H_    0.399537 0.115140 0.820236 0.195665
H3    H     H_    0.572233 0.111073 0.770302 0.192534
H4    H     H_    0.636785 0.644400 0.124430 0.138976
H5    H     H_    0.262894 0.303572 0.881269 0.191191
H6    H     H_    0.265285 0.300186 0.124074 0.197398
H7    H     H_    0.916910 0.680398 0.624873 0.134371
H8    H     H_    0.084400 0.691400 0.394859 0.134320
H9    H     H_    0.927015 0.510611 0.264263 0.146298
H10   H     H_    0.083973 0.317893 0.373697 0.128266
H11   H     H_    0.530770 0.887747 0.282303 0.169692
N1    N     N_R   0.499140 0.499140 0.142800 -0.104601
N2    N     N_R   0.499140 0.499180 0.857150 -0.108224
O1    O     O_R   0.500020 0.316790 0.614690 -0.616340
O2    O     O_R   0.500000 0.316760 0.385350 -0.624872
O3    O     O_R   0.313960 0.499990 0.614650 -0.630157
O4    O     O_R   0.313940 0.499950 0.385310 -0.620782
O5    O     O_R   0.500000 0.683240 0.614650 -0.632938
O6    O     O_R   0.499980 0.683210 0.385310 -0.623399
O7    O     O_R   0.686060 0.500050 0.614690 -0.626024
O8    O     O_R   0.686040 0.500010 0.385350 -0.624191
Zn1   Zn    Zn3+2 0.500010 0.500020 0.653130 0.923280
Zn2   Zn    Zn3+2 0.499990 0.499980 0.346870 0.931011
C27   C     C_3   0.903271 0.274518 0.620759 -0.429439
C28   C     C_3   0.010173 0.187539 0.667070 -0.333566
C29   C     C_3   0.956189 0.067402 0.729273 -0.903567
H12   H     H_    0.895419 0.089447 0.819057 0.259193
H13   H     H_    0.898601 0.015767 0.653687 0.260394
H14   H     H_    0.035654 0.006407 0.761964 0.243416
H15   H     H_    0.072418 0.162641 0.579231 0.218700
H16   H     H_    0.069287 0.236059 0.743733 0.217454
H17   H     H_    0.842017 0.300313 0.709021 0.212783
H18   H     H_    0.843386 0.225823 0.544861 0.193673
H19   H     H_    0.636669 0.644554 0.871748 0.140215
H20   H     H_    0.240999 0.477871 0.884815 0.211101
H21   H     H_    0.239800 0.473812 0.126556 0.221767
H22   H     H_    0.071193 0.487600 0.735675 0.131654
H23   H     H_    0.528881 0.112911 0.281714 0.167423
C30   C     C_3   0.366932 0.868725 0.844656 -0.354891
C31   C     C_3   0.397469 0.875746 0.996038 -0.358936
C32   C     C_3   0.299224 0.802730 0.080217 -0.866582
H24   H     H_    0.202430 0.841689 0.064978 0.249481
H25   H     H_    0.299659 0.702365 0.050687 0.263189
H26   H     H_    0.322407 0.809431 0.189395 0.262263
H27   H     H_    0.493463 0.836079 0.014356 0.214883
H28   H     H_    0.397706 0.975071 0.029683 0.221755
H29   H     H_    0.274334 0.915870 0.825854 0.195436
H30   H     H_    0.356591 0.768834 0.814965 0.227277

loop_
_geom_bond_atom_site_label_1
_geom_bond_atom_site_label_2
_ccdc_geom_bond_type
C2    H9    S    
C3    C23   S    
C7    C8    A    
O8    Zn2   S    
N1    Zn2   S    
C27   H18   S    
C13   H3    S    
C18   C19   S    
C12   O4    A    
C17   N2    A    
C5    C6    A    
C19   H21   S    
C15   C16   A    
C30   H29   S    
C28   H15   S    
C16   H19   S    
C12   O3    A    
C1    O1    A    
C22   H22   S    
C26   H8    S    
C31   H28   S    
C8    C9    A    
C22   C25   S    
C23   C24   S    
C13   H2    S    
C28   H16   S    
O6    Zn2   S    
C4    C12   S    
C9    C10   A    
C5    C13   S    
C20   O6    A    
C29   H14   S    
C31   C32   S    
C14   C17   A    
C19   H6    S    
O2    Zn2   S    
C20   O5    A    
C29   H13   S    
C27   C28   S    
O7    Zn1   S    
C28   C29   S    
C27   H17   S    
C24   C25   S    
O4    Zn2   S    
C23   C27   S    
C25   C26   S    
C30   H30   S    
C1    C6    S    
C32   H25   S    
C32   H24   S    
C15   N1    A    
C14   N1    A    
C4    C22   S    
C9    C20   S    
C31   H27   S    
C11   H1    S    
C17   C18   S    
C2    C26   S    
O3    Zn1   S    
C1    O2    A    
C2    C24   S    
C8    H11   S    
C3    C4    S    
C29   H12   S    
C15   H4    S    
C21   O7    A    
O1    Zn1   S    
C14   C19   S    
C4    C26   S    
C18   H20   S    
C6    C7    A    
C32   H26   S    
C2    C3    S    
C5    C10   A    
C11   C13   S    
C3    H10   S    
C7    H23   S    
C10   C11   S    
C16   N2    A    
C11   C30   S    
C30   C31   S    
C21   C24   S    
C22   C23   S    
C18   H5    S    
O5    Zn1   S    
C25   H7    S    
N2    Zn1   S    
C21   O8    A    
