data_mof_unit_28964.cif
_audit_creation_date              2013-03-05T15:55:21-0500
_audit_creation_method            fapswitch 2.2
_symmetry_space_group_name_H-M    P1
_symmetry_Int_Tables_number       1
_space_group_crystal_system       triclinic
_cell_length_a                    27.231554
_cell_length_b                    10.566802
_cell_length_c                    9.98943
_cell_angle_alpha                 87.930687
_cell_angle_beta                  88.331206
_cell_angle_gamma                 91.64788
_cell_volume                      2870.09130474

loop_
_atom_site_label
_atom_site_type_symbol
_atom_site_description
_atom_site_fract_x
_atom_site_fract_y
_atom_site_fract_z
_atom_type_partial_charge
O1    O     O_R   0.500000 0.316780 0.614690 -0.544047
O2    O     O_R   0.500000 0.316750 0.385360 -0.536772
C1    C     C_R   0.507159 0.261649 0.503116 1.007337
O3    O     O_R   0.428760 0.500030 0.614650 -0.537747
O4    O     O_R   0.428750 0.500010 0.385320 -0.606554
C2    C     C_R   0.405999 0.495519 0.501207 1.003761
Zn1   Zn    Zn3+2 0.500000 0.500020 0.653130 1.039377
Zn2   Zn    Zn3+2 0.500000 0.499980 0.346870 1.096104
O5    O     O_R   0.500000 0.683250 0.614640 -0.643829
O6    O     O_R   0.500000 0.683220 0.385310 -0.593773
O7    O     O_R   0.571250 0.499990 0.614680 -0.601389
O8    O     O_R   0.571240 0.499970 0.385350 -0.521224
C3    C     C_R   0.497112 0.740312 0.497904 0.869479
C4    C     C_R   0.594076 0.497963 0.498433 0.999866
C5    C     C_R   0.179005 0.307696 0.420226 0.548727
O9    O     O_2   0.203555 0.285068 0.304597 -0.519653
N1    N     N_R   0.203999 0.349459 0.527110 -0.337092
C6    C     C_R   0.180832 0.372186 0.646635 0.593134
C7    C     C_R   0.269273 0.509624 0.496602 -0.074967
C8    C     C_R   0.318477 0.546729 0.490424 -0.226108
C9    C     C_R   0.341430 0.325750 0.512057 0.349098
C10   C     C_R   0.291021 0.287258 0.514829 -0.091557
C11   C     C_R   0.255305 0.381376 0.511468 0.207517
C12   C     C_R   0.102555 0.322092 0.548609 -0.051541
C13   C     C_R   0.127910 0.290883 0.429624 -0.038780
C14   C     C_R   0.101632 0.250972 0.319854 -0.075338
C15   C     C_R   0.129083 0.363714 0.659677 -0.112438
C16   C     C_R   0.354365 0.456153 0.502752 -0.026484
H1    H     H_    0.120333 0.228789 0.226865 0.231045
C17   C     C_R   0.646964 0.477974 0.496248 -0.126384
C18   C     C_R   0.971958 0.264834 0.452161 -0.023070
C19   C     C_R   0.974454 0.388488 0.655729 0.053880
C20   C     C_R   0.947994 0.338845 0.548768 0.081869
C21   C     C_R   0.942593 0.194412 0.363603 -0.067867
C22   C     C_R   0.893099 0.222659 0.351394 -0.148817
C23   C     C_R   0.870836 0.309782 0.434163 -0.048228
C24   C     C_R   0.897625 0.364979 0.536850 -0.047072
C25   C     C_R   0.874217 0.447187 0.626138 -0.099295
C26   C     C_R   0.823607 0.467314 0.611521 0.611592
N2    N     N_R   0.799172 0.416243 0.507883 -0.325149
C27   C     C_R   0.821358 0.338198 0.420498 0.571858
C28   C     C_R   0.729818 0.527549 0.405677 -0.113313
C29   C     C_R   0.678636 0.549800 0.406903 0.292194
C30   C     C_R   0.665326 0.385328 0.584524 0.378538
C31   C     C_R   0.715747 0.366908 0.585368 -0.223455
C32   C     C_R   0.747742 0.437329 0.498361 0.161946
O10   O     O_2   0.795281 0.287092 0.321928 -0.527543
C33   C     C_R   0.024157 0.270333 0.444596 0.053916
C34   C     C_R   0.050507 0.316604 0.553937 0.088710
C35   C     C_R   0.025051 0.363895 0.665516 0.049857
C36   C     C_R   0.050678 0.242758 0.326412 -0.136938
H2    H     H_    0.871223 0.171793 0.280762 0.228905
H3    H     H_    0.032494 0.221440 0.234926 0.159635
O11   O     O_2   0.208259 0.403529 0.751180 -0.495809
C37   C     C_R   0.102746 0.395476 0.777956 -0.007424
H4    H     H_    0.328312 0.646154 0.477709 0.220450
H5    H     H_    0.241559 0.580987 0.491343 0.163865
C38   C     C_R   0.950735 0.470204 0.743373 -0.238070
C39   C     C_R   0.901965 0.503138 0.727675 -0.015846
O12   O     O_2   0.798264 0.534302 0.701240 -0.503110
C40   C     C_R   0.051513 0.392907 0.779841 -0.250185
H6    H     H_    0.970875 0.518995 0.818575 0.161421
H7    H     H_    0.730594 0.297073 0.653969 0.163214
H8    H     H_    0.032747 0.416202 0.872184 0.159277
C41   C     C_R   0.503866 0.098026 0.763173 0.461403
C42   C     C_R   0.473144 0.037937 0.866027 -0.102175
C43   C     C_R   0.441045 0.939340 0.830764 -0.340066
H9    H     H_    0.413780 0.900903 0.903342 0.221558
C44   C     C_R   0.443988 0.888228 0.703532 -0.105953
C45   C     C_R   0.479285 0.939519 0.607649 -0.006214
C46   C     C_R   0.501263 0.056748 0.629644 0.036781
C47   C     C_R   0.519178 0.128640 0.514776 -0.130467
C48   C     C_R   0.536229 0.067229 0.400610 -0.104219
H10   H     H_    0.539937 0.887540 0.309800 0.221556
C49   C     C_R   0.524653 0.939350 0.392206 -0.229843
C50   C     C_R   0.495985 0.876085 0.493635 -0.062895
C51   C     C_R   0.420969 0.377297 0.146877 0.508814
C52   C     C_R   0.375842 0.365358 0.085909 -0.393373
H11   H     H_    0.343479 0.332802 0.144597 0.224263
C53   C     C_R   0.374443 0.371337 0.948254 -0.178600
C54   C     C_R   0.419346 0.385895 0.874383 0.440002
C55   C     C_R   0.460377 0.445430 0.933373 -0.008851
C56   C     C_R   0.460915 0.442776 0.077167 0.009476
N3    N     N_R   0.499540 0.498800 0.142780 -0.107171
C57   C     C_R   0.537106 0.556408 0.066740 0.501687
H12   H     H_    0.567217 0.599802 0.864729 0.165063
C58   C     C_R   0.537099 0.554797 0.923263 -0.200282
N4    N     N_R   0.499520 0.498720 0.857170 -0.113190
O13   O     O_3   0.378860 0.240491 0.522467 -0.769117
H13   H     H_    0.365815 0.158633 0.561545 0.349611
C59   C     C_2   0.126267 0.441703 0.899231 1.009182
O14   O     O_2   0.120738 0.381247 0.005469 -0.634209
O15   O     O_R   0.152518 0.557539 0.893470 -0.739640
H14   H     H_    0.166283 0.579667 0.983182 0.363087
O16   O     O_3   0.633238 0.312861 0.667605 -0.694637
H15   H     H_    0.652107 0.252089 0.722190 0.362605
C60   C     C_2   0.883449 0.604000 0.813522 1.017254
O17   O     O_2   0.886738 0.593559 0.935249 -0.603900
O18   O     O_R   0.864638 0.713771 0.754701 -0.730018
H16   H     H_    0.853886 0.776395 0.823486 0.361696
C61   C     C_2   0.570665 0.130378 0.298740 1.011270
O19   O     O_2   0.579655 0.079893 0.192855 -0.570341
O20   O     O_R   0.595119 0.244030 0.326626 -0.804906
H17   H     H_    0.617989 0.276556 0.250323 0.364831
O21   O     O_3   0.540951 0.183542 0.791702 -0.681019
H18   H     H_    0.526613 0.249025 0.847623 0.382316
C62   C     C_2   0.472761 0.073448 0.009684 0.954595
O22   O     O_2   0.499307 0.159092 0.047625 -0.609552
O23   O     O_R   0.441717 0.006870 0.103487 -0.788079
H19   H     H_    0.444942 0.038314 0.197635 0.366914
C63   C     C_2   0.275248 0.151464 0.520705 0.927087
O24   O     O_2   0.294803 0.077472 0.445914 -0.574336
O25   O     O_R   0.237409 0.108555 0.610070 -0.789651
H20   H     H_    0.229713 0.014556 0.603806 0.363390
C64   C     C_2   0.405325 0.795101 0.666479 0.957235
O26   O     O_2   0.389112 0.801810 0.553974 -0.620866
O27   O     O_R   0.385907 0.701987 0.757862 -0.742382
H21   H     H_    0.404886 0.694582 0.843319 0.300899
O28   O     O_3   0.574636 0.616393 0.131630 -0.679046
H22   H     H_    0.598803 0.653324 0.063924 0.341408
O29   O     O_3   0.428349 0.302616 0.258736 -0.682642
H23   H     H_    0.399763 0.243524 0.276792 0.359796
C65   C     C_2   0.327475 0.342705 0.884586 0.983541
O30   O     O_2   0.316614 0.403079 0.784059 -0.573083
O31   O     O_R   0.294790 0.250271 0.942060 -0.754671
H24   H     H_    0.264029 0.238946 0.888513 0.390260
O32   O     O_3   0.426989 0.313308 0.765246 -0.710695
H25   H     H_    0.401239 0.245196 0.764426 0.322555
O33   O     O_3   0.658490 0.643493 0.327349 -0.698613
H26   H     H_    0.684022 0.709180 0.302133 0.359645
C66   C     C_2   0.764354 0.594224 0.307050 0.961771
O34   O     O_2   0.753014 0.608118 0.189968 -0.560454
O35   O     O_R   0.810203 0.639185 0.347305 -0.776767
H27   H     H_    0.830556 0.681405 0.270720 0.369227
C67   C     C_2   0.959733 0.079332 0.297142 0.906578
O36   O     O_2   0.989723 0.011874 0.351072 -0.589960
O37   O     O_R   0.940251 0.045584 0.174967 -0.787834
H28   H     H_    0.954404 0.964781 0.140571 0.362656

loop_
_geom_bond_atom_site_label_1
_geom_bond_atom_site_label_2
_geom_bond_distance
_ccdc_geom_bond_type
C38   H6    1.080113 S    
C58   N4    1.366370 A    
O15   H14   1.013877 S    
O16   H15   0.991829 S    
C62   O23   1.399890 S    
C7    C8    1.384234 A    
C12   C15   1.417738 A    
C19   C38   1.408218 A    
C42   C62   1.496168 S    
C8    H4    1.078801 S    
C54   C55   1.419903 A    
C67   O36   1.223385 D    
C9    O13   1.383330 S    
C31   C32   1.392907 A    
C7    H5    1.083114 S    
Zn1   O7    1.966909 S    
C61   O19   1.223303 D    
C23   C24   1.409571 A    
O33   H26   0.988977 S    
O4    C2    1.295685 A    
O7    C4    1.302238 A    
C52   C53   1.375944 A    
C65   O31   1.398434 S    
C51   C56   1.422933 A    
C5    O9    1.349983 S    
C67   O37   1.398717 S    
C21   C22   1.396643 A    
C28   C32   1.411973 A    
C57   O28   1.377459 S    
Zn1   N4    2.037451 S    
O5    C3    1.298803 A    
C37   C59   1.478669 S    
O20   H17   1.013954 S    
C33   C36   1.409808 A    
C2    C16   1.454270 S    
O18   H16   1.013916 S    
C64   O27   1.399331 S    
C62   O22   1.219972 D    
C18   C20   1.419839 A    
C28   C66   1.486379 S    
C65   O30   1.218517 D    
C48   C61   1.489836 S    
C42   C43   1.402026 A    
C61   O20   1.397233 S    
O1    Zn1   1.987524 S    
C9    C10   1.419653 A    
C54   O32   1.369880 S    
C48   C49   1.384765 A    
C17   C30   1.406237 A    
C23   C27   1.398288 A    
C4    C17   1.461293 S    
O3    Zn1   1.988647 S    
C41   O21   1.378596 S    
C60   O18   1.398427 S    
C60   O17   1.223122 D    
C57   C58   1.433974 A    
H10   C49   1.084570 S    
C43   H9    1.082545 S    
C29   O33   1.382931 S    
C51   O29   1.367575 S    
C12   C13   1.411319 A    
O3    C2    1.309113 A    
C59   O14   1.221981 D    
H12   C58   1.081795 S    
C53   C54   1.411321 A    
C8    C16   1.392332 A    
C44   C64   1.484351 S    
C38   C39   1.394377 A    
C51   C52   1.391845 A    
C31   H7    1.083702 S    
C20   C24   1.414489 A    
O1    C1    1.288562 A    
C22   C23   1.398779 A    
C40   H8    1.081131 S    
C7    C11   1.398483 A    
C49   C50   1.399274 A    
C24   C25   1.418144 A    
C59   O15   1.398124 S    
O35   H27   1.013871 S    
C56   N3    1.385184 A    
C3    C50   1.435019 S    
Zn2   O8    1.988644 S    
N1    C6    1.366324 A    
C27   O10   1.350011 S    
C18   C21   1.424871 A    
C63   O25   1.398059 S    
N1    C11   1.430565 S    
N3    C57   1.370985 A    
C19   C35   1.414958 A    
O29   H23   0.992032 S    
C45   C46   1.387672 A    
C33   C34   1.418095 A    
C9    C16   1.411512 A    
O8    C4    1.305057 A    
C66   O34   1.223143 D    
C34   C35   1.409868 A    
C18   C33   1.420687 A    
C45   C50   1.412724 A    
O31   H24   1.013456 S    
C39   C60   1.482314 S    
C17   C29   1.408919 A    
C28   C29   1.419879 A    
N2    C32   1.429781 S    
O32   H25   0.990711 S    
C26   N2    1.365884 A    
C30   C31   1.392520 A    
O25   H20   1.013754 S    
O21   H18   0.986934 S    
C43   C44   1.399874 A    
C12   C34   1.416237 A    
C5    N1    1.362760 A    
N2    C27   1.362738 A    
C63   O24   1.223129 D    
Zn2   N3    2.039632 S    
O2    Zn2   1.960297 S    
C6    C15   1.411392 A    
C47   C48   1.406155 A    
C66   O35   1.398288 S    
O6    C3    1.296834 A    
O4    Zn2   1.966911 S    
O28   H22   0.991508 S    
O37   H28   1.013912 S    
O27   H21   1.012514 S    
C10   C63   1.484554 S    
C19   C20   1.414066 A    
C1    C47   1.453595 S    
C13   C14   1.397883 A    
C46   C47   1.419466 A    
C30   O16   1.382773 S    
C41   C46   1.421360 A    
C14   C36   1.387271 A    
C52   H11   1.084735 S    
C25   C26   1.411477 A    
C21   C67   1.486689 S    
C55   N4    1.385653 A    
C26   O12   1.348516 S    
C37   C40   1.394200 A    
O2    C1    1.315726 A    
C15   C37   1.419924 A    
C41   C42   1.425118 A    
C44   C45   1.419135 A    
C5    C13   1.397613 A    
C6    O11   1.346975 S    
C25   C39   1.418289 A    
Zn1   O5    1.960300 S    
C14   H1    1.082684 S    
Zn2   O6    1.987524 S    
C55   C56   1.436184 A    
C22   H2    1.084010 S    
C35   C40   1.406417 A    
C10   C11   1.411138 A    
C36   H3    1.079786 S    
O13   H13   0.988247 S    
O23   H19   1.014055 S    
C64   O26   1.219816 D    
C53   C65   1.473397 S    
