data_mof_unit_24247.cif
_audit_creation_date              2013-03-05T15:52:37-0500
_audit_creation_method            fapswitch 2.2
_symmetry_space_group_name_H-M    P1
_symmetry_Int_Tables_number       1
_space_group_crystal_system       triclinic
_cell_length_a                    27.529309
_cell_length_b                    36.658805
_cell_length_c                    22.966818
_cell_angle_alpha                 90.360213
_cell_angle_beta                  127.103454
_cell_angle_gamma                 89.72122
_cell_volume                      18485.1108812

loop_
_atom_site_label
_atom_site_type_symbol
_atom_site_description
_atom_site_fract_x
_atom_site_fract_y
_atom_site_fract_z
_atom_type_partial_charge
C1    C     C_R   0.461057 0.401139 0.060405 -0.070365
C2    C     C_R   0.549991 0.593358 0.940056 -0.108742
C3    C     C_R   0.534909 0.399670 0.939258 0.013518
C4    C     C_R   0.440635 0.584622 0.059972 -0.126244
C5    C     C_R   0.961578 0.900534 0.059654 -0.048512
C6    C     C_R   0.051788 0.091404 0.939393 -0.111859
C7    C     C_R   0.036338 0.899752 0.939985 0.035484
C8    C     C_R   0.941884 0.084661 0.061148 -0.118206
H1    H     H_    0.488774 0.392329 0.116333 0.193198
H2    H     H_    0.529311 0.601279 0.884799 0.166474
H3    H     H_    0.503688 0.390363 0.883960 0.189260
H4    H     H_    0.457197 0.588216 0.115578 0.190095
H5    H     H_    0.990555 0.890735 0.115025 0.165244
H6    H     H_    0.031913 0.097362 0.883816 0.169491
H7    H     H_    0.003504 0.888690 0.886188 0.126845
H8    H     H_    0.960079 0.086814 0.117269 0.190116
N1    N     N_R   0.470460 0.431920 0.037570 -0.057475
N2    N     N_R   0.529540 0.568080 0.962430 -0.050068
N3    N     N_R   0.529540 0.431920 0.962430 -0.050785
N4    N     N_R   0.470460 0.568080 0.037570 -0.053902
N5    N     N_R   0.970460 0.931920 0.037570 -0.047323
N6    N     N_R   0.029540 0.068080 0.962430 -0.052075
N7    N     N_R   0.029540 0.931920 0.962430 -0.055018
N8    N     N_R   0.970460 0.068080 0.037570 -0.054551
C9    C     C_R   0.380725 0.585150 0.938298 -0.139524
C10   C     C_R   0.596143 0.399563 0.059833 -0.161029
C11   C     C_R   0.610465 0.593361 0.061369 -0.159160
C12   C     C_R   0.400796 0.400886 0.938987 -0.154187
C13   C     C_R   0.881065 0.085428 0.939570 -0.120633
C14   C     C_R   0.098017 0.900294 0.060692 -0.138525
C15   C     C_R   0.111722 0.092401 0.060567 -0.153094
C16   C     C_R   0.900302 0.901208 0.938146 -0.157405
H9    H     H_    0.342388 0.588748 0.881832 0.103321
H10   H     H_    0.621495 0.389741 0.115167 0.086998
H11   H     H_    0.643720 0.601942 0.117055 0.095847
H12   H     H_    0.374722 0.391228 0.883205 0.095244
H13   H     H_    0.843132 0.089826 0.883239 0.096783
H14   H     H_    0.124269 0.890879 0.116400 0.099325
H15   H     H_    0.145431 0.101029 0.116062 0.095303
H16   H     H_    0.874116 0.891752 0.882185 0.102199
N9    N     N_R   0.432920 0.568100 0.962390 -0.039014
N10   N     N_R   0.567080 0.431900 0.037610 -0.041738
N11   N     N_R   0.567080 0.568100 0.037610 -0.041298
N12   N     N_R   0.432920 0.431900 0.962390 -0.040505
N13   N     N_R   0.932920 0.068100 0.962390 -0.041570
N14   N     N_R   0.067080 0.931900 0.037610 -0.045150
N15   N     N_R   0.067080 0.068100 0.037610 -0.041346
N16   N     N_R   0.932920 0.931900 0.962390 -0.043950
C17   C     C_R   0.330578 0.469398 0.803597 -0.151419
C18   C     C_R   0.674642 0.529758 0.175363 -0.153998
C19   C     C_R   0.673758 0.468907 0.174327 -0.168364
C20   C     C_R   0.330357 0.530112 0.803312 -0.186055
C21   C     C_R   0.829272 0.969435 0.805772 -0.153276
C22   C     C_R   0.174618 0.029833 0.175502 -0.181078
C23   C     C_R   0.173810 0.969009 0.173734 -0.151547
C24   C     C_R   0.829459 0.030175 0.804924 -0.189951
H17   H     H_    0.321330 0.441475 0.784311 0.101951
H18   H     H_    0.690691 0.557373 0.187803 0.107253
H19   H     H_    0.687165 0.440568 0.181786 0.113066
H20   H     H_    0.321164 0.557605 0.782291 0.103385
H21   H     H_    0.818785 0.941434 0.787098 0.102596
H22   H     H_    0.190628 0.057483 0.189344 0.105615
H23   H     H_    0.187426 0.940743 0.181050 0.108544
H24   H     H_    0.819693 0.057642 0.783784 0.106320
N17   N     N_R   0.383610 0.481240 0.863770 -0.038904
N18   N     N_R   0.616390 0.518760 0.136230 -0.049210
N19   N     N_R   0.616390 0.481240 0.136230 -0.051670
N20   N     N_R   0.383610 0.518760 0.863770 -0.042311
N21   N     N_R   0.883610 0.981240 0.863770 -0.039100
N22   N     N_R   0.116390 0.018760 0.136230 -0.053823
N23   N     N_R   0.116390 0.981240 0.136230 -0.044740
N24   N     N_R   0.883610 0.018760 0.863770 -0.042773
C25   C     C_R   0.531475 0.529367 0.200323 0.452883
C26   C     C_R   0.493660 0.469759 0.819210 0.449945
C27   C     C_R   0.489200 0.529975 0.815236 0.458304
C28   C     C_R   0.526925 0.469324 0.196077 0.445502
C29   C     C_R   0.033715 0.029893 0.200826 0.422356
C30   C     C_R   0.995479 0.969666 0.821146 0.481176
C31   C     C_R   0.990677 0.029977 0.816523 0.406740
C32   C     C_R   0.031101 0.969646 0.198629 0.449242
N25   N     N_R   0.519780 0.518770 0.136190 -0.135440
N26   N     N_R   0.480220 0.481230 0.863810 -0.118703
N27   N     N_R   0.480220 0.518770 0.863810 -0.134514
N28   N     N_R   0.519780 0.481230 0.136190 -0.132823
N29   N     N_R   0.019780 0.018770 0.136190 -0.134782
N30   N     N_R   0.980220 0.981230 0.863810 -0.119891
N31   N     N_R   0.980220 0.018770 0.863810 -0.135219
N32   N     N_R   0.019780 0.981230 0.136190 -0.116149
C33   C     C_R   0.968192 0.504251 0.343989 -0.358880
C34   C     C_R   0.091229 0.506894 0.463256 -0.352405
C35   C     C_R   0.468060 0.005811 0.344794 -0.378635
C36   C     C_R   0.590155 0.008329 0.466457 -0.369602
C37   C     C_R   0.418350 0.380491 0.999652 0.066976
C38   C     C_R   0.602277 0.608389 0.001103 0.113649
C39   C     C_R   0.576179 0.378347 0.998845 0.049587
C40   C     C_R   0.383508 0.594905 0.998626 0.063150
C41   C     C_R   0.917668 0.880584 0.998067 0.063919
C42   C     C_R   0.105023 0.105989 0.999841 0.105100
C43   C     C_R   0.080148 0.879456 0.000212 0.063633
C44   C     C_R   0.884559 0.095448 0.000888 0.081915
C45   C     C_R   0.295964 0.499701 0.764845 0.060677
C46   C     C_R   0.711318 0.499038 0.198086 0.069682
C47   C     C_R   0.794258 0.999790 0.767778 0.064598
C48   C     C_R   0.211300 0.999175 0.197603 0.067449
C49   C     C_R   0.532837 0.498955 0.236608 -0.187769
C50   C     C_R   0.502839 0.499985 0.790732 -0.187623
C51   C     C_R   0.039838 0.999769 0.240907 -0.182664
C52   C     C_R   0.007889 0.000000 0.795213 -0.168199
Ni1   Ni    Ni4+2 0.543040 0.456960 0.086100 0.197443
Ni2   Ni    Ni4+2 0.456960 0.543040 0.913900 0.195165
Ni3   Ni    Ni4+2 0.456960 0.456960 0.913900 0.205401
Ni4   Ni    Ni4+2 0.543040 0.543040 0.086100 0.195447
Ni5   Ni    Ni4+2 0.043040 0.956960 0.086100 0.218877
Ni6   Ni    Ni4+2 0.956960 0.043040 0.913900 0.197195
Ni7   Ni    Ni4+2 0.956960 0.956960 0.913900 0.203479
Ni8   Ni    Ni4+2 0.043040 0.043040 0.086100 0.198697
C53   C     C_R   0.517369 0.482026 0.327436 -0.220420
C54   C     C_R   0.582928 0.478100 0.780998 -0.255693
C55   C     C_R   0.515045 0.526222 0.700990 -0.214501
C56   C     C_R   0.614161 0.507647 0.368633 -0.262354
C57   C     C_R   0.112406 0.023028 0.368350 -0.248398
C58   C     C_R   0.058688 0.969374 0.746209 -0.276521
C59   C     C_R   0.063694 0.034816 0.758579 -0.239559
C60   C     C_R   0.043123 0.974180 0.342452 -0.257481
H25   H     H_    0.471620 0.473448 0.283064 0.167194
H26   H     H_    0.598235 0.459506 0.825491 0.205130
H27   H     H_    0.476218 0.543814 0.680677 0.191670
H28   H     H_    0.643939 0.516946 0.355928 0.152175
H29   H     H_    0.132796 0.040622 0.351106 0.188891
H30   H     H_    0.047645 0.942834 0.754514 0.190317
H31   H     H_    0.057602 0.059634 0.779026 0.195543
H32   H     H_    0.007188 0.955499 0.303838 0.194133
C61   C     C_R   0.537197 0.479755 0.399239 0.329060
C62   C     C_R   0.614747 0.479858 0.751305 0.319941
C63   C     C_R   0.546182 0.528866 0.670903 0.327748
C64   C     C_R   0.636271 0.504746 0.441520 0.334599
C65   C     C_R   0.134693 0.023878 0.441415 0.314397
C66   C     C_R   0.088286 0.970712 0.714088 0.340862
C67   C     C_R   0.095642 0.036874 0.729127 0.320413
C68   C     C_R   0.064185 0.974378 0.414980 0.316266
C69   C     C_R   0.597160 0.491140 0.456982 -0.252471
C70   C     C_R   0.595339 0.504877 0.694419 -0.228107
C71   C     C_R   0.109388 0.999933 0.464448 -0.248557
C72   C     C_R   0.104858 0.004799 0.702400 -0.231311
C73   C     C_R   0.554785 0.497028 0.312115 0.151517
C74   C     C_R   0.532774 0.500798 0.755398 0.070545
C75   C     C_R   0.065342 0.999233 0.318360 0.067637
C76   C     C_R   0.042051 0.001335 0.764029 0.099655
N33   N     N_R   0.626979 0.525247 0.564886 -0.021770
N34   N     N_R   0.606413 0.466493 0.616604 -0.034842
N35   N     N_R   0.626715 0.528770 0.622308 -0.010324
N36   N     N_R   0.606851 0.462910 0.559342 -0.036348
N37   N     N_R   0.150605 0.979053 0.587016 -0.023732
N38   N     N_R   0.093760 0.034543 0.600547 -0.031644
N39   N     N_R   0.149958 0.980402 0.644438 -0.019615
N40   N     N_R   0.094977 0.033467 0.543700 -0.046650
C77   C     C_R   0.614309 0.499707 0.647495 0.280615
C78   C     C_R   0.615105 0.492490 0.531135 0.300113
C79   C     C_R   0.119973 0.007633 0.651107 0.283347
C80   C     C_R   0.122105 0.005278 0.535218 0.310499
C81   C     C_R   0.642712 0.323951 0.055983 -0.245260
C82   C     C_R   0.293488 0.635207 0.942053 -0.219266
C83   C     C_R   0.348585 0.328111 0.939958 -0.258163
C84   C     C_R   0.706642 0.614739 0.039546 -0.231941
C85   C     C_R   0.106132 0.817703 0.056793 -0.178634
C86   C     C_R   0.774230 0.108354 0.937369 -0.223552
C87   C     C_R   0.841945 0.831591 0.938987 -0.241642
C88   C     C_R   0.213154 0.117109 0.054562 -0.228682
H33   H     H_    0.677553 0.341176 0.100223 0.147140
H34   H     H_    0.299252 0.642832 0.901070 0.141894
H35   H     H_    0.313948 0.346464 0.898577 0.148744
H36   H     H_    0.719918 0.591135 0.074267 0.136771
H37   H     H_    0.107684 0.828603 0.101705 0.161337
H38   H     H_    0.763471 0.094300 0.889349 0.138771
H39   H     H_    0.807780 0.851837 0.903591 0.147833
H40   H     H_    0.226185 0.098703 0.098461 0.132133
C89   C     C_R   0.655613 0.287173 0.056033 -0.154211
C90   C     C_R   0.248047 0.652174 0.941721 -0.154414
C91   C     C_R   0.334412 0.291431 0.935739 -0.155780
C92   C     C_R   0.748540 0.630087 0.031957 -0.159093
C93   C     C_R   0.118460 0.780734 0.057455 -0.179061
C94   C     C_R   0.726477 0.124406 0.933790 -0.164627
C95   C     C_R   0.824419 0.795471 0.930958 -0.158781
C96   C     C_R   0.258642 0.131874 0.052796 -0.165812
H41   H     H_    0.700354 0.276893 0.099574 0.136935
H42   H     H_    0.220180 0.672790 0.900932 0.131930
H43   H     H_    0.288612 0.282488 0.892478 0.135279
H44   H     H_    0.794146 0.618864 0.062370 0.129586
H45   H     H_    0.129193 0.764004 0.102551 0.121866
H46   H     H_    0.680728 0.122729 0.883286 0.128731
H47   H     H_    0.776649 0.788865 0.891338 0.128995
H48   H     H_    0.305770 0.125096 0.095683 0.130810
C97   C     C_R   0.612782 0.264511 0.997830 0.056152
C98   C     C_R   0.241601 0.644651 0.996552 0.043724
C99   C     C_R   0.377342 0.267196 0.989802 0.066262
C100  C     C_R   0.731519 0.659684 0.985185 0.084752
C101  C     C_R   0.118848 0.765821 0.001521 0.071646
C102  C     C_R   0.738128 0.143808 0.993713 0.063325
C103  C     C_R   0.867234 0.768634 0.976218 0.073510
C104  C     C_R   0.243366 0.155739 0.996796 0.080038
C105  C     C_R   0.555861 0.278509 0.941585 -0.337782
C106  C     C_R   0.279109 0.618407 0.049495 -0.304176
C107  C     C_R   0.435553 0.279751 0.046047 -0.353661
C108  C     C_R   0.672717 0.674534 0.947709 -0.354613
C109  C     C_R   0.105830 0.788276 0.944520 -0.341843
C110  C     C_R   0.797677 0.145051 0.058372 -0.323928
C111  C     C_R   0.928391 0.778375 0.028260 -0.362825
C112  C     C_R   0.182199 0.164702 0.942846 -0.324269
H49   H     H_    0.523208 0.261075 0.896126 0.140339
H50   H     H_    0.274161 0.612129 0.091712 0.155806
H51   H     H_    0.468104 0.261000 0.088107 0.135431
H52   H     H_    0.661996 0.699105 0.916254 0.129473
H53   H     H_    0.110835 0.777596 0.904301 0.143645
H54   H     H_    0.808141 0.161243 0.104253 0.144521
H55   H     H_    0.960978 0.756922 0.059885 0.132571
H56   H     H_    0.170707 0.185430 0.902930 0.139517
C113  C     C_R   0.541392 0.315200 0.941826 0.564485
C114  C     C_R   0.323650 0.600319 0.048879 0.559593
C115  C     C_R   0.450902 0.316634 0.050810 0.567260
C116  C     C_R   0.629624 0.658970 0.954369 0.563960
C117  C     C_R   0.090023 0.825082 0.940940 0.559426
C118  C     C_R   0.845646 0.127603 0.064066 0.559687
C119  C     C_R   0.946391 0.815315 0.039783 0.598693
C120  C     C_R   0.135547 0.148361 0.941418 0.559605
C121  C     C_R   0.586487 0.338693 0.998232 -0.018312
C122  C     C_R   0.333085 0.610183 0.996858 -0.041925
C123  C     C_R   0.405915 0.341319 0.998171 -0.013409
C124  C     C_R   0.647349 0.628800 0.000573 0.004562
C125  C     C_R   0.092378 0.840262 0.999273 -0.023391
C126  C     C_R   0.834693 0.110812 0.001296 -0.016114
C127  C     C_R   0.902196 0.841913 0.993663 -0.011408
C128  C     C_R   0.151552 0.125165 0.999410 -0.002140
C129  C     C_R   0.662285 0.204184 0.049715 -0.182850
C130  C     C_R   0.225342 0.686148 0.069213 -0.156943
C131  C     C_R   0.369999 0.220863 0.061836 -0.152849
C132  C     C_R   0.761459 0.689580 0.914383 -0.160579
C133  C     C_R   0.112749 0.707156 0.942172 -0.173735
C134  C     C_R   0.654613 0.189326 0.924716 -0.163983
C135  C     C_R   0.865222 0.717371 0.044405 -0.162728
C136  C     C_R   0.283467 0.182533 0.934196 -0.149075
H57   H     H_    0.666944 0.210235 0.099077 0.118771
H58   H     H_    0.270255 0.679462 0.118000 0.131117
H59   H     H_    0.400743 0.236665 0.111090 0.129165
H60   H     H_    0.720167 0.679885 0.863791 0.133489
H61   H     H_    0.069960 0.715585 0.892023 0.122665
H62   H     H_    0.653751 0.185413 0.877337 0.124051
H63   H     H_    0.902991 0.729250 0.095483 0.122525
H64   H     H_    0.248668 0.168599 0.883954 0.148126
C137  C     C_R   0.143253 0.677182 0.940693 -0.173520
C138  C     C_R   0.624418 0.219376 0.926370 -0.152677
C139  C     C_R   0.830866 0.690557 0.046602 -0.176617
C140  C     C_R   0.316692 0.210355 0.932221 -0.186107
C141  C     C_R   0.691661 0.173712 0.047625 -0.168585
C142  C     C_R   0.194983 0.716293 0.070601 -0.169825
C143  C     C_R   0.336621 0.193283 0.063633 -0.181580
C144  C     C_R   0.796099 0.716226 0.912059 -0.178201
H65   H     H_    0.123638 0.663007 0.889488 0.125411
H66   H     H_    0.600542 0.237611 0.879984 0.131732
H67   H     H_    0.843014 0.682324 0.098967 0.130467
H68   H     H_    0.307113 0.217530 0.880543 0.127826
H69   H     H_    0.718459 0.156661 0.095618 0.117722
H70   H     H_    0.217217 0.732194 0.120395 0.122549
H71   H     H_    0.342185 0.188730 0.113791 0.132185
H72   H     H_    0.780995 0.726708 0.859572 0.125178
C145  C     C_R   0.201368 0.667858 0.003151 0.148362
C146  C     C_R   0.630948 0.228095 0.990333 0.149883
C147  C     C_R   0.776725 0.678336 0.981793 0.145469
C148  C     C_R   0.357487 0.231102 0.995202 0.147800
C149  C     C_R   0.691375 0.167452 0.986903 0.151009
C150  C     C_R   0.140305 0.728299 0.005952 0.150230
C151  C     C_R   0.290681 0.175493 0.999050 0.140566
C152  C     C_R   0.845611 0.732160 0.977162 0.150465
C153  C     C_R   0.190586 0.518026 0.667380 -0.214650
C154  C     C_R   0.815154 0.474303 0.288831 -0.218344
C155  C     C_R   0.800039 0.522539 0.207556 -0.191783
C156  C     C_R   0.248419 0.485790 0.635010 -0.241765
C157  C     C_R   0.687454 0.015993 0.671025 -0.214440
C158  C     C_R   0.315140 0.974108 0.287125 -0.223494
C159  C     C_R   0.299963 0.023600 0.208064 -0.193279
C160  C     C_R   0.747820 0.988274 0.637747 -0.239884
H73   H     H_    0.186945 0.529672 0.708088 0.133321
H74   H     H_    0.797397 0.455538 0.308032 0.128681
H75   H     H_    0.770306 0.540840 0.162533 0.116395
H76   H     H_    0.290129 0.472916 0.650631 0.138137
H77   H     H_    0.682893 0.025870 0.712078 0.131613
H78   H     H_    0.297431 0.954745 0.305453 0.125013
H79   H     H_    0.270191 0.042219 0.163736 0.118282
H80   H     H_    0.790569 0.977235 0.653095 0.137624
C161  C     C_R   0.141442 0.520294 0.593976 -0.132845
C162  C     C_R   0.877566 0.475333 0.323326 -0.097561
C163  C     C_R   0.862197 0.522760 0.240534 -0.154059
C164  C     C_R   0.199633 0.488821 0.561179 -0.139940
C165  C     C_R   0.638477 0.018734 0.597582 -0.130776
C166  C     C_R   0.377562 0.975448 0.321831 -0.104791
C167  C     C_R   0.362157 0.024256 0.241394 -0.149729
C168  C     C_R   0.699066 0.991560 0.564017 -0.147565
H81   H     H_    0.099714 0.532907 0.579089 0.158283
H82   H     H_    0.907377 0.457740 0.369735 0.132538
H83   H     H_    0.879617 0.541132 0.220494 0.114419
H84   H     H_    0.203848 0.477764 0.520581 0.158417
H85   H     H_    0.595921 0.029926 0.582807 0.154606
H86   H     H_    0.407415 0.957463 0.367502 0.131964
H87   H     H_    0.379650 0.043409 0.222587 0.112837
H88   H     H_    0.704204 0.982360 0.523103 0.154398
C169  C     C_R   0.145631 0.505909 0.540257 0.247496
C170  C     C_R   0.901606 0.500036 0.300224 0.316861
C171  C     C_R   0.644011 0.006734 0.543566 0.254077
C172  C     C_R   0.401562 0.001053 0.300143 0.311524
C173  C     C_R   0.243786 0.500333 0.688110 0.144894
C174  C     C_R   0.776444 0.498674 0.232283 0.147190
C175  C     C_R   0.741875 0.000345 0.691228 0.144393
C176  C     C_R   0.276398 0.998969 0.231683 0.149705
C177  C     C_R   0.065768 0.473916 0.424610 0.369144
C178  C     C_R   0.995195 0.538198 0.376765 0.396256
C179  C     C_R   0.004853 0.473172 0.362141 0.340312
C180  C     C_R   0.057778 0.539730 0.434582 0.347480
C181  C     C_R   0.565783 0.975745 0.425962 0.402648
C182  C     C_R   0.494059 0.039517 0.379976 0.404224
C183  C     C_R   0.505520 0.975085 0.362531 0.321043
C184  C     C_R   0.556250 0.041041 0.439123 0.350465
O1    O     O_3   0.485857 0.328865 0.883251 -0.698508
C185  C     C_3   0.436390 0.310916 0.874455 0.138221
H89   H     H_    0.409515 0.331950 0.878336 0.133224
H90   H     H_    0.449601 0.290035 0.916928 0.092480
C186  C     C_3   0.395511 0.293749 0.798343 -0.253961
H91   H     H_    0.380576 0.315142 0.756522 0.209213
H92   H     H_    0.421384 0.272711 0.792348 0.198100
C187  C     C_3   0.339431 0.276121 0.784883 -0.992807
H93   H     H_    0.353263 0.254483 0.825859 0.267744
H94   H     H_    0.311029 0.263609 0.729590 0.277408
H95   H     H_    0.311712 0.296947 0.788169 0.264227
O2    O     O_3   0.358843 0.574164 0.101402 -0.660176
C188  C     C_3   0.336597 0.539258 0.069847 0.161156
H96   H     H_    0.349083 0.532755 0.032999 0.117709
H97   H     H_    0.286084 0.537514 0.038163 0.092714
C189  C     C_3   0.365326 0.510943 0.130696 -0.243971
H98   H     H_    0.414993 0.515814 0.169325 0.213873
H99   H     H_    0.346056 0.514010 0.161293 0.212387
C190  C     C_3   0.354293 0.472143 0.100681 -0.985683
H100  H     H_    0.304662 0.466573 0.061865 0.271643
H101  H     H_    0.375150 0.452391 0.146356 0.284824
H102  H     H_    0.375415 0.468187 0.072378 0.266942
O3    O     O_3   0.506949 0.329325 0.110619 -0.694623
C191  C     C_3   0.556085 0.310709 0.119189 0.163689
H103  H     H_    0.586319 0.331728 0.122373 0.134135
H104  H     H_    0.542604 0.292278 0.072750 0.086220
C192  C     C_3   0.592839 0.289616 0.191189 -0.264744
H105  H     H_    0.607966 0.308499 0.237156 0.214497
H106  H     H_    0.564280 0.268237 0.190780 0.190699
C193  C     C_3   0.648746 0.271642 0.204318 -1.009545
H107  H     H_    0.634701 0.252032 0.159666 0.265728
H108  H     H_    0.674467 0.256618 0.256806 0.273023
H109  H     H_    0.679116 0.292621 0.207179 0.269639
O4    O     O_3   0.573120 0.674774 0.924846 -0.669445
C194  C     C_3   0.543627 0.686547 0.852321 0.159668
H110  H     H_    0.545830 0.665231 0.819090 0.106200
H111  H     H_    0.564225 0.712384 0.851631 0.116381
C195  C     C_3   0.476874 0.694291 0.818422 -0.255858
H112  H     H_    0.455071 0.669049 0.819120 0.199385
H113  H     H_    0.474267 0.715319 0.851543 0.215158
C196  C     C_3   0.442174 0.707980 0.740152 -0.996242
H114  H     H_    0.461088 0.734509 0.739362 0.271397
H115  H     H_    0.393435 0.711862 0.716298 0.276888
H116  H     H_    0.445353 0.688000 0.706040 0.270175
O5    O     O_3   0.082567 0.847650 0.887748 -0.647119
C197  C     C_3   0.034657 0.835385 0.816446 0.132800
H117  H     H_    0.992332 0.850307 0.797479 0.116529
H118  H     H_    0.024136 0.805756 0.812118 0.081355
C198  C     C_3   0.051137 0.843802 0.765236 -0.182442
H119  H     H_    0.057610 0.873668 0.765039 0.235345
H120  H     H_    0.094703 0.829990 0.785453 0.213390
C199  C     C_3   0.001716 0.830889 0.687444 -0.981795
H121  H     H_    0.996978 0.800760 0.686030 0.262905
H122  H     H_    0.014318 0.838551 0.651441 0.304682
H123  H     H_    0.957291 0.843722 0.666222 0.256031
O6    O     O_3   0.903811 0.131253 0.128534 -0.672404
C200  C     C_3   0.909169 0.109715 0.183225 0.137330
H124  H     H_    0.909729 0.080286 0.171283 0.113216
H125  H     H_    0.871112 0.114373 0.187003 0.091138
C201  C     C_3   0.968414 0.119417 0.257449 -0.225938
H126  H     H_    0.006521 0.119563 0.253464 0.239088
H127  H     H_    0.964493 0.147278 0.273628 0.188770
C202  C     C_3   0.982834 0.092315 0.316181 -0.917667
H128  H     H_    0.945914 0.092400 0.322544 0.255143
H129  H     H_    0.026241 0.100062 0.369131 0.278957
H130  H     H_    0.987912 0.064361 0.301537 0.279348
O7    O     O_3   0.006712 0.826180 0.090656 -0.695143
C203  C     C_3   0.036735 0.808542 0.159150 0.127959
H131  H     H_    0.083990 0.819233 0.194616 0.132302
H132  H     H_    0.042166 0.778831 0.155400 0.106989
C204  C     C_3   0.007052 0.816754 0.197070 -0.353029
H133  H     H_    0.004919 0.846718 0.202658 0.221519
H134  H     H_    0.959899 0.805852 0.164180 0.199814
C205  C     C_3   0.043130 0.799454 0.272621 -0.928891
H135  H     H_    0.044156 0.769320 0.268020 0.257213
H136  H     H_    0.021152 0.806182 0.299001 0.283201
H137  H     H_    0.090529 0.809985 0.307574 0.261185
O8    O     O_3   0.075295 0.158794 0.890002 -0.675407
C206  C     C_3   0.055943 0.153315 0.817592 0.149583
H138  H     H_    0.028434 0.128016 0.795380 0.152923
H139  H     H_    0.093309 0.149886 0.812250 0.141057
C207  C     C_3   0.016260 0.185498 0.770499 -0.297010
H140  H     H_    0.978064 0.188914 0.774216 0.213454
H141  H     H_    0.044027 0.210827 0.791257 0.208254
C208  C     C_3   0.990306 0.179761 0.690709 -0.920812
H142  H     H_    0.027757 0.177207 0.685494 0.290550
H143  H     H_    0.961480 0.203483 0.657989 0.260171
H144  H     H_    0.961856 0.154736 0.668612 0.267185
O9    O     O_3   0.099648 0.442050 0.449528 -0.649585
C209  C     C_3   0.087205 0.422656 0.492175 0.241864
H145  H     H_    0.041780 0.409365 0.456174 0.134703
H146  H     H_    0.087965 0.440820 0.531905 0.085809
C210  C     C_3   0.135894 0.393263 0.535132 -0.279806
H147  H     H_    0.134799 0.374236 0.496479 0.211351
H148  H     H_    0.181574 0.406282 0.569875 0.208287
C211  C     C_3   0.125905 0.371730 0.583725 -1.013789
H149  H     H_    0.128290 0.390153 0.623973 0.270286
H150  H     H_    0.161889 0.350589 0.613875 0.275623
H151  H     H_    0.080795 0.358056 0.550111 0.272635
O10   O     O_3   0.958378 0.568015 0.362319 -0.615824
C212  C     C_3   0.964678 0.594447 0.322787 0.227644
H152  H     H_    0.965345 0.581895 0.278861 0.049874
H153  H     H_    0.007156 0.610278 0.360232 0.135677
C213  C     C_3   0.910977 0.620906 0.287863 -0.247462
H154  H     H_    0.867640 0.605815 0.249836 0.196111
H155  H     H_    0.909899 0.633610 0.331154 0.217736
C214  C     C_3   0.915852 0.650875 0.245915 -1.060360
H156  H     H_    0.958632 0.666586 0.282948 0.276024
H157  H     H_    0.876675 0.669832 0.222371 0.278556
H158  H     H_    0.915143 0.638840 0.200896 0.266089
O11   O     O_3   0.978561 0.440498 0.326188 -0.653168
C215  C     C_3   0.991637 0.433692 0.276253 0.265519
H159  H     H_    0.989172 0.403724 0.267393 0.129879
H160  H     H_    0.038652 0.442051 0.297509 0.100205
C216  C     C_3   0.944253 0.452101 0.202833 -0.371622
H161  H     H_    0.897770 0.443850 0.183044 0.229336
H162  H     H_    0.948004 0.482216 0.209854 0.193542
C217  C     C_3   0.953479 0.441588 0.145739 -0.930963
H163  H     H_    0.999447 0.450048 0.164081 0.261942
H164  H     H_    0.918767 0.455498 0.093477 0.282397
H165  H     H_    0.948481 0.411644 0.136205 0.268862
O12   O     O_3   0.082718 0.572522 0.471016 -0.632259
C218  C     C_3   0.126879 0.583809 0.462041 0.181523
H166  H     H_    0.106468 0.585952 0.402960 0.070897
H167  H     H_    0.165873 0.564418 0.488485 0.116144
C219  C     C_3   0.151197 0.621194 0.497800 -0.253735
H168  H     H_    0.112836 0.640953 0.472814 0.202580
H169  H     H_    0.172685 0.619188 0.557041 0.209494
C220  C     C_3   0.198153 0.635194 0.488331 -1.010247
H170  H     H_    0.237156 0.615950 0.513312 0.277382
H171  H     H_    0.215407 0.662166 0.515559 0.275035
H172  H     H_    0.177137 0.638366 0.429459 0.270432
O13   O     O_3   0.600345 0.944152 0.449760 -0.638801
C221  C     C_3   0.587549 0.923359 0.490666 0.251171
H173  H     H_    0.542932 0.909342 0.453283 0.136362
H174  H     H_    0.586300 0.940569 0.530021 0.077954
C222  C     C_3   0.637499 0.894701 0.534077 -0.280147
H175  H     H_    0.638555 0.876612 0.495826 0.213787
H176  H     H_    0.682350 0.908538 0.570336 0.208790
C223  C     C_3   0.627017 0.871625 0.580623 -1.020133
H177  H     H_    0.627271 0.889122 0.620477 0.270178
H178  H     H_    0.663978 0.851077 0.611194 0.276092
H179  H     H_    0.582714 0.857146 0.545464 0.273125
O14   O     O_3   0.456323 0.068638 0.366519 -0.616282
C224  C     C_3   0.463044 0.096554 0.329766 0.228891
H180  H     H_    0.465065 0.085517 0.285853 0.047283
H181  H     H_    0.504944 0.112473 0.369153 0.136763
C225  C     C_3   0.408641 0.122424 0.295322 -0.249856
H182  H     H_    0.365985 0.107426 0.254147 0.192354
H183  H     H_    0.405310 0.132970 0.338297 0.220280
C226  C     C_3   0.414938 0.154561 0.258520 -1.062035
H184  H     H_    0.456855 0.170315 0.298919 0.278033
H185  H     H_    0.374999 0.172890 0.234851 0.278438
H186  H     H_    0.416950 0.144726 0.214170 0.265767
O15   O     O_3   0.481025 0.942434 0.325612 -0.645822
C227  C     C_3   0.473712 0.944090 0.259367 0.235750
H187  H     H_    0.518724 0.947904 0.270303 0.105286
H188  H     H_    0.442663 0.966855 0.224567 0.088106
C228  C     C_3   0.445889 0.908280 0.217833 -0.270657
H189  H     H_    0.476470 0.885268 0.251642 0.210777
H190  H     H_    0.401206 0.904059 0.207226 0.208249
C229  C     C_3   0.436548 0.908427 0.145243 -0.985702
H191  H     H_    0.405136 0.930823 0.109988 0.271229
H192  H     H_    0.416357 0.882061 0.116538 0.278599
H193  H     H_    0.480820 0.912036 0.154612 0.268287
O16   O     O_3   0.580325 0.073422 0.477648 -0.631059
C230  C     C_3   0.624317 0.086297 0.469602 0.178465
H194  H     H_    0.604127 0.089309 0.410717 0.068721
H195  H     H_    0.663968 0.067427 0.495538 0.113406
C231  C     C_3   0.647259 0.123491 0.506872 -0.244212
H196  H     H_    0.608086 0.142500 0.483531 0.202955
H197  H     H_    0.669736 0.120503 0.566217 0.209817
C232  C     C_3   0.692587 0.139611 0.496536 -1.027322
H198  H     H_    0.732012 0.120949 0.518980 0.274892
H199  H     H_    0.709476 0.166184 0.525618 0.277599
H200  H     H_    0.670255 0.144173 0.437643 0.270153
O17   O     O_3   0.542822 0.564418 0.229130 -0.646463
C233  C     C_3   0.582751 0.584563 0.222225 0.157989
H201  H     H_    0.569027 0.613660 0.216168 0.145123
H202  H     H_    0.579989 0.577842 0.173443 0.091223
C234  C     C_3   0.648471 0.580729 0.291166 -0.286998
H203  H     H_    0.649589 0.582945 0.340256 0.249303
H204  H     H_    0.666390 0.553541 0.291065 0.185791
C235  C     C_3   0.689545 0.610296 0.295793 -0.952969
H205  H     H_    0.687721 0.610073 0.246243 0.245602
H206  H     H_    0.737295 0.605426 0.344203 0.284904
H207  H     H_    0.675070 0.637580 0.301497 0.269633
O18   O     O_3   0.500045 0.433732 0.807219 -0.676710
C236  C     C_3   0.453940 0.423986 0.733677 0.221926
H208  H     H_    0.470705 0.400159 0.720310 0.153577
H209  H     H_    0.443808 0.445798 0.694129 0.100229
C237  C     C_3   0.395846 0.412773 0.723862 -0.372888
H210  H     H_    0.406112 0.390071 0.761598 0.219705
H211  H     H_    0.378931 0.436312 0.737432 0.186981
C238  C     C_3   0.346102 0.400661 0.645668 -0.977822
H212  H     H_    0.334394 0.423162 0.607004 0.269081
H213  H     H_    0.304612 0.393148 0.640493 0.265587
H214  H     H_    0.361478 0.376533 0.631223 0.276225
O19   O     O_3   0.474609 0.563871 0.782813 -0.678054
C239  C     C_3   0.416236 0.574324 0.760418 0.141758
H215  H     H_    0.419306 0.584322 0.808395 0.114087
H216  H     H_    0.383122 0.551275 0.733735 0.101317
C240  C     C_3   0.392195 0.604803 0.704349 -0.246956
H217  H     H_    0.427155 0.626440 0.726013 0.215173
H218  H     H_    0.383377 0.593801 0.653554 0.208856
C241  C     C_3   0.333524 0.621176 0.686368 -1.034856
H219  H     H_    0.297364 0.600046 0.662355 0.272566
H220  H     H_    0.317844 0.643570 0.646364 0.286251
H221  H     H_    0.341495 0.632567 0.736413 0.265408
O20   O     O_3   0.543520 0.434342 0.223496 -0.655427
C242  C     C_3   0.599513 0.425350 0.237363 0.178438
H222  H     H_    0.633606 0.447721 0.267228 0.096311
H223  H     H_    0.592209 0.419537 0.185136 0.106861
C243  C     C_3   0.625093 0.391171 0.284506 -0.234172
H224  H     H_    0.635138 0.397138 0.338303 0.213173
H225  H     H_    0.590464 0.369146 0.257489 0.219536
C244  C     C_3   0.683251 0.378244 0.296371 -1.046209
H226  H     H_    0.673643 0.370633 0.243469 0.259881
H227  H     H_    0.701434 0.353902 0.332231 0.283209
H228  H     H_    0.718312 0.400061 0.322822 0.274155
O21   O     O_3   0.049970 0.065018 0.228831 -0.676125
C245  C     C_3   0.096373 0.078333 0.225773 0.140393
H229  H     H_    0.078019 0.084579 0.168727 0.125998
H230  H     H_    0.134379 0.058277 0.249943 0.109214
C246  C     C_3   0.121755 0.113675 0.270003 -0.264386
H231  H     H_    0.085555 0.134880 0.244261 0.200017
H232  H     H_    0.136668 0.108865 0.326329 0.244876
C247  C     C_3   0.175709 0.127685 0.273788 -0.972417
H233  H     H_    0.212563 0.106907 0.298801 0.269203
H234  H     H_    0.193899 0.152841 0.307698 0.281981
H235  H     H_    0.161130 0.134312 0.218260 0.256611
O22   O     O_3   0.995003 0.933516 0.803839 -0.673706
C248  C     C_3   0.944308 0.926669 0.730518 0.143080
H236  H     H_    0.957010 0.904285 0.709392 0.147015
H237  H     H_    0.931510 0.950294 0.693335 0.105086
C249  C     C_3   0.889567 0.914451 0.726814 -0.341946
H238  H     H_    0.902875 0.891792 0.765718 0.196677
H239  H     H_    0.874260 0.937806 0.742565 0.190015
C250  C     C_3   0.837116 0.901923 0.650090 -0.983272
H240  H     H_    0.822864 0.924211 0.610186 0.267747
H241  H     H_    0.797684 0.894229 0.649134 0.265924
H242  H     H_    0.851061 0.877800 0.633850 0.271288
O23   O     O_3   0.970724 0.062657 0.778603 -0.689203
C251  C     C_3   0.913932 0.072572 0.761796 0.182918
H243  H     H_    0.919240 0.079854 0.812454 0.108859
H244  H     H_    0.880641 0.049811 0.732622 0.110148
C252  C     C_3   0.888854 0.105850 0.711995 -0.269905
H245  H     H_    0.920413 0.129168 0.741016 0.203891
H246  H     H_    0.885288 0.099773 0.662061 0.213136
C253  C     C_3   0.826198 0.116562 0.690021 -1.030282
H247  H     H_    0.793063 0.094114 0.658671 0.271622
H248  H     H_    0.809836 0.141284 0.655304 0.285096
H249  H     H_    0.828781 0.122768 0.739232 0.267366
O24   O     O_3   0.048223 0.934226 0.223229 -0.674157
C254  C     C_3   0.112477 0.931588 0.271173 0.208002
H250  H     H_    0.129078 0.938148 0.327732 0.130520
H251  H     H_    0.135130 0.950266 0.256195 0.089075
C255  C     C_3   0.130953 0.892528 0.269434 -0.295416
H252  H     H_    0.111940 0.873769 0.288795 0.218438
H253  H     H_    0.111843 0.885025 0.212412 0.196315
C256  C     C_3   0.200028 0.888138 0.317650 -1.020984
H254  H     H_    0.219982 0.906072 0.298295 0.260066
H255  H     H_    0.211670 0.859393 0.315299 0.271523
H256  H     H_    0.220068 0.895138 0.375184 0.280709
N41   N     N_R   0.494591 0.467973 0.411959 0.242234
O25   O     O_R   0.484917 0.487950 0.451098 -0.362671
O26   O     O_R   0.457614 0.441147 0.373850 -0.377956
N42   N     N_R   0.666336 0.456195 0.779215 0.246893
O27   O     O_R   0.711331 0.466381 0.778763 -0.368911
O28   O     O_R   0.671410 0.425896 0.811737 -0.376973
N43   N     N_R   0.524745 0.554566 0.613312 0.244917
O29   O     O_R   0.557936 0.582842 0.624927 -0.375208
O30   O     O_R   0.467690 0.554334 0.556767 -0.359882
N44   N     N_R   0.698197 0.515253 0.498590 0.246121
O31   O     O_R   0.729648 0.498481 0.561063 -0.372284
O32   O     O_R   0.725601 0.538970 0.485623 -0.391908
N45   N     N_R   0.182244 0.049312 0.490968 0.245943
O33   O     O_R   0.221601 0.041653 0.559932 -0.373388
O34   O     O_R   0.189824 0.078871 0.466214 -0.402873
N46   N     N_R   0.096662 0.937204 0.688739 0.235732
O35   O     O_R   0.061221 0.929577 0.619322 -0.334486
O36   O     O_R   0.129289 0.911331 0.735146 -0.400231
N47   N     N_R   0.118396 0.071647 0.726678 0.241498
O37   O     O_R   0.170869 0.073871 0.738528 -0.378059
O38   O     O_R   0.089666 0.101559 0.719595 -0.436939
N48   N     N_R   0.036830 0.949797 0.436175 0.250612
O39   O     O_R   0.017771 0.961678 0.472697 -0.359185
O40   O     O_R   0.021986 0.916966 0.408954 -0.368524

loop_
_geom_bond_atom_site_label_1
_geom_bond_atom_site_label_2
_geom_bond_distance
_ccdc_geom_bond_type
C204  C205  1.525735 S    
C185  H90   1.117326 S    
C252  H245  1.109603 S    
C254  H251  1.114443 S    
C28   C49   1.370817 A    
C139  C147  1.399714 A    
C102  C110  1.399089 A    
C222  H175  1.111605 S    
C242  H222  1.116987 S    
C154  H74   1.083447 S    
C214  H156  1.110872 S    
C53   C61   1.392706 A    
C227  H188  1.114905 S    
C159  C176  1.402438 A    
C91   C99   1.400318 A    
C188  H96   1.113012 S    
C244  H228  1.110981 S    
C119  O7    1.393207 S    
C32   C51   1.388310 A    
C89   C97   1.400433 A    
O10   C212  1.412785 S    
N10   Ni1   1.841909 S    
C245  H229  1.108251 S    
C165  C171  1.405792 A    
C185  C186  1.528976 S    
C166  C172  1.405221 A    
C161  C169  1.405854 A    
C224  C225  1.527888 S    
C97   C105  1.394909 A    
C199  H121  1.110786 S    
C14   H14   1.079772 S    
C195  C196  1.526649 S    
C30   C52   1.401992 A    
O20   C242  1.410758 S    
C248  H236  1.108124 S    
C105  H49   1.082328 S    
C200  C201  1.528420 S    
C219  C220  1.526018 S    
C43   C125  1.477125 S    
C129  C146  1.400250 A    
C4    C40   1.388535 A    
C30   O22   1.378979 S    
C63   C70   1.417377 A    
O14   C224  1.412490 S    
C220  H171  1.110302 S    
C57   C75   1.400501 A    
C3    N3    1.337191 A    
C58   C76   1.401772 A    
C100  C108  1.404961 A    
C5    H5    1.077770 S    
C92   C100  1.397529 A    
C251  C252  1.526319 S    
C198  C199  1.526454 S    
C57   H29   1.078383 S    
C110  H54   1.083173 S    
C253  H249  1.110950 S    
C7    H7    1.076049 S    
C167  C172  1.400115 A    
C21   N21   1.339495 A    
C210  H148  1.111871 S    
N7    N14   1.377109 A    
C85   C125  1.407005 A    
C153  C161  1.388606 A    
C83   C123  1.402238 A    
C31   N31   1.347269 A    
C249  H239  1.103607 S    
N15   Ni8   1.852077 S    
C60   C75   1.394254 A    
C20   C45   1.381479 A    
C86   H38   1.081504 S    
O23   C251  1.411946 S    
C6    C42   1.380053 A    
C9    N9    1.340847 A    
C236  H209  1.115099 S    
C11   H11   1.076025 S    
C118  O6    1.383220 S    
C12   N12   1.338723 A    
C13   N13   1.344888 A    
C40   C122  1.472038 S    
C256  H254  1.110586 S    
C64   C69   1.415241 A    
C34   C177  1.408821 A    
N47   O38   1.301159 A    
C90   C98   1.402796 A    
C194  H110  1.115649 S    
C22   N22   1.343556 A    
N40   C80   1.352434 A    
N17   N20   1.375442 A    
C113  O1    1.384799 S    
C237  H210  1.111249 S    
C108  H52   1.081043 S    
C233  H201  1.111036 S    
C133  H61   1.083365 S    
C230  H195  1.112743 S    
N41   O25   1.301523 A    
N20   Ni2   1.842528 S    
N48   O40   1.301358 A    
C99   C148  1.468293 S    
C131  H59   1.083039 S    
C7    C43   1.383063 A    
C42   C128  1.469400 S    
C63   N43   1.433135 S    
C215  H159  1.110918 S    
C143  H71   1.080576 S    
C229  H192  1.110358 S    
C232  H199  1.110295 S    
C222  C223  1.525626 S    
C231  H196  1.111667 S    
C120  O8    1.388648 S    
C202  H128  1.110665 S    
C153  C173  1.394851 A    
N47   O37   1.301528 A    
C235  H205  1.108413 S    
C140  H68   1.083063 S    
C188  C189  1.527315 S    
C141  H69   1.083050 S    
C206  H139  1.113479 S    
C219  H169  1.111876 S    
N29   Ni8   1.852625 S    
C24   C47   1.381558 A    
C189  H98   1.106939 S    
N1    Ni1   1.842626 S    
C36   C171  1.473231 S    
N3    Ni3   1.839917 S    
C229  H193  1.110877 S    
C22   C48   1.384990 A    
C199  H123  1.110253 S    
C161  H81   1.083174 S    
N26   Ni3   1.852625 S    
C247  H234  1.110264 S    
C32   N32   1.342029 A    
C33   C170  1.473824 S    
C211  H149  1.110960 S    
N3    N10   1.377109 A    
C177  O9    1.384139 S    
C159  C167  1.391724 A    
C31   C52   1.392709 A    
C193  H107  1.110404 S    
C218  H167  1.112629 S    
C3    H3    1.071665 S    
C205  H135  1.110913 S    
C90   H42   1.083276 S    
C5    N5    1.341849 A    
N46   O35   1.300826 A    
C239  H216  1.116899 S    
O1    C185  1.415421 S    
C252  C253  1.526337 S    
C243  H224  1.111692 S    
C3    C39   1.379697 A    
C94   H46   1.082915 S    
C88   H40   1.081805 S    
O9    C209  1.413541 S    
O5    C197  1.419174 S    
C253  H248  1.109865 S    
C114  C122  1.416495 A    
C23   N23   1.340482 A    
C164  C169  1.402230 A    
C159  H79   1.081960 S    
C201  H126  1.106706 S    
C216  H162  1.110955 S    
C98   C106  1.400157 A    
C255  H253  1.110466 S    
C111  C119  1.411798 A    
C212  H152  1.116366 S    
N34   C77   1.356008 A    
C256  H256  1.110785 S    
C86   C94   1.394257 A    
C68   C71   1.417427 A    
C238  H214  1.110720 S    
C93   C101  1.398903 A    
C246  C247  1.525976 S    
C71   C80   1.453577 S    
N45   O33   1.301381 A    
C160  C175  1.402252 A    
C214  H157  1.110112 S    
N23   Ni5   1.842524 S    
C135  H63   1.083175 S    
C242  H223  1.109429 S    
N42   O28   1.301597 A    
C179  O11   1.383970 S    
N33   N35   1.328680 A    
C240  C241  1.525941 S    
C47   C175  1.453339 S    
C177  C179  1.403014 A    
C255  C256  1.525404 S    
C192  H106  1.108784 S    
C206  H138  1.108470 S    
C158  C166  1.392300 A    
C237  C238  1.525230 S    
C59   C67   1.398512 A    
C17   H17   1.081500 S    
C60   H32   1.083786 S    
C114  O2    1.381484 S    
C8    H8    1.067045 S    
C15   C42   1.387368 A    
C183  O15   1.382583 S    
N32   Ni5   1.842660 S    
C186  H92   1.110273 S    
C182  C184  1.404854 A    
C20   H20   1.081281 S    
C197  H117  1.109530 S    
C21   H21   1.081145 S    
N13   Ni6   1.841911 S    
C215  C216  1.533723 S    
C204  H134  1.110659 S    
C36   C184  1.412453 A    
C203  H131  1.109908 S    
C96   C104  1.397990 A    
C243  C244  1.526458 S    
C23   H23   1.079270 S    
C41   C127  1.467489 S    
C132  C147  1.401718 A    
C26   O18   1.379343 S    
C24   H24   1.080692 S    
C133  C150  1.404532 A    
C155  H75   1.082346 S    
N33   C78   1.355027 A    
C130  C142  1.394055 A    
C54   C62   1.399416 A    
C235  H207  1.110768 S    
C81   H33   1.083089 S    
N18   N19   1.375442 A    
C29   N29   1.350542 A    
C234  H203  1.111605 S    
C134  C138  1.390912 A    
C107  H51   1.080101 S    
O16   C230  1.414320 S    
C35   C183  1.409181 A    
C221  C222  1.527615 S    
C189  C190  1.526363 S    
C182  O14   1.385791 S    
C82   C122  1.401225 A    
C251  H244  1.115644 S    
C224  H180  1.116358 S    
C250  H242  1.110784 S    
C162  C170  1.405393 A    
N39   C79   1.357931 A    
C211  H151  1.110834 S    
C2    C38   1.379994 A    
C25   O17   1.389313 S    
O2    C188  1.413584 S    
N5    Ni5   1.842626 S    
C208  H144  1.110916 S    
C117  O5    1.388336 S    
C157  C175  1.394685 A    
C130  C145  1.403760 A    
C158  C176  1.398616 A    
C156  H76   1.081561 S    
C24   N24   1.339468 A    
C157  H77   1.083484 S    
C23   C48   1.381843 A    
N30   Ni7   1.852625 S    
C4    N4    1.344423 A    
N21   N24   1.375442 A    
C39   C121  1.481335 S    
O21   C245  1.410598 S    
C160  C168  1.393633 A    
C6    H6    1.065868 S    
C33   C179  1.406262 A    
C37   C123  1.473268 S    
C25   C49   1.382886 A    
O11   C215  1.414469 S    
N25   Ni4   1.852625 S    
C163  C170  1.400519 A    
N27   Ni2   1.842659 S    
C19   N19   1.339774 A    
C223  H177  1.110965 S    
C195  H113  1.111756 S    
C154  C162  1.392515 A    
C197  C198  1.527738 S    
C209  H145  1.112757 S    
C34   C180  1.413580 A    
C130  H58   1.083192 S    
C201  C202  1.526834 S    
C1    C37   1.385018 A    
C213  H154  1.111468 S    
C194  H111  1.111395 S    
C5    C41   1.389053 A    
N8    Ni8   1.839919 S    
C212  C213  1.528012 S    
C55   C74   1.393798 A    
C83   C91   1.388360 A    
C241  H220  1.109916 S    
C84   H36   1.082686 S    
C4    H4    1.073396 S    
C165  H85   1.083247 S    
C238  H212  1.110903 S    
C10   N10   1.345960 A    
C167  H87   1.081429 S    
C207  H140  1.111547 S    
N29   N32   1.376175 A    
C168  H88   1.082869 S    
N21   Ni7   1.840027 S    
C180  O12   1.385234 S    
N14   Ni5   1.841909 S    
C14   N14   1.342455 A    
C225  H183  1.111765 S    
C187  H93   1.110828 S    
C84   C92   1.388326 A    
C240  H217  1.108014 S    
C244  H227  1.110238 S    
C1    N1    1.337668 A    
N28   Ni1   1.842660 S    
C115  C123  1.417987 A    
N5    N16   1.377103 A    
N37   C80   1.354974 A    
C8    C44   1.388486 A    
C202  H130  1.110741 S    
C131  C143  1.386924 A    
N38   C79   1.355985 A    
C66   C72   1.413933 A    
C192  C193  1.525293 S    
C245  H230  1.113674 S    
C66   N46   1.432205 S    
C110  C118  1.398025 A    
C203  C204  1.539433 S    
C7    N7    1.340890 A    
C224  H181  1.109221 S    
C199  H122  1.110382 S    
N6    N15   1.377103 A    
C27   O19   1.380476 S    
C82   C90   1.390269 A    
C154  C174  1.398559 A    
C254  H250  1.111283 S    
N6    Ni6   1.842624 S    
C190  H102  1.111643 S    
C191  H103  1.106331 S    
C118  C126  1.419260 A    
C104  C112  1.400400 A    
O4    C194  1.412056 S    
C234  C235  1.526504 S    
C230  H194  1.115572 S    
C52   C76   1.487732 S    
O12   C218  1.414199 S    
C53   H25   1.083939 S    
C9    H9    1.078190 S    
O18   C236  1.414834 S    
C198  H120  1.111576 S    
C55   H27   1.082336 S    
C210  H147  1.111608 S    
C99   C107  1.396666 A    
C206  C207  1.527430 S    
C197  H118  1.113752 S    
C248  H237  1.116613 S    
C101  C109  1.401628 A    
C228  H189  1.111737 S    
C162  H82   1.083361 S    
C178  O10   1.385690 S    
C28   N28   1.342099 A    
C34   C169  1.475304 S    
C28   O20   1.381012 S    
O6    C200  1.417987 S    
C225  H182  1.111522 S    
C196  H115  1.110391 S    
C135  C152  1.404351 A    
C108  C116  1.408166 A    
C97   C146  1.468477 S    
N35   C77   1.355007 A    
C136  C151  1.404323 A    
C87   H39   1.083797 S    
C17   C45   1.383114 A    
C236  H208  1.110794 S    
C91   H43   1.082995 S    
C178  C180  1.405159 A    
C6    N6    1.337115 A    
N24   Ni6   1.842528 S    
C131  C148  1.404097 A    
C89   H41   1.083184 S    
C116  C124  1.404346 A    
C53   C73   1.390131 A    
C25   N25   1.358662 A    
C181  C183  1.399700 A    
C217  H163  1.110885 S    
C92   H44   1.083493 S    
C139  H67   1.080567 S    
N4    Ni4   1.839919 S    
C93   H45   1.083114 S    
C140  C148  1.402322 A    
C213  C214  1.524443 S    
C29   O21   1.385588 S    
C237  H211  1.107430 S    
C233  H202  1.102564 S    
C96   H48   1.083197 S    
N22   N23   1.375442 A    
N37   N39   1.330240 A    
C83   H35   1.083300 S    
N38   N40   1.326419 A    
C245  C246  1.527955 S    
C38   C124  1.458393 S    
C215  H160  1.116702 S    
C185  H89   1.105908 S    
C254  C255  1.525559 S    
C109  H53   1.083491 S    
C56   C73   1.395794 A    
C86   C126  1.409102 A    
C15   N15   1.343474 A    
C232  H198  1.110821 S    
C222  H176  1.111562 S    
C231  H197  1.111864 S    
C26   N26   1.346598 A    
C187  H95   1.110799 S    
C227  H187  1.115274 S    
C196  H116  1.110295 S    
C119  C127  1.414049 A    
N36   C78   1.354987 A    
C188  H97   1.116587 S    
C31   O23   1.387431 S    
C233  C234  1.531058 S    
C18   H18   1.072405 S    
O19   C239  1.411725 S    
C1    H1    1.075530 S    
C138  C146  1.403031 A    
C189  H99   1.111792 S    
C181  O13   1.383877 S    
C192  H105  1.109208 S    
N30   N31   1.376175 A    
C54   C74   1.399977 A    
C22   H22   1.074243 S    
C193  H109  1.110942 S    
N22   Ni8   1.840024 S    
C253  H247  1.111341 S    
N26   N27   1.376175 A    
C55   C63   1.392108 A    
C226  H185  1.110011 S    
C12   C37   1.389599 A    
C19   C46   1.381954 A    
C217  H165  1.110830 S    
C211  H150  1.110459 S    
C134  C149  1.403442 A    
C226  H184  1.110847 S    
C160  H80   1.081510 S    
C62   N42   1.441170 S    
C246  H232  1.111082 S    
C62   C70   1.414812 A    
C18   C46   1.385835 A    
C51   C75   1.466647 S    
C190  H100  1.110881 S    
C82   H34   1.083152 S    
C225  C226  1.524364 S    
C220  H172  1.110828 S    
C49   C73   1.454068 S    
C134  H62   1.082658 S    
C111  H55   1.079353 S    
C132  C144  1.391960 A    
C72   C79   1.471427 S    
C193  H108  1.110222 S    
C58   C66   1.391611 A    
C205  H136  1.110354 S    
N46   O36   1.300675 A    
C136  C140  1.392331 A    
C210  C211  1.525694 S    
N44   O32   1.301730 A    
C252  H246  1.111595 S    
C61   N41   1.437869 S    
C243  H225  1.110517 S    
C164  H84   1.082799 S    
C112  C120  1.402065 A    
C70   C77   1.464770 S    
N44   O31   1.301331 A    
C249  H238  1.110855 S    
C201  H127  1.111490 S    
C158  H78   1.083244 S    
C13   C44   1.399243 A    
C59   H31   1.079167 S    
C60   C68   1.394820 A    
N2    Ni2   1.842624 S    
C137  H65   1.083295 S    
C238  H213  1.110596 S    
C205  H137  1.110552 S    
C236  C237  1.532264 S    
C56   H28   1.079778 S    
C168  C171  1.401204 A    
C61   C69   1.419999 A    
C153  H73   1.083543 S    
C44   C126  1.486535 S    
N1    N12   1.377103 A    
C155  C163  1.392172 A    
N2    N11   1.377103 A    
C184  O16   1.384948 S    
C240  H218  1.111721 S    
C27   N27   1.346798 A    
C16   N16   1.334535 A    
C21   C47   1.384132 A    
C64   N44   1.441088 S    
C35   C182  1.410727 A    
C230  C231  1.527121 S    
C186  H91   1.111981 S    
C166  H86   1.083366 S    
N12   Ni3   1.852080 S    
C11   N11   1.341606 A    
C69   C78   1.459802 S    
C36   C181  1.408140 A    
C12   H12   1.081286 S    
C9    C40   1.385439 A    
C203  H132  1.108506 S    
C229  H191  1.110931 S    
C232  H200  1.110836 S    
C117  C125  1.412421 A    
C136  H64   1.083415 S    
C11   C38   1.379144 A    
C221  H174  1.116384 S    
C56   C64   1.398673 A    
C101  C150  1.473962 S    
C85   H37   1.080411 S    
C231  C232  1.526107 S    
C227  C228  1.527230 S    
C103  C152  1.471821 S    
C46   C174  1.460281 S    
C104  C151  1.466642 S    
O3    C191  1.416234 S    
C219  H168  1.111673 S    
C8    N8    1.336696 A    
C2    N2    1.341584 A    
C94   C102  1.400041 A    
N4    N9    1.377109 A    
C204  H133  1.110493 S    
C250  H241  1.110224 S    
C143  C151  1.399080 A    
C144  C152  1.404486 A    
C68   N48   1.438911 S    
O24   C254  1.414369 S    
C17   N17   1.339431 A    
N8    N13   1.377109 A    
C247  H233  1.110996 S    
C120  C128  1.411987 A    
C208  H143  1.110262 S    
C88   C128  1.405614 A    
C57   C65   1.396651 A    
C16   C41   1.381956 A    
O17   C233  1.413686 S    
C256  H255  1.110358 S    
N17   Ni3   1.840027 S    
N31   Ni6   1.842659 S    
C48   C176  1.460104 S    
N19   Ni1   1.842524 S    
C87   C95   1.384158 A    
C27   C50   1.381859 A    
C15   H15   1.075377 S    
C239  H215  1.112851 S    
C218  C219  1.527177 S    
C191  C192  1.531634 S    
C106  C114  1.398682 A    
C163  H83   1.081072 S    
C33   C178  1.410668 A    
C209  H146  1.116194 S    
C20   N20   1.340056 A    
C249  C250  1.525568 S    
C129  C141  1.393367 A    
C216  C217  1.525450 S    
C35   C172  1.472827 S    
C30   N30   1.343855 A    
C213  H155  1.111742 S    
C255  H252  1.110300 S    
C65   C71   1.411409 A    
C116  O4    1.392360 S    
C112  H56   1.083675 S    
C241  H221  1.110925 S    
C133  C137  1.392338 A    
C195  H112  1.110848 S    
C98   C145  1.471458 S    
C106  H50   1.083546 S    
C10   H10   1.079343 S    
C207  H141  1.111519 S    
N45   O34   1.301521 A    
C81   C121  1.403944 A    
C214  H158  1.110879 S    
C200  H125  1.114484 S    
C135  C139  1.389434 A    
C29   C51   1.385322 A    
C242  C243  1.525339 S    
N42   O27   1.301518 A    
C209  C210  1.527994 S    
C187  H94   1.110207 S    
C226  H186  1.110802 S    
O15   C227  1.410830 S    
N43   O30   1.301004 A    
C88   C96   1.389554 A    
C244  H226  1.110273 S    
C32   O24   1.381779 S    
C14   C43   1.385951 A    
C142  C150  1.403325 A    
C95   C103  1.400368 A    
N43   O29   1.300826 A    
C186  C187  1.525798 S    
C202  H129  1.110483 S    
C26   C50   1.389461 A    
C207  C208  1.526356 S    
C67   C72   1.414088 A    
C250  H240  1.110805 S    
C223  H179  1.110837 S    
C103  C111  1.401161 A    
C246  H231  1.110987 S    
C45   C173  1.454543 S    
C84   C124  1.402179 A    
C102  C149  1.476599 S    
N48   O39   1.301033 A    
C59   C76   1.405740 A    
C18   N18   1.343421 A    
C142  H70   1.082987 S    
C200  H124  1.113821 S    
C221  H173  1.112694 S    
N16   Ni7   1.852080 S    
C155  C174  1.402397 A    
C129  H57   1.082859 S    
O22   C248  1.417410 S    
C190  H101  1.110495 S    
C191  H104  1.116950 S    
C220  H170  1.110944 S    
N9    Ni2   1.841911 S    
C234  H204  1.110545 S    
C13   H13   1.077596 S    
N34   N36   1.328127 A    
C19   H19   1.080295 S    
N11   Ni4   1.852077 S    
C137  C145  1.402164 A    
C2    H2    1.072522 S    
C67   N47   1.439335 S    
C141  C149  1.407251 A    
N25   N28   1.376175 A    
C251  H243  1.112473 S    
C198  H119  1.110600 S    
C10   C39   1.389467 A    
C115  O3    1.387723 S    
O8    C206  1.420468 S    
C247  H235  1.109901 S    
C223  H178  1.110393 S    
C156  C173  1.402361 A    
C95   H47   1.082888 S    
C228  H190  1.111862 S    
C87   C127  1.399408 A    
C196  H114  1.110772 S    
C228  C229  1.525936 S    
C50   C74   1.464917 S    
C107  C115  1.402324 A    
C85   C93   1.393449 A    
C132  H60   1.083390 S    
C144  H72   1.083133 S    
C105  C113  1.401844 A    
C218  H166  1.115390 S    
N41   O26   1.301288 A    
C239  C240  1.525553 S    
C109  C117  1.403260 A    
C248  C249  1.526508 S    
C138  H66   1.083348 S    
C208  H142  1.110860 S    
C16   H16   1.081970 S    
C65   N45   1.441966 S    
O13   C221  1.413745 S    
C217  H164  1.110396 S    
N7    Ni7   1.839917 S    
C216  H161  1.111710 S    
C156  C164  1.394504 A    
C194  C195  1.528156 S    
C157  C165  1.389264 A    
C235  H206  1.110352 S    
C212  H153  1.109431 S    
C113  C121  1.420264 A    
C241  H219  1.111246 S    
C100  C147  1.465676 S    
C54   H26   1.082965 S    
N18   Ni4   1.840024 S    
C81   C89   1.392386 A    
C58   H30   1.072636 S    
O7    C203  1.419406 S    
