data_mof_unit_51326.cif
_audit_creation_date              2012-12-10T16:59:20-0500
_audit_creation_method            fapswitch 2.2
_symmetry_space_group_name_H-M    P1
_symmetry_Int_Tables_number       1
_space_group_crystal_system       triclinic
_cell_length_a                    7.811012
_cell_length_b                    8.921929
_cell_length_c                    26.622084
_cell_angle_alpha                 92.954932
_cell_angle_beta                  86.002247
_cell_angle_gamma                 92.639629
_cell_volume                      1846.6197231

loop_
_atom_site_label
_atom_site_type_symbol
_atom_type_description
_atom_site_fract_x
_atom_site_fract_y
_atom_site_fract_z
_atom_type_partial_charge
C1    C     C_R   0.543917 0.793995 0.499495 0.933915
C2    C     C_R   0.200997 0.722518 0.147061 -0.022804
C3    C     C_R   0.504740 0.526946 0.648686 -0.027132
C4    C     C_R   0.489618 0.525217 0.352477 -0.017158
C5    C     C_R   0.241167 0.736196 0.041975 0.044913
C6    C     C_R   0.137112 0.485783 0.980715 0.040182
C7    C     C_R   0.134159 0.472801 0.033528 0.044225
C8    C     C_R   0.290224 0.732073 0.990067 0.045085
C9    C     C_R   0.183040 0.600540 0.063800 0.076447
C10   C     C_R   0.230717 0.609314 0.959289 0.075727
C11   C     C_R   0.253021 0.868542 0.073218 -0.243131
C12   C     C_R   0.456028 0.206010 0.500498 0.936432
C13   C     C_R   0.056399 0.378496 0.948355 -0.230728
C14   C     C_R   0.222714 0.862347 0.125390 -0.156733
C15   C     C_R   0.075401 0.390206 0.896147 -0.143253
C16   C     C_R   0.501915 0.502180 0.594541 0.855306
C17   C     C_R   0.497586 0.499866 0.405486 0.853096
C18   C     C_R   0.406835 0.839967 0.968601 -0.228262
C19   C     C_R   0.092872 0.336016 0.057068 -0.229599
C20   C     C_2   0.563142 0.955508 0.506700 -0.020177
C21   C     C_2   0.436543 0.044495 0.493372 -0.020476
C22   C     C_R   0.446672 0.693978 0.835099 0.482402
C23   C     C_R   0.269724 0.607715 0.906871 -0.056000
C24   C     C_R   0.192021 0.445769 0.189470 0.508204
C25   C     C_R   0.224141 0.505971 0.823032 0.526645
C26   C     C_R   0.203811 0.706962 0.198829 0.534942
C27   C     C_R   0.471645 0.425118 0.731612 0.060056
C28   C     C_R   0.409980 0.690235 0.290122 0.061690
C29   C     C_R   0.511211 0.405796 0.679551 -0.267083
C30   C     C_R   0.460133 0.669421 0.338505 -0.241316
C31   C     C_R   0.467198 0.669521 0.669525 -0.232923
C32   C     C_R   0.492226 0.407738 0.316003 -0.242019
C33   C     C_R   0.428151 0.690403 0.720947 -0.096854
C34   C     C_R   0.181650 0.591694 0.116269 -0.059186
C35   C     C_R   0.433630 0.432484 0.268773 -0.147674
C36   C     C_R   0.424535 0.568886 0.752313 0.259354
C37   C     C_R   0.354600 0.564804 0.259701 0.189375
C38   C     C_3   0.017411 0.400163 0.438352 -0.472705
C39   C     C_3   0.982643 0.600003 0.561628 -0.474493
C40   C     C_R   0.465490 0.830802 0.267743 0.137358
C41   C     C_R   0.387430 0.961056 0.286015 -0.104133
C42   C     C_R   0.386587 0.079053 0.254594 -0.072410
C43   C     C_R   0.485056 0.077292 0.208272 -0.124964
C44   C     C_R   0.585072 0.955129 0.193748 -0.122344
C45   C     C_R   0.393936 0.710641 0.886455 -0.025368
C46   C     C_R   0.573440 0.830026 0.223142 -0.140725
C47   C     C_R   0.456032 0.291607 0.762656 0.120724
C48   C     C_R   0.337970 0.173907 0.750358 -0.083054
C49   C     C_R   0.285466 0.068147 0.785712 -0.124084
C50   C     C_R   0.353737 0.076640 0.832838 -0.062672
C51   C     C_R   0.481365 0.185896 0.843923 -0.119553
C52   C     C_R   0.533232 0.293064 0.808852 -0.153983
C53   C     C_3   0.716037 0.014149 0.535506 -0.886475
C54   C     C_3   0.282811 0.985901 0.464910 -0.888002
C55   C     C_R   0.157669 0.452607 0.138447 -0.021546
C56   C     C_R   0.465139 0.824281 0.918002 -0.171753
C57   C     C_R   0.109114 0.325270 0.108757 -0.162450
C58   C     C_R   0.187297 0.501233 0.875113 -0.014317
H1    H     H_    0.459279 0.763119 0.645504 0.134096
H2    H     H_    0.010477 0.306799 0.872345 0.183077
H3    H     H_    0.282076 0.977180 0.057674 0.143534
H4    H     H_    0.974478 0.287456 0.962816 0.142476
H5    H     H_    0.463566 0.930662 0.991272 0.144667
H6    H     H_    0.060143 0.233834 0.035643 0.141802
H7    H     H_    0.916218 0.327698 0.421013 0.179291
H8    H     H_    0.051329 0.493753 0.413081 0.202330
H9    H     H_    0.125640 0.327491 0.441948 0.201170
H10   H     H_    0.083893 0.672496 0.578937 0.177592
H11   H     H_    0.874409 0.672654 0.558013 0.202737
H12   H     H_    0.534437 0.298345 0.324312 0.145258
H13   H     H_    0.948756 0.506501 0.586931 0.199475
H14   H     H_    0.304257 0.961981 0.320377 0.130893
H15   H     H_    0.299293 0.165323 0.266196 0.200723
H16   H     H_    0.480245 0.166805 0.182605 0.135628
H17   H     H_    0.661413 0.953081 0.158208 0.142338
H18   H     H_    0.637864 0.729390 0.209501 0.134527
H19   H     H_    0.275913 0.171247 0.715165 0.131730
H20   H     H_    0.187087 0.982929 0.777283 0.134035
H21   H     H_    0.305031 0.999893 0.860912 0.132881
H22   H     H_    0.534937 0.191317 0.880418 0.125610
H23   H     H_    0.391891 0.799971 0.736063 0.153663
H24   H     H_    0.624729 0.382596 0.818961 0.152687
H25   H     H_    0.778640 0.922580 0.552960 0.223028
H26   H     H_    0.814759 0.069021 0.509682 0.272558
H27   H     H_    0.674175 0.093668 0.566986 0.239700
H28   H     H_    0.219856 0.077394 0.447526 0.222312
H29   H     H_    0.323641 0.906215 0.433420 0.237267
H30   H     H_    0.184620 0.931256 0.490953 0.272813
H31   H     H_    0.454758 0.353209 0.238168 0.157135
H32   H     H_    0.562362 0.904079 0.903366 0.180898
H33   H     H_    0.087135 0.216751 0.125073 0.180044
H34   H     H_    0.485134 0.765111 0.364139 0.123008
H35   H     H_    0.536266 0.294965 0.662751 0.128619
H36   H     H_    0.230696 0.965115 0.148650 0.190314
N1    N     N_R   0.363040 0.590875 0.804403 -0.354710
N2    N     N_R   0.249656 0.573165 0.215984 -0.331097
N3    N     N_2   0.950320 0.457960 0.486880 -0.009014
N4    N     N_2   0.049680 0.542040 0.513120 -0.008606
O1    O     O_R   0.389250 0.738570 0.503220 -0.619568
O2    O     O_2   0.161835 0.315492 0.212257 -0.604279
O3    O     O_2   0.146835 0.817492 0.230914 -0.557029
O4    O     O_2   0.124798 0.424293 0.791378 -0.567628
O5    O     O_R   0.610750 0.261430 0.496780 -0.618168
O6    O     O_R   0.678390 0.711630 0.494810 -0.624769
O7    O     O_R   0.321610 0.288370 0.505190 -0.626725
O8    O     O_R   0.355440 0.513440 0.575450 -0.607829
O9    O     O_R   0.644560 0.486560 0.424550 -0.609193
O10   O     O_R   0.644590 0.486500 0.567040 -0.633558
O11   O     O_R   0.355410 0.513500 0.432960 -0.629717
O12   O     O_2   0.581246 0.778641 0.816211 -0.563735
Zn1   Zn    Zn3+2 0.306940 0.517990 0.505620 0.943012
Zn2   Zn    Zn3+2 0.693060 0.482010 0.494380 0.944163

loop_
_geom_bond_atom_site_label_1
_geom_bond_atom_site_label_2
_ccdc_geom_bond_type
C23   C58   A    
C54   H30   S    
C41   C42   A    
C23   C45   A    
C27   C29   A    
C39   H10   S    
C12   O7    A    
C50   H21   S    
C1    O1    A    
C46   H18   S    
N3    N4    D    
C19   C57   A    
C24   C55   A    
C40   C46   A    
C53   H26   S    
C35   C37   A    
C5    C11   A    
C24   N2    A    
C26   O3    S    
C54   H29   S    
C11   C14   A    
C25   O4    S    
C28   C40   S    
C33   C36   A    
C49   H20   S    
O9    Zn2   S    
C31   H1    S    
C3    C29   A    
C51   H22   S    
O11   Zn1   S    
C13   H4    S    
C38   H8    S    
C45   C56   A    
C22   O12   S    
C31   C33   A    
C16   O8    A    
C2    C34   A    
C43   H16   S    
C56   H32   S    
O7    Zn1   S    
C34   C55   A    
C38   N3    S    
C2    C14   A    
C44   C46   A    
O8    Zn1   S    
C26   N2    A    
C51   C52   A    
C32   C35   A    
C12   O5    A    
C30   H34   S    
O6    Zn2   S    
N3    Zn2   S    
C39   N4    S    
C32   H12   S    
C12   C21   S    
C8    C18   A    
O10   Zn2   S    
C37   N2    S    
O5    Zn2   S    
C48   H19   S    
C44   H17   S    
C52   H24   S    
C43   C44   A    
C5    C9    A    
C17   O9    A    
C47   C48   A    
C38   H7    S    
C19   H6    S    
O1    Zn1   S    
C50   C51   A    
C39   H11   S    
C2    C26   A    
C38   H9    S    
C3    C31   A    
C1    O6    A    
C4    C32   A    
C41   H14   S    
C4    C17   S    
C35   H31   S    
C40   C41   A    
C25   N1    A    
C7    C19   A    
C55   C57   A    
C9    C34   A    
C10   C23   A    
C15   C58   A    
C25   C58   A    
C54   H28   S    
C27   C47   S    
C7    C9    A    
C48   C49   A    
C1    C20   S    
N4    Zn1   S    
C57   H33   S    
C24   O2    S    
C20   C53   S    
C11   H3    S    
C17   O11   A    
C6    C10   A    
C5    C8    A    
C6    C7    A    
C18   C56   A    
C27   C36   A    
C53   H25   S    
C13   C15   A    
C6    C13   A    
C29   H35   S    
C36   N1    S    
C21   C54   S    
C28   C37   A    
C28   C30   A    
C42   H15   S    
C18   H5    S    
C16   O10   A    
C22   N1    A    
C22   C45   A    
C20   C21   D    
C8    C10   A    
C49   C50   A    
C42   C43   A    
C47   C52   A    
C39   H13   S    
C53   H27   S    
C33   H23   S    
C14   H36   S    
C15   H2    S    
C4    C30   A    
C3    C16   S    
