data_mof_unit_51382.cif
_audit_creation_date              2012-12-11T14:33:12-0500
_audit_creation_method            fapswitch 2.2
_symmetry_space_group_name_H-M    P1
_symmetry_Int_Tables_number       1
_space_group_crystal_system       triclinic
_cell_length_a                    6.954644
_cell_length_b                    13.775342
_cell_length_c                    18.068149
_cell_angle_alpha                 112.463704
_cell_angle_beta                  95.12191
_cell_angle_gamma                 90.454007
_cell_volume                      1591.58255576

loop_
_atom_site_label
_atom_site_type_symbol
_atom_type_description
_atom_site_fract_x
_atom_site_fract_y
_atom_site_fract_z
_atom_type_partial_charge
O1    O     O_R   0.484560 0.544530 0.414330 -0.539232
O2    O     O_R   0.197040 0.638810 0.585080 -0.538896
O3    O     O_R   0.026800 0.455470 0.585670 -0.542715
C1    C     C_R   0.372472 0.682905 0.600061 0.688432
O4    O     O_R   0.155000 0.556150 0.414940 -0.545180
O5    O     O_R   0.984450 0.372220 0.414320 -0.544882
C2    C     C_R   0.318144 0.564874 0.386630 0.743065
O6    O     O_R   0.526900 0.627780 0.585680 -0.537073
O7    O     O_3   0.339170 0.439750 0.499990 -0.375648
V1    V     V_3+5 0.064350 0.511180 0.500000 1.365863
O8    O     O_R   0.654880 0.361190 0.414920 -0.539566
C3    C     C_R   0.816840 0.324477 0.386529 0.696630
O9    O     O_R   0.696930 0.443850 0.585060 -0.538683
C4    C     C_R   0.872593 0.432230 0.611493 0.692837
V2    V     V_3+5 0.564340 0.488820 0.500000 1.373176
O10   O     O_3   0.839390 0.560250 0.500010 -0.374847
C5    C     C_R   0.044058 0.861749 0.823419 -0.034725
C6    C     C_R   0.904371 0.395652 0.678373 -0.050993
C7    C     C_R   0.928522 0.820954 0.684076 -0.128731
C8    C     C_R   0.979396 0.788434 0.746916 -0.143016
C9    C     C_R   0.053009 0.969507 0.837040 -0.195287
C10   C     C_R   0.998528 0.005140 0.773857 0.087887
C11   C     C_R   0.938355 0.927824 0.696567 0.123477
C12   C     C_R   0.999763 0.114055 0.784429 0.054334
C13   C     C_R   0.945850 0.142957 0.717090 0.066314
C14   C     C_R   0.890947 0.062001 0.641610 -0.179240
C15   C     C_R   0.886646 0.957086 0.631920 -0.212102
C16   C     C_R   0.051262 0.195066 0.860185 -0.173611
C17   C     C_R   0.056333 0.299921 0.869839 -0.236718
C18   C     C_R   0.009705 0.329078 0.804871 0.119780
C19   C     C_R   0.949127 0.251889 0.727575 0.100388
C20   C     C_R   0.021782 0.435923 0.817406 -0.133780
C21   C     C_R   0.970487 0.468697 0.754775 -0.140780
C22   C     C_R   0.895315 0.287774 0.664478 -0.213920
H1    H     H_    0.841349 0.897863 0.572810 0.116329
H2    H     H_    0.848919 0.234520 0.603908 0.092419
H3    H     H_    0.984175 0.551517 0.765923 0.091049
H4    H     H_    0.097668 0.359283 0.929299 0.118907
H5    H     H_    0.879012 0.762169 0.625389 0.138233
H6    H     H_    0.966276 0.705634 0.735879 0.091828
H7    H     H_    0.099872 0.022867 0.897522 0.093376
H8    H     H_    0.849063 0.077013 0.588317 0.122329
H9    H     H_    0.089462 0.180236 0.913821 0.135859
H10   H     H_    0.071540 0.494565 0.876131 0.139984
H11   H     H_    0.111841 0.222365 0.309140 0.118280
H12   H     H_    0.835552 0.032720 0.193051 0.194808
C23   C     C_2   0.135281 0.037100 0.183719 -0.383944
C24   C     C_2   0.972486 0.076882 0.216805 -0.100370
C25   C     C_2   0.810172 0.220650 0.318277 0.019752
C26   C     C_2   0.973492 0.179557 0.285380 -0.115232
H13   H     H_    0.272572 0.080553 0.207185 0.155199
C27   C     C_R   0.406210 0.790378 0.664352 -0.079250
C28   C     C_R   0.538373 0.479152 0.820183 -0.057478
C29   C     C_R   0.526959 0.889069 0.803014 0.187882
C30   C     C_R   0.472360 0.794161 0.739670 -0.150379
C31   C     C_R   0.396380 0.886198 0.651672 -0.220756
C32   C     C_R   0.449685 0.986392 0.716487 0.062351
C33   C     C_R   0.514126 0.984719 0.792398 0.060083
C34   C     C_R   0.443253 0.087728 0.709611 0.044002
C35   C     C_R   0.495246 0.184620 0.779125 0.015526
C36   C     C_R   0.540679 0.175860 0.854828 0.186921
C37   C     C_R   0.560212 0.078422 0.858667 -0.179424
C38   C     C_R   0.382939 0.095153 0.635620 -0.162138
C39   C     C_R   0.368824 0.191670 0.628503 -0.219688
C40   C     C_R   0.421377 0.285428 0.693801 0.119089
C41   C     C_R   0.493409 0.284422 0.769419 0.102104
C42   C     C_R   0.402933 0.380775 0.683189 -0.119521
C43   C     C_R   0.454350 0.476523 0.746369 -0.147188
C44   C     C_R   0.564025 0.383542 0.830179 -0.214618
H14   H     H_    0.605935 0.078240 0.917426 0.163072
H15   H     H_    0.645475 0.390817 0.885071 0.116051
H16   H     H_    0.429589 0.548715 0.737268 0.095315
H17   H     H_    0.316460 0.192855 0.570517 0.115673
H18   H     H_    0.485418 0.721201 0.748837 0.080696
H19   H     H_    0.348784 0.879925 0.591559 0.097229
H20   H     H_    0.341392 0.026982 0.581776 0.122044
H21   H     H_    0.344962 0.381204 0.625786 0.149021
H22   H     H_    0.333853 0.666968 0.195122 0.153319
H23   H     H_    0.615236 0.590912 0.307360 0.153916
C45   C     C_2   0.315210 0.601967 0.319187 -0.344814
C46   C     C_2   0.476883 0.610832 0.285176 -0.127412
H24   H     H_    0.771899 0.636427 0.205999 0.126306
C47   C     C_2   0.633885 0.656064 0.183311 -0.345528
C48   C     C_2   0.472244 0.647088 0.217304 -0.125804
H25   H     H_    0.177252 0.621645 0.296485 0.126905
O11   O     O_R   0.421600 0.630430 0.917010 -0.541616
O12   O     O_R   0.793840 0.702190 0.087630 -0.542938
O13   O     O_R   0.964010 0.886170 0.088190 -0.534923
C49   C     C_R   0.630768 0.693258 0.115913 0.765178
O14   O     O_R   0.751460 0.619510 0.917500 -0.543632
O15   O     O_R   0.921330 0.802900 0.916840 -0.527838
C50   C     C_R   0.574517 0.582300 0.889171 0.672317
O16   O     O_R   0.464290 0.713700 0.088350 -0.536216
O17   O     O_3   0.609200 0.818520 0.002630 -0.376985
V3    V     V_3+5 0.884140 0.747190 0.002530 1.383309
O18   O     O_R   0.251150 0.814630 0.917340 -0.562070
C51   C     C_R   0.075495 0.825615 0.890607 0.702646
O19   O     O_R   0.293530 0.897310 0.087470 -0.537362
C52   C     C_R   0.131358 0.933826 0.115856 0.776889
V4    V     V_3+5 0.384070 0.769710 0.002370 1.366402
O20   O     O_3   0.109180 0.698190 0.002460 -0.375894
N1    N     N_3   0.627274 0.164611 0.286388 -0.684085
H26   H     H_    0.536833 0.213098 0.267901 0.227403
H27   H     H_    0.566782 0.151816 0.333004 0.225794
N2    N     N_3   0.601388 0.887597 0.878607 -0.634167
H28   H     H_    0.592393 0.809973 0.874001 0.267742
H29   H     H_    0.510652 0.929706 0.921670 0.232086
N3    N     N_3   0.547589 0.261102 0.931747 -0.700068
H30   H     H_    0.687794 0.294415 0.950607 0.233703
H31   H     H_    0.440103 0.314227 0.933858 0.239459

loop_
_geom_bond_atom_site_label_1
_geom_bond_atom_site_label_2
_ccdc_geom_bond_type
C33   C37   A    
C13   C19   A    
C4    C6    S    
O2    C1    A    
C7    C8    A    
C42   H21   S    
C1    O6    A    
C28   C44   A    
C3    C25   S    
O14   V3    S    
C31   C32   A    
N2    H29   S    
C14   C15   A    
C17   C18   A    
C1    C27   S    
C16   C17   A    
O5    C3    A    
C18   C19   A    
C8    H6    S    
C32   C34   A    
C41   C44   A    
C38   H20   S    
V2    O10   S    
O19   C52   A    
C5    C8    A    
C23   C52   S    
N3    H30   S    
C37   H14   S    
C44   H15   S    
C28   C43   A    
C36   N3    S    
C30   H18   S    
O8    V2    S    
C23   C24   D    
C40   C42   A    
O12   V3    S    
C17   H4    S    
V3    O20   S    
C39   H17   S    
O1    V2    S    
C11   C15   A    
O11   V4    S    
O7    V1    S    
C36   C37   A    
C27   C30   A    
C24   C26   S    
O13   V3    S    
C35   C41   A    
C34   C35   A    
C31   H19   S    
O9    C4    A    
N1    H26   S    
C47   C49   S    
H12   C24   S    
C42   C43   A    
C12   C13   A    
C25   N1    S    
H23   C46   S    
C23   H13   S    
C15   H1    S    
C13   C14   A    
C21   H3    S    
C35   C36   A    
C7    C11   A    
C45   H25   S    
O14   C50   A    
C47   C48   D    
O17   V4    S    
C43   H16   S    
O18   C51   A    
C28   C50   S    
C20   H10   S    
C19   C22   A    
O15   C51   A    
N1    H27   S    
C6    C22   A    
O16   V4    S    
O3    C4    A    
C7    H5    S    
C9    H7    S    
H24   C47   S    
O6    V2    S    
O19   V4    S    
O12   C49   A    
C10   C12   A    
O2    V1    S    
C46   C48   S    
C14   H8    S    
O4    C2    A    
C29   C33   A    
C29   C30   A    
C29   N2    S    
O1    C2    A    
C12   C16   A    
C45   C46   D    
O5    V1    S    
O8    C3    A    
N2    H28   S    
C16   H9    S    
C34   C38   A    
C20   C21   A    
O9    V2    S    
O7    V2    S    
O4    V1    S    
O3    V1    S    
O11   C50   A    
C39   C40   A    
C18   C20   A    
C32   C33   A    
H11   C26   S    
O18   V4    S    
V4    O20   S    
N3    H31   S    
C22   H2    S    
C40   C41   A    
C49   O16   A    
O17   V3    S    
C6    C21   A    
C5    C9    A    
O13   C52   A    
O15   V3    S    
C38   C39   A    
H22   C48   S    
C25   C26   D    
C10   C11   A    
V1    O10   S    
C9    C10   A    
C5    C51   S    
C27   C31   A    
C2    C45   S    
