data_mof_unit_62378.cif
_audit_creation_date              2012-12-10T16:58:39-0500
_audit_creation_method            fapswitch 2.2
_symmetry_space_group_name_H-M    P1
_symmetry_Int_Tables_number       1
_space_group_crystal_system       triclinic
_cell_length_a                    13.146071
_cell_length_b                    13.150132
_cell_length_c                    15.635889
_cell_angle_alpha                 108.44038
_cell_angle_beta                  73.848271
_cell_angle_gamma                 91.172033
_cell_volume                      2456.23620731

loop_
_atom_site_label
_atom_site_type_symbol
_atom_type_description
_atom_site_fract_x
_atom_site_fract_y
_atom_site_fract_z
_atom_type_partial_charge
C1    C     C_R   0.218217 0.542298 0.535847 0.512404
C2    C     C_R   0.497532 0.483685 0.119732 0.048208
C3    C     C_R   0.655805 0.366022 0.084569 0.072036
C4    C     C_R   0.780809 0.458012 0.464287 0.509004
C5    C     C_R   0.428809 0.572795 0.854122 0.022306
C6    C     C_2   0.894373 0.443707 0.449420 -0.080118
C7    C     C_2   0.938246 0.498506 0.516018 -0.151865
C8    C     C_2   0.102875 0.556318 0.554358 -0.106514
C9    C     C_2   0.053787 0.488996 0.497445 -0.151621
C10   C     C_2   0.541377 0.895098 0.541195 0.128387
C11   C     C_2   0.503414 0.940198 0.489304 -0.101092
C12   C     C_R   0.283397 0.601565 0.995835 -0.152279
C13   C     C_2   0.460977 0.103774 0.458752 -0.118356
C14   C     C_2   0.510921 0.054975 0.500556 -0.137037
C15   C     C_R   0.470471 0.218736 0.472116 0.514712
C16   C     C_R   0.529668 0.781209 0.527875 0.513964
C17   C     C_R   0.545032 0.442946 0.248025 0.545663
C18   C     C_R   0.457564 0.557086 0.752552 0.490273
C19   C     C_R   0.686843 0.369393 0.992995 -0.133443
C20   C     C_R   0.563028 0.425493 0.148357 0.089549
C21   C     C_R   0.324655 0.612616 0.907753 -0.125493
C22   C     C_R   0.345801 0.552870 0.032609 -0.089518
C23   C     C_R   0.454931 0.522950 0.985843 0.058050
C24   C     C_R   0.496345 0.532375 0.894515 0.018930
C25   C     C_R   0.522667 0.477306 0.023726 0.062228
C26   C     C_R   0.623576 0.427559 0.963499 0.002382
C27   C     C_R   0.663597 0.441084 0.875879 -0.135609
C28   C     C_R   0.603495 0.498656 0.844660 -0.115345
H1    H     H_    0.889092 0.552363 0.582753 0.128060
H2    H     H_    0.304706 0.534577 0.095227 0.156327
H3    H     H_    0.200581 0.625518 0.033701 0.122124
H4    H     H_    0.642138 0.514491 0.780006 0.142793
H5    H     H_    0.099596 0.425795 0.435188 0.161329
H6    H     H_    0.797044 0.338491 0.104045 0.233727
H7    H     H_    0.731226 0.227539 0.071905 0.229631
H8    H     H_    0.618840 0.906468 0.640006 0.227908
H9    H     H_    0.527727 0.007535 0.667206 0.229197
H10   H     H_    0.362746 0.521393 0.229332 0.236063
H11   H     H_    0.451686 0.617280 0.235181 0.237576
H12   H     H_    0.057674 0.620898 0.615633 0.107754
H13   H     H_    0.943381 0.394813 0.380538 0.096153
H14   H     H_    0.557955 0.100896 0.544623 0.196417
H15   H     H_    0.464918 0.891456 0.438567 0.101233
H16   H     H_    0.413415 0.058991 0.414651 0.111898
H17   H     H_    0.743488 0.410082 0.832456 0.115046
H18   H     H_    0.762121 0.328778 0.945649 0.113304
H19   H     H_    0.271902 0.644262 0.878428 0.139196
N1    N     N_3   0.722168 0.307899 0.114813 -0.626133
N2    N     N_3   0.588508 0.957531 0.612074 -0.635139
N3    N     N_3   0.416520 0.561070 0.190158 -0.661931
O1    O     O_3   0.500000 0.500000 0.500000 -0.441536
O2    O     O_R   0.468210 0.402800 0.293550 -0.546604
O3    O     O_R   0.410220 0.615430 0.721590 -0.547814
O4    O     O_R   0.602670 0.506150 0.290200 -0.531670
O5    O     O_R   0.518910 0.475630 0.694660 -0.545867
O6    O     O_R   0.526920 0.270960 0.524520 -0.537721
O7    O     O_R   0.454490 0.752910 0.584610 -0.545463
O8    O     O_R   0.270990 0.462040 0.468400 -0.542435
O9    O     O_R   0.747590 0.514090 0.422470 -0.531204
O10   O     O_R   0.265290 0.607490 0.589320 -0.539377
O11   O     O_R   0.716130 0.416380 0.519810 -0.535547
O12   O     O_R   0.423930 0.265320 0.430520 -0.533381
O13   O     O_R   0.594650 0.710810 0.460350 -0.536598
Zn1   Zn    Zn3+2 0.564370 0.417180 0.558730 0.938707
Zn2   Zn    Zn3+2 0.417220 0.409120 0.424430 0.941717
Zn3   Zn    Zn3+2 0.609330 0.556780 0.419650 0.950258
Zn4   Zn    Zn3+2 0.409080 0.616930 0.597190 0.932198

loop_
_geom_bond_atom_site_label_1
_geom_bond_atom_site_label_2
_ccdc_geom_bond_type
O11   Zn1   S    
C13   H16   S    
C23   C24   A    
O6    Zn1   S    
C3    C19   A    
C6    C7    D    
H10   N3    S    
C16   O13   A    
H9    N2    S    
C1    C8    S    
C2    N3    S    
O8    Zn2   S    
C18   O3    A    
C14   H14   S    
O5    Zn1   S    
C27   H17   S    
C23   C25   A    
O1    Zn1   S    
O13   Zn3   S    
C3    C20   A    
O9    Zn3   S    
O1    Zn4   S    
C13   C14   D    
C15   O6    A    
C9    H5    S    
C17   C20   S    
C17   O4    A    
C26   C27   A    
C8    H12   S    
C5    C24   A    
C18   O5    A    
O7    Zn4   S    
C7    H1    S    
H7    N1    S    
C12   C21   A    
C17   O2    A    
C15   O12   A    
C2    C25   A    
C16   O7    A    
C13   C15   S    
C12   H3    S    
O3    Zn4   S    
C11   C14   S    
C11   H15   S    
C19   H18   S    
H6    N1    S    
C10   C11   D    
O2    Zn2   S    
C2    C20   A    
C12   C22   A    
C3    N1    S    
C28   H4    S    
H11   N3    S    
C5    C21   A    
C4    O9    A    
C4    C6    S    
O1    Zn2   S    
C1    O10   A    
C27   C28   A    
C7    C9    S    
C19   C26   A    
C22   C23   A    
C10   C16   S    
C5    C18   S    
C22   H2    S    
O12   Zn2   S    
C25   C26   A    
C1    O8    A    
C10   N2    S    
C4    O11   A    
C6    H13   S    
O4    Zn3   S    
H8    N2    S    
C24   C28   A    
O10   Zn4   S    
C8    C9    D    
C21   H19   S    
O1    Zn3   S    
