data_mof_unit_21168.cif
_audit_creation_date              2013-03-05T15:46:12-0500
_audit_creation_method            fapswitch 2.2
_symmetry_space_group_name_H-M    P1
_symmetry_Int_Tables_number       1
_space_group_crystal_system       triclinic
_cell_length_a                    18.311962
_cell_length_b                    18.270783
_cell_length_c                    34.445141
_cell_angle_alpha                 89.99986
_cell_angle_beta                  90.000032
_cell_angle_gamma                 89.648415
_cell_volume                      11524.2276373

loop_
_atom_site_label
_atom_site_type_symbol
_atom_site_description
_atom_site_fract_x
_atom_site_fract_y
_atom_site_fract_z
_atom_type_partial_charge
Zn1   Zn    Zn3+2 0.000000 0.586740 0.032740 1.030563
Zn2   Zn    Zn3+2 0.413260 1.000000 0.032740 0.957163
Zn3   Zn    Zn3+2 0.000000 0.413260 0.032740 1.030568
Zn4   Zn    Zn3+2 0.586740 1.000000 0.032740 0.957156
Zn5   Zn    Zn3+2 0.500000 0.086740 0.532740 1.019494
Zn6   Zn    Zn3+2 0.913260 0.500000 0.532740 0.957568
Zn7   Zn    Zn3+2 0.500000 0.913260 0.532740 1.019492
Zn8   Zn    Zn3+2 0.086740 0.500000 0.532740 0.957568
Zn9   Zn    Zn3+2 0.913250 0.500000 0.967240 0.984188
Zn10  Zn    Zn3+2 0.500000 0.913250 0.967240 1.021411
Zn11  Zn    Zn3+2 0.086750 0.500000 0.967240 0.984196
Zn12  Zn    Zn3+2 0.500000 0.086750 0.967240 1.021388
Zn13  Zn    Zn3+2 0.413250 0.000000 0.467240 0.988559
Zn14  Zn    Zn3+2 0.000000 0.413250 0.467240 1.038524
Zn15  Zn    Zn3+2 0.586750 0.000000 0.467240 0.988560
Zn16  Zn    Zn3+2 0.000000 0.586750 0.467240 1.038523
O1    O     O_3   1.000000 0.500000 0.999990 -0.521030
O2    O     O_3   0.500000 0.000000 0.999990 -0.508749
O3    O     O_3   0.500000 0.000000 0.499990 -0.526145
O4    O     O_3   0.000000 0.500000 0.499990 -0.516927
O5    O     O_R   0.060750 0.500000 0.912560 -0.627426
O6    O     O_R   0.500000 0.060750 0.912560 -0.607946
O7    O     O_R   0.939250 0.500000 0.912560 -0.627439
O8    O     O_R   0.500000 0.939250 0.912560 -0.607904
O9    O     O_R   0.560750 1.000000 0.412560 -0.606269
O10   O     O_R   0.000000 0.560750 0.412560 -0.594841
O11   O     O_R   0.439250 1.000000 0.412560 -0.606268
O12   O     O_R   0.000000 0.439250 0.412560 -0.594840
O13   O     O_R   0.000000 0.560690 0.087420 -0.611878
O14   O     O_R   0.439310 0.000000 0.087420 -0.662395
O15   O     O_R   0.000000 0.439310 0.087420 -0.611879
O16   O     O_R   0.560690 0.000000 0.087420 -0.662386
O17   O     O_R   0.500000 0.060690 0.587420 -0.613008
O18   O     O_R   0.939310 0.500000 0.587420 -0.656645
O19   O     O_R   0.500000 0.939310 0.587420 -0.613009
O20   O     O_R   0.060690 0.500000 0.587420 -0.656645
O21   O     O_R   0.853830 0.585440 0.977070 -0.647662
O22   O     O_R   0.414560 0.853830 0.977070 -0.662188
O23   O     O_R   0.146170 0.414560 0.977070 -0.647667
O24   O     O_R   0.585440 0.146170 0.977070 -0.662191
O25   O     O_R   0.146170 0.585440 0.977070 -0.680244
O26   O     O_R   0.585440 0.853830 0.977070 -0.611223
O27   O     O_R   0.853830 0.414560 0.977070 -0.680253
O28   O     O_R   0.414560 0.146170 0.977070 -0.611221
O29   O     O_R   0.353830 0.085440 0.477070 -0.632490
O30   O     O_R   0.914560 0.353830 0.477070 -0.654165
O31   O     O_R   0.646170 0.914560 0.477070 -0.632490
O32   O     O_R   0.085440 0.646170 0.477070 -0.654166
O33   O     O_R   0.646170 0.085440 0.477070 -0.671562
O34   O     O_R   0.085440 0.353830 0.477070 -0.606937
O35   O     O_R   0.353830 0.914560 0.477070 -0.671561
O36   O     O_R   0.914560 0.646170 0.477070 -0.606937
O37   O     O_R   0.085460 0.353830 0.022910 -0.603444
O38   O     O_R   0.646170 0.085460 0.022910 -0.621180
O39   O     O_R   0.914540 0.646170 0.022910 -0.603449
O40   O     O_R   0.353830 0.914540 0.022910 -0.621196
O41   O     O_R   0.914540 0.353830 0.022910 -0.588964
O42   O     O_R   0.353830 0.085460 0.022910 -0.660041
O43   O     O_R   0.085460 0.646170 0.022910 -0.588976
O44   O     O_R   0.646170 0.914540 0.022910 -0.660045
O45   O     O_R   0.585460 0.853830 0.522910 -0.606953
O46   O     O_R   0.146170 0.585460 0.522910 -0.619065
O47   O     O_R   0.414540 0.146170 0.522910 -0.606953
O48   O     O_R   0.853830 0.414540 0.522910 -0.619065
O49   O     O_R   0.414540 0.853830 0.522910 -0.590423
O50   O     O_R   0.853830 0.585460 0.522910 -0.660839
O51   O     O_R   0.585460 0.146170 0.522910 -0.590422
O52   O     O_R   0.146170 0.414540 0.522910 -0.660839
C1    C     C_R   1.000000 0.500000 0.894315 0.986769
C2    C     C_R   0.500002 1.000000 0.894188 0.913652
C3    C     C_R   0.500000 1.000000 0.394231 0.883729
C4    C     C_R   0.000000 0.500000 0.394151 0.909748
C5    C     C_R   1.000000 0.500000 0.105592 0.874488
C6    C     C_R   0.500000 1.000000 0.105643 0.895188
C7    C     C_R   0.500000 1.000000 0.605611 0.879645
C8    C     C_R   1.000000 0.500000 0.605652 0.899241
C9    C     C_R   0.859929 0.639722 0.000171 0.889660
C10   C     C_R   0.359642 0.860347 0.999772 0.882506
C11   C     C_R   0.140072 0.360278 0.000171 0.889653
C12   C     C_R   0.640359 0.139652 0.999771 0.882494
C13   C     C_R   0.139186 0.640799 0.999305 0.862674
C14   C     C_R   0.639519 0.859673 0.000340 0.901186
C15   C     C_R   0.860814 0.359200 0.999304 0.862679
C16   C     C_R   0.360481 0.140327 0.000340 0.901201
C17   C     C_R   0.359978 0.139725 0.500154 0.874160
C18   C     C_R   0.859319 0.360688 0.499480 0.876514
C19   C     C_R   0.640022 0.860275 0.500154 0.874163
C20   C     C_R   0.140681 0.639312 0.499480 0.876515
C21   C     C_R   0.638965 0.141014 0.499072 0.851798
C22   C     C_R   0.139510 0.359629 0.500332 0.895046
C23   C     C_R   0.361035 0.858985 0.499072 0.851799
C24   C     C_R   0.860490 0.640371 0.500332 0.895047
C25   C     C_R   0.183705 0.710739 0.926579 -0.323309
C26   C     C_R   0.395759 0.288892 0.024047 -0.367712
C27   C     C_R   0.816258 0.289298 0.926574 -0.323343
C28   C     C_R   0.604243 0.711108 0.024049 -0.367723
C29   C     C_R   0.712249 0.603124 0.022767 -0.353259
C30   C     C_R   0.711964 0.179417 0.927400 -0.332613
C31   C     C_R   0.287754 0.396878 0.022763 -0.353260
C32   C     C_R   0.288007 0.820615 0.927406 -0.332354
C33   C     C_R   0.690617 0.203786 0.425291 -0.343161
C34   C     C_R   0.895881 0.789404 0.523465 -0.359809
C35   C     C_R   0.309383 0.796214 0.425291 -0.343160
C36   C     C_R   0.104119 0.210596 0.523466 -0.359808
C37   C     C_R   0.212603 0.103092 0.522843 -0.344264
C38   C     C_R   0.204481 0.686914 0.426144 -0.307227
C39   C     C_R   0.787397 0.896907 0.522843 -0.344264
C40   C     C_R   0.795519 0.313087 0.426144 -0.307226
H1    H     H_    0.139042 0.672525 0.925226 0.196098
H2    H     H_    0.438283 0.247731 0.024849 0.157396
H3    H     H_    0.860925 0.327506 0.925221 0.196108
H4    H     H_    0.561718 0.752268 0.024850 0.157394
H5    H     H_    0.753218 0.560317 0.024073 0.159250
H6    H     H_    0.676998 0.132202 0.927687 0.174472
H7    H     H_    0.246787 0.439685 0.024068 0.159254
H8    H     H_    0.322980 0.867828 0.927685 0.174571
H9    H     H_    0.648778 0.162868 0.423905 0.185454
H10   H     H_    0.938684 0.748521 0.524050 0.158452
H11   H     H_    0.351222 0.837133 0.423905 0.185454
H12   H     H_    0.061316 0.251479 0.524051 0.158451
H13   H     H_    0.253872 0.060639 0.524607 0.158242
H14   H     H_    0.166126 0.642432 0.424793 0.189286
H15   H     H_    0.746128 0.939361 0.524607 0.158244
H16   H     H_    0.833874 0.357569 0.424793 0.189286
C41   C     C_R   0.207554 0.741242 0.891421 0.510451
C42   C     C_R   0.412927 0.360846 0.035621 0.508173
C43   C     C_R   0.792382 0.258826 0.891414 0.510507
C44   C     C_R   0.587077 0.639153 0.035625 0.508165
C45   C     C_R   0.640620 0.584497 0.032721 0.500384
C46   C     C_R   0.740738 0.202792 0.891531 0.499090
C47   C     C_R   0.359385 0.415503 0.032716 0.500382
C48   C     C_R   0.259206 0.797267 0.891543 0.498892
C49   C     C_R   0.717592 0.231492 0.389893 0.480911
C50   C     C_R   0.912997 0.861503 0.534768 0.510895
C51   C     C_R   0.282408 0.768509 0.389893 0.480912
C52   C     C_R   0.087003 0.138497 0.534769 0.510893
C53   C     C_R   0.140866 0.084073 0.532365 0.495305
C54   C     C_R   0.230325 0.713199 0.390682 0.520240
C55   C     C_R   0.859134 0.915926 0.532365 0.495305
C56   C     C_R   0.769675 0.286802 0.390682 0.520241
C57   C     C_R   0.269596 0.785443 0.962661 -0.026931
C58   C     C_R   0.269567 0.324758 0.011903 -0.023480
C59   C     C_R   0.730391 0.214572 0.962657 -0.026802
C60   C     C_R   0.730435 0.675243 0.011904 -0.023482
C61   C     C_R   0.675628 0.729750 0.012067 -0.030597
C62   C     C_R   0.784156 0.269615 0.962377 -0.041764
C63   C     C_R   0.324373 0.270249 0.012066 -0.030601
C64   C     C_R   0.215828 0.730401 0.962381 -0.041773
C65   C     C_R   0.772353 0.282757 0.461860 -0.040208
C66   C     C_R   0.769421 0.824811 0.511828 -0.018640
C67   C     C_R   0.227647 0.717243 0.461860 -0.040209
C68   C     C_R   0.230579 0.175189 0.511828 -0.018638
C69   C     C_R   0.175647 0.229570 0.511843 -0.030768
C70   C     C_R   0.281602 0.772229 0.461541 -0.024442
C71   C     C_R   0.824353 0.770430 0.511842 -0.030768
C72   C     C_R   0.718398 0.227771 0.461541 -0.024441
C73   C     C_R   0.194080 0.698190 0.998034 -0.208860
C74   C     C_R   0.305619 0.197752 0.001776 -0.198609
C75   C     C_R   0.805921 0.301808 0.998032 -0.208892
C76   C     C_R   0.694381 0.802248 0.001776 -0.198601
C77   C     C_R   0.802430 0.694422 0.001427 -0.195813
C78   C     C_R   0.698716 0.193484 0.998439 -0.212607
C79   C     C_R   0.197570 0.305578 0.001428 -0.195817
C80   C     C_R   0.301287 0.806513 0.998441 -0.212585
C81   C     C_R   0.693725 0.198544 0.497480 -0.212424
C82   C     C_R   0.805611 0.697841 0.501636 -0.196532
C83   C     C_R   0.306275 0.801456 0.497480 -0.212424
C84   C     C_R   0.194389 0.302159 0.501636 -0.196532
C85   C     C_R   0.302535 0.194414 0.501338 -0.188549
C86   C     C_R   0.199194 0.692952 0.497878 -0.216196
C87   C     C_R   0.697465 0.805586 0.501338 -0.188549
C88   C     C_R   0.800806 0.307048 0.497878 -0.216196
C89   C     C_R   0.225642 0.720229 0.033295 0.395295
C90   C     C_R   0.232988 0.178542 0.993895 0.399718
C91   C     C_R   0.774373 0.279755 0.033295 0.395292
C92   C     C_R   0.767011 0.821458 0.993894 0.399721
C93   C     C_R   0.820488 0.766726 0.991934 0.374162
C94   C     C_R   0.723090 0.223474 0.033681 0.367347
C95   C     C_R   0.179512 0.233274 0.991936 0.374162
C96   C     C_R   0.276928 0.776509 0.033682 0.367358
C97   C     C_R   0.722622 0.223407 0.532856 0.393801
C98   C     C_R   0.733012 0.678682 0.493535 0.405526
C99   C     C_R   0.277378 0.776592 0.532856 0.393803
C100  C     C_R   0.266988 0.321318 0.493535 0.405526
C101  C     C_R   0.320482 0.266650 0.491625 0.382317
C102  C     C_R   0.226610 0.719978 0.533154 0.367919
C103  C     C_R   0.679518 0.733349 0.491625 0.382315
C104  C     C_R   0.773390 0.280022 0.533154 0.367918
C105  C     C_R   0.453194 0.047924 0.831469 0.234342
C106  C     C_R   0.012844 0.434273 0.831850 0.227440
C107  C     C_R   0.546808 0.952066 0.831470 0.234278
C108  C     C_R   0.987143 0.565724 0.831850 0.227427
C109  C     C_R   0.956454 0.551009 0.331337 0.252690
C110  C     C_R   0.536488 0.943532 0.331636 0.248325
C111  C     C_R   0.043546 0.448991 0.331337 0.252689
C112  C     C_R   0.463512 0.056467 0.331636 0.248326
C113  C     C_R   0.500003 0.999998 0.851691 -0.344660
C114  C     C_R   0.999998 0.500000 0.851994 -0.314523
C115  C     C_R   0.000000 0.500000 0.351591 -0.301416
C116  C     C_R   0.500000 1.000000 0.351774 -0.317240
C117  C     C_R   0.552230 0.957331 0.790630 -0.140133
C118  C     C_R   0.979126 0.563962 0.791003 -0.139494
C119  C     C_R   0.447766 0.042650 0.790630 -0.140087
C120  C     C_R   0.020859 0.436032 0.791004 -0.139461
C121  C     C_R   0.049084 0.453605 0.290483 -0.137141
C122  C     C_R   0.459753 0.054226 0.290618 -0.139543
C123  C     C_R   0.950916 0.546395 0.290482 -0.137143
C124  C     C_R   0.540246 0.945774 0.290618 -0.139543
C125  C     C_R   0.499998 0.999991 0.770098 -0.084359
C126  C     C_R   0.999993 0.499998 0.770423 -0.099379
C127  C     C_R   1.000000 0.500000 0.269980 -0.072673
C128  C     C_R   0.500000 1.000000 0.270182 -0.094892
C129  C     C_R   0.608423 0.920564 0.769889 0.431195
C130  C     C_R   0.949757 0.624273 0.770286 0.454306
C131  C     C_R   0.391563 0.079404 0.769891 0.431194
C132  C     C_R   0.050222 0.375719 0.770288 0.454304
C133  C     C_R   0.102088 0.412329 0.269659 0.434639
C134  C     C_R   0.416206 0.104719 0.269386 0.442445
C135  C     C_R   0.897911 0.587670 0.269659 0.434640
C136  C     C_R   0.583794 0.895280 0.269387 0.442443
C137  C     C_R   0.099054 0.408492 0.228979 0.457542
C138  C     C_R   0.425405 0.111656 0.229057 0.467819
C139  C     C_R   0.900946 0.591508 0.228979 0.457541
C140  C     C_R   0.574595 0.888344 0.229058 0.467817
C141  C     C_R   0.605751 0.916317 0.729193 0.458099
C142  C     C_R   0.954983 0.626778 0.729606 0.472643
C143  C     C_R   0.394231 0.083653 0.729195 0.458124
C144  C     C_R   0.045000 0.373214 0.729607 0.472644
C145  C     C_R   0.050010 0.454338 0.208437 -0.145547
C146  C     C_R   0.467471 0.059096 0.208629 -0.126165
C147  C     C_R   0.949989 0.545662 0.208437 -0.145546
C148  C     C_R   0.532528 0.940904 0.208629 -0.126162
C149  C     C_R   0.553133 0.957955 0.708548 -0.144563
C150  C     C_R   0.981396 0.565043 0.708821 -0.135394
C151  C     C_R   0.446856 0.042027 0.708549 -0.144568
C152  C     C_R   0.018594 0.434952 0.708821 -0.135389
C153  C     C_R   1.000000 0.500000 0.228971 -0.173446
C154  C     C_R   0.500000 1.000000 0.229123 -0.179982
C155  C     C_R   0.499996 0.999991 0.729070 -0.174576
C156  C     C_R   0.999995 0.499997 0.729314 -0.181876
C157  C     C_R   0.051828 0.457545 0.167558 0.488685
C158  C     C_R   0.475700 0.062921 0.167993 0.454959
C159  C     C_R   0.948171 0.542455 0.167557 0.488684
C160  C     C_R   0.524300 0.937078 0.167993 0.454952
C161  C     C_R   0.554308 0.960728 0.667616 0.485428
C162  C     C_R   0.987203 0.566168 0.667924 0.455427
C163  C     C_R   0.445686 0.039262 0.667616 0.485416
C164  C     C_R   0.012792 0.433829 0.667924 0.455431
C165  C     C_R   1.000000 0.500000 0.147699 -0.289132
C166  C     C_R   0.500000 1.000000 0.147802 -0.287511
C167  C     C_R   0.499999 0.999998 0.647755 -0.288759
C168  C     C_R   0.999999 0.499999 0.647857 -0.285983
O53   O     O_3   0.204855 0.688016 0.067931 -0.591247
C169  C     C_3   0.251815 0.628240 0.075447 -0.243130
H17   H     H_    0.310079 0.645111 0.076203 0.184658
H18   H     H_    0.243817 0.583887 0.053781 0.139236
H19   H     H_    0.238358 0.605649 0.104433 0.178806
O54   O     O_3   0.216017 0.106935 0.984415 -0.593475
C170  C     C_3   0.180587 0.074110 0.016303 -0.214500
H20   H     H_    0.124661 0.096813 0.020271 0.195984
H21   H     H_    0.212506 0.079959 0.043646 0.146212
H22   H     H_    0.175233 0.014689 0.010404 0.178638
O55   O     O_3   0.795171 0.311956 0.067932 -0.591222
C171  C     C_3   0.748209 0.371727 0.075458 -0.243134
H23   H     H_    0.689947 0.354852 0.076220 0.184639
H24   H     H_    0.756195 0.416087 0.053794 0.139221
H25   H     H_    0.761677 0.394310 0.104444 0.178809
O56   O     O_3   0.783982 0.893065 0.984413 -0.593491
C172  C     C_3   0.819413 0.925891 0.016300 -0.214532
H26   H     H_    0.875339 0.903188 0.020268 0.195992
H27   H     H_    0.787494 0.920042 0.043645 0.146219
H28   H     H_    0.824766 0.985311 0.010401 0.178627
O57   O     O_3   0.891368 0.783926 0.981517 -0.616521
C173  C     C_3   0.895512 0.787156 0.940667 -0.165972
H29   H     H_    0.866482 0.836302 0.929329 0.198758
H30   H     H_    0.873407 0.736856 0.926842 0.183371
H31   H     H_    0.953749 0.791569 0.932158 0.206782
O58   O     O_3   0.690699 0.202932 0.068328 -0.608382
C174  C     C_3   0.739013 0.156330 0.088737 -0.172827
H32   H     H_    0.786107 0.187190 0.100574 0.194643
H33   H     H_    0.758870 0.110063 0.070412 0.139982
H34   H     H_    0.709258 0.132369 0.113698 0.180804
O59   O     O_3   0.108632 0.216074 0.981519 -0.616519
C175  C     C_3   0.104486 0.212847 0.940669 -0.165972
H35   H     H_    0.133518 0.163703 0.929330 0.198764
H36   H     H_    0.126586 0.263149 0.926845 0.183364
H37   H     H_    0.046248 0.208430 0.932161 0.206776
O60   O     O_3   0.309334 0.797036 0.068328 -0.608417
C176  C     C_3   0.261029 0.843631 0.088748 -0.172853
H38   H     H_    0.213940 0.812767 0.100587 0.194651
H39   H     H_    0.241165 0.889905 0.070429 0.140001
H40   H     H_    0.290796 0.867582 0.113707 0.180814
O61   O     O_3   0.700322 0.193034 0.567695 -0.587299
C177  C     C_3   0.748145 0.134924 0.577164 -0.241689
H41   H     H_    0.806054 0.152972 0.578267 0.181879
H42   H     H_    0.742029 0.088711 0.556428 0.136950
H43   H     H_    0.733828 0.114471 0.606473 0.178780
O62   O     O_3   0.716145 0.607286 0.483569 -0.594356
C178  C     C_3   0.680858 0.573593 0.515248 -0.225925
H44   H     H_    0.624814 0.595916 0.519329 0.196954
H45   H     H_    0.712682 0.579015 0.542647 0.150106
H46   H     H_    0.675822 0.514271 0.508992 0.173253
O63   O     O_3   0.299678 0.806965 0.567695 -0.587301
C179  C     C_3   0.251855 0.865074 0.577164 -0.241706
H47   H     H_    0.193947 0.847027 0.578267 0.181880
H48   H     H_    0.257971 0.911288 0.556428 0.136954
H49   H     H_    0.266172 0.885527 0.606473 0.178772
O64   O     O_3   0.283855 0.392714 0.483569 -0.594357
C180  C     C_3   0.319142 0.426407 0.515248 -0.225923
H50   H     H_    0.375186 0.404083 0.519328 0.196955
H51   H     H_    0.287318 0.420985 0.542647 0.150107
H52   H     H_    0.324178 0.485729 0.508992 0.173252
O65   O     O_3   0.391325 0.284294 0.481365 -0.616290
C181  C     C_3   0.397319 0.281253 0.440581 -0.197608
H53   H     H_    0.361522 0.322823 0.426425 0.199685
H54   H     H_    0.384651 0.225653 0.429368 0.195565
H55   H     H_    0.454525 0.293608 0.432399 0.179305
O66   O     O_3   0.197225 0.696676 0.568071 -0.597642
C182  C     C_3   0.247482 0.648999 0.586364 -0.165125
H56   H     H_    0.295572 0.679248 0.597499 0.190030
H57   H     H_    0.265678 0.604007 0.566713 0.133822
H58   H     H_    0.220132 0.623353 0.611629 0.182991
O67   O     O_3   0.608675 0.715705 0.481366 -0.616290
C183  C     C_3   0.602680 0.718747 0.440582 -0.197610
H59   H     H_    0.638477 0.677177 0.426426 0.199686
H60   H     H_    0.615348 0.774347 0.429368 0.195566
H61   H     H_    0.545474 0.706392 0.432399 0.179305
O68   O     O_3   0.802775 0.303323 0.568071 -0.597642
C184  C     C_3   0.752518 0.351000 0.586364 -0.165104
H62   H     H_    0.704429 0.320751 0.597499 0.190034
H63   H     H_    0.734323 0.395992 0.566713 0.133816
H64   H     H_    0.779868 0.376646 0.611629 0.182997
O69   O     O_3   0.176263 0.720933 0.856510 -0.526478
C185  C     C_3   0.195309 0.647616 0.848171 -0.192429
H65   H     H_    0.166262 0.608986 0.867649 0.156630
H66   H     H_    0.255447 0.638470 0.849809 0.129611
H67   H     H_    0.178015 0.635090 0.818037 0.199282
O70   O     O_3   0.482506 0.381307 0.047323 -0.576429
C186  C     C_3   0.513195 0.330269 0.073562 -0.252672
H68   H     H_    0.540573 0.285029 0.057538 0.165863
H69   H     H_    0.472368 0.308424 0.094515 0.156336
H70   H     H_    0.555700 0.358424 0.090838 0.210768
O71   O     O_3   0.823650 0.279164 0.856501 -0.526480
C187  C     C_3   0.804653 0.352507 0.848195 -0.192342
H71   H     H_    0.833775 0.391089 0.867668 0.156660
H72   H     H_    0.744526 0.361707 0.849870 0.129655
H73   H     H_    0.821898 0.365050 0.818055 0.199234
O72   O     O_3   0.517498 0.618693 0.047328 -0.576432
C188  C     C_3   0.486810 0.669732 0.073567 -0.252646
H74   H     H_    0.459430 0.714970 0.057542 0.165885
H75   H     H_    0.527639 0.691579 0.094518 0.156328
H76   H     H_    0.444307 0.641577 0.090845 0.210771
O73   O     O_3   0.623954 0.513430 0.043151 -0.581773
C189  C     C_3   0.623794 0.469543 0.009423 -0.230446
H77   H     H_    0.677894 0.468834 0.994715 0.131530
H78   H     H_    0.580374 0.487740 0.988900 0.179183
H79   H     H_    0.612044 0.412293 0.017871 0.210502
O74   O     O_3   0.724939 0.169328 0.856127 -0.572256
C190  C     C_3   0.652506 0.143277 0.854094 -0.264883
H80   H     H_    0.612312 0.182710 0.866667 0.181370
H81   H     H_    0.648300 0.088761 0.868196 0.166032
H82   H     H_    0.637889 0.135728 0.823098 0.194318
O75   O     O_3   0.376053 0.486571 0.043143 -0.581777
C191  C     C_3   0.376224 0.530450 0.009412 -0.230471
H83   H     H_    0.322127 0.531160 0.994701 0.131535
H84   H     H_    0.419647 0.512245 0.988893 0.179181
H85   H     H_    0.387977 0.587701 0.017857 0.210507
O76   O     O_3   0.274979 0.830797 0.856157 -0.572389
C192  C     C_3   0.347556 0.856407 0.854052 -0.264672
H86   H     H_    0.387566 0.816725 0.866567 0.181137
H87   H     H_    0.352149 0.910867 0.868169 0.166049
H88   H     H_    0.362092 0.863911 0.823042 0.194325
O77   O     O_3   0.698888 0.202634 0.353907 -0.579636
C193  C     C_3   0.623062 0.191422 0.350668 -0.215519
H89   H     H_    0.590703 0.236821 0.363948 0.165042
H90   H     H_    0.607838 0.137761 0.363367 0.169525
H91   H     H_    0.608718 0.189481 0.319394 0.214640
O78   O     O_3   0.982984 0.882170 0.545533 -0.574226
C194  C     C_3   0.012757 0.833654 0.573346 -0.247585
H92   H     H_    0.038070 0.785419 0.558905 0.161035
H93   H     H_    0.971826 0.816238 0.595373 0.151297
H94   H     H_    0.056791 0.862472 0.589174 0.211615
O79   O     O_3   0.301112 0.797368 0.353907 -0.579636
C195  C     C_3   0.376938 0.808578 0.350668 -0.215520
H95   H     H_    0.409297 0.763180 0.363948 0.165043
H96   H     H_    0.392162 0.862239 0.363367 0.169524
H97   H     H_    0.391282 0.810520 0.319393 0.214639
O80   O     O_3   0.017016 0.117830 0.545533 -0.574227
C196  C     C_3   0.987243 0.166346 0.573346 -0.247577
H98   H     H_    0.961929 0.214580 0.558904 0.161036
H99   H     H_    0.028174 0.183764 0.595373 0.151298
H100  H     H_    0.943209 0.137529 0.589174 0.211616
O81   O     O_3   0.124314 0.013077 0.543057 -0.585784
C197  C     C_3   0.127739 0.967843 0.509866 -0.208375
H101  H     H_    0.183221 0.966751 0.496724 0.135939
H102  H     H_    0.086384 0.984974 0.487935 0.186246
H103  H     H_    0.115399 0.910881 0.518617 0.207995
O82   O     O_3   0.201278 0.687783 0.356214 -0.548446
C198  C     C_3   0.233000 0.619182 0.347627 -0.283293
H104  H     H_    0.215797 0.576849 0.368903 0.154293
H105  H     H_    0.293688 0.622403 0.346359 0.158037
H106  H     H_    0.213685 0.601653 0.318576 0.191271
O83   O     O_3   0.875686 0.986922 0.543057 -0.585782
C199  C     C_3   0.872261 0.032157 0.509866 -0.208375
H107  H     H_    0.816779 0.033249 0.496724 0.135940
H108  H     H_    0.913616 0.015026 0.487935 0.186245
H109  H     H_    0.884601 0.089119 0.518616 0.207995
O84   O     O_3   0.798722 0.312218 0.356214 -0.548446
C200  C     C_3   0.766999 0.380819 0.347626 -0.283293
H110  H     H_    0.784201 0.423152 0.368903 0.154293
H111  H     H_    0.706311 0.377597 0.346359 0.158038
H112  H     H_    0.786314 0.398348 0.318575 0.191271
N1    N     N_R   0.412778 0.102958 0.852420 0.258644
O85   O     O_R   0.365644 0.084564 0.878929 -0.407449
O86   O     O_R   0.425358 0.171901 0.845950 -0.339374
N2    N     N_R   0.013364 0.365700 0.852586 0.219310
O87   O     O_R   0.053288 0.356799 0.883472 -0.455585
O88   O     O_R   0.973401 0.311653 0.840537 -0.300733
N3    N     N_R   0.587221 0.897033 0.852423 0.258662
O89   O     O_R   0.634357 0.915427 0.878930 -0.407591
O90   O     O_R   0.574628 0.828090 0.845960 -0.339414
N4    N     N_R   0.986611 0.634297 0.852585 0.219310
O91   O     O_R   0.946684 0.643192 0.883471 -0.455566
O92   O     O_R   0.026558 0.688354 0.840533 -0.300735
N5    N     N_R   0.919670 0.608562 0.352270 0.261358
O93   O     O_R   0.870274 0.593356 0.378188 -0.409763
O94   O     O_R   0.937915 0.676398 0.346452 -0.298633
N6    N     N_R   0.564213 0.881173 0.352771 0.215427
O95   O     O_R   0.618891 0.888028 0.376573 -0.390718
O96   O     O_R   0.540286 0.815961 0.344920 -0.417741
N7    N     N_R   0.080331 0.391439 0.352271 0.261358
O97   O     O_R   0.129726 0.406645 0.378189 -0.409763
O98   O     O_R   0.062086 0.323603 0.346453 -0.298633
N8    N     N_R   0.435787 0.118827 0.352771 0.215427
O99   O     O_R   0.381109 0.111972 0.376572 -0.390718
O100  O     O_R   0.459714 0.184039 0.344919 -0.417740
O101  O     O_3   0.665930 0.886817 0.789012 -0.560289
C201  C     C_3   0.717314 0.940836 0.799628 -0.219687
H113  H     H_    0.693747 0.982172 0.819777 0.179831
H114  H     H_    0.739712 0.969611 0.773899 0.117004
H115  H     H_    0.763564 0.913662 0.814759 0.215024
O102  O     O_3   0.915393 0.681849 0.789217 -0.538013
C202  C     C_3   0.845561 0.658862 0.801781 -0.245907
H116  H     H_    0.849310 0.620013 0.826463 0.186835
H117  H     H_    0.813510 0.633158 0.778000 0.108957
H118  H     H_    0.814548 0.707554 0.811951 0.214600
O103  O     O_3   0.334046 0.113130 0.789016 -0.560325
C203  C     C_3   0.282685 0.059091 0.799637 -0.219588
H119  H     H_    0.306273 0.017763 0.819784 0.179986
H120  H     H_    0.260292 0.030308 0.773908 0.116992
H121  H     H_    0.236429 0.086247 0.814770 0.215027
O104  O     O_3   0.084577 0.318138 0.789219 -0.538017
C204  C     C_3   0.154412 0.341116 0.801784 -0.245911
H122  H     H_    0.150668 0.379965 0.826466 0.186838
H123  H     H_    0.186468 0.366815 0.778004 0.108957
H124  H     H_    0.185417 0.292419 0.811955 0.214606
O105  O     O_3   0.156481 0.373495 0.288651 -0.545105
C205  C     C_3   0.212829 0.422495 0.298955 -0.252201
H125  H     H_    0.193504 0.465337 0.319424 0.163058
H126  H     H_    0.236945 0.449626 0.273164 0.104472
H127  H     H_    0.256947 0.391124 0.313604 0.222074
O106  O     O_3   0.364278 0.148207 0.287492 -0.541750
C206  C     C_3   0.302270 0.104874 0.295608 -0.189940
H128  H     H_    0.314592 0.060656 0.316782 0.187182
H129  H     H_    0.279310 0.079691 0.268918 0.102585
H130  H     H_    0.259369 0.140467 0.308476 0.220798
O107  O     O_3   0.843519 0.626505 0.288650 -0.545105
C207  C     C_3   0.787172 0.577506 0.298954 -0.252198
H131  H     H_    0.806496 0.534664 0.319424 0.163058
H132  H     H_    0.763055 0.550374 0.273164 0.104471
H133  H     H_    0.743053 0.608876 0.313604 0.222073
O108  O     O_3   0.635722 0.851792 0.287492 -0.541750
C208  C     C_3   0.697730 0.895125 0.295609 -0.189939
H134  H     H_    0.685408 0.939344 0.316782 0.187182
H135  H     H_    0.720690 0.920309 0.268919 0.102585
H136  H     H_    0.740631 0.859533 0.308477 0.220797
O109  O     O_3   0.134183 0.351340 0.209754 -0.538975
C209  C     C_3   0.210519 0.361672 0.208629 -0.156120
H137  H     H_    0.226741 0.420275 0.207940 0.101936
H138  H     H_    0.231893 0.336063 0.181697 0.174198
H139  H     H_    0.237085 0.332787 0.233227 0.198234
O110  O     O_3   0.395064 0.171318 0.209844 -0.543663
C210  C     C_3   0.319518 0.160763 0.203801 -0.264532
H140  H     H_    0.304815 0.102465 0.198494 0.116531
H141  H     H_    0.302458 0.192346 0.177841 0.164239
H142  H     H_    0.287750 0.183922 0.228320 0.211359
O111  O     O_3   0.865817 0.648659 0.209754 -0.538975
C211  C     C_3   0.789481 0.638326 0.208629 -0.156119
H143  H     H_    0.773258 0.579724 0.207939 0.101937
H144  H     H_    0.768106 0.663935 0.181696 0.174198
H145  H     H_    0.762914 0.667212 0.233227 0.198233
O112  O     O_3   0.604936 0.828682 0.209844 -0.543663
C212  C     C_3   0.680482 0.839237 0.203801 -0.264531
H146  H     H_    0.695185 0.897534 0.198494 0.116532
H147  H     H_    0.697542 0.807653 0.177842 0.164239
H148  H     H_    0.712250 0.816078 0.228320 0.211359
O113  O     O_3   0.645919 0.862503 0.710043 -0.538036
C213  C     C_3   0.721020 0.879562 0.709169 -0.174456
H149  H     H_    0.731979 0.939415 0.708402 0.109255
H150  H     H_    0.744939 0.855708 0.682389 0.171558
H151  H     H_    0.749707 0.853317 0.733921 0.188256
O114  O     O_3   0.936938 0.691109 0.710317 -0.528949
C214  C     C_3   0.860238 0.698622 0.707391 -0.244336
H152  H     H_    0.831546 0.645417 0.703636 0.112684
H153  H     H_    0.847227 0.732806 0.681715 0.161538
H154  H     H_    0.838323 0.729109 0.732665 0.200290
O115  O     O_3   0.354044 0.137455 0.710046 -0.538022
C215  C     C_3   0.278948 0.120374 0.709176 -0.174497
H155  H     H_    0.268007 0.060518 0.708409 0.109246
H156  H     H_    0.255018 0.144222 0.682397 0.171555
H157  H     H_    0.250258 0.146610 0.733930 0.188283
O116  O     O_3   0.063038 0.308881 0.710319 -0.528945
C216  C     C_3   0.139737 0.301355 0.707396 -0.244289
H158  H     H_    0.168438 0.354556 0.703643 0.112672
H159  H     H_    0.152746 0.267170 0.681720 0.161545
H160  H     H_    0.161643 0.270864 0.732671 0.200298
O117  O     O_3   0.104147 0.418782 0.146733 -0.535982
C217  C     C_3   0.160480 0.466906 0.135400 -0.304438
H161  H     H_    0.178532 0.503112 0.159555 0.137235
H162  H     H_    0.143719 0.500631 0.110102 0.143255
H163  H     H_    0.208409 0.433818 0.126163 0.186588
O118  O     O_3   0.473937 0.131175 0.149981 -0.568360
C218  C     C_3   0.414132 0.138720 0.124340 -0.189702
H164  H     H_    0.369377 0.098757 0.129468 0.140203
H165  H     H_    0.433657 0.135505 0.093901 0.146534
H166  H     H_    0.390913 0.194526 0.127743 0.174031
O119  O     O_3   0.895852 0.581217 0.146733 -0.535982
C219  C     C_3   0.839520 0.533092 0.135400 -0.304437
H167  H     H_    0.821468 0.496887 0.159555 0.137230
H168  H     H_    0.856281 0.499368 0.110102 0.143247
H169  H     H_    0.791590 0.566180 0.126163 0.186594
O120  O     O_3   0.526063 0.868825 0.149982 -0.568365
C220  C     C_3   0.585868 0.861279 0.124341 -0.189699
H170  H     H_    0.630623 0.901243 0.129469 0.140204
H171  H     H_    0.566344 0.864495 0.093901 0.146534
H172  H     H_    0.609088 0.805474 0.127744 0.174030
O121  O     O_3   0.608266 0.924395 0.646736 -0.536436
C221  C     C_3   0.661649 0.975205 0.634683 -0.300523
H173  H     H_    0.677251 0.013982 0.658195 0.137507
H174  H     H_    0.643139 0.006186 0.608761 0.143850
H175  H     H_    0.711576 0.944582 0.626085 0.186402
O122  O     O_3   0.991438 0.633024 0.648656 -0.557187
C222  C     C_3   0.930099 0.645410 0.624522 -0.203876
H176  H     H_    0.881381 0.612116 0.632289 0.134693
H177  H     H_    0.945392 0.636599 0.593716 0.144840
H178  H     H_    0.914324 0.703886 0.626637 0.169343
O123  O     O_3   0.391730 0.075600 0.646737 -0.536422
C223  C     C_3   0.338350 0.024792 0.634678 -0.300466
H179  H     H_    0.322749 0.986004 0.658185 0.137483
H180  H     H_    0.356862 0.993822 0.608753 0.143834
H181  H     H_    0.288421 0.055416 0.626082 0.186401
O124  O     O_3   0.008562 0.366974 0.648654 -0.557179
C224  C     C_3   0.069904 0.354590 0.624524 -0.203898
H182  H     H_    0.118621 0.387883 0.632293 0.134690
H183  H     H_    0.054617 0.363404 0.593717 0.144850
H184  H     H_    0.085679 0.296114 0.626637 0.169339

loop_
_geom_bond_atom_site_label_1
_geom_bond_atom_site_label_2
_geom_bond_distance
_ccdc_geom_bond_type
N4    O92   1.300684 A    
C65   C88   1.417939 A    
C224  H182  1.115405 S    
Zn5   O51   1.939992 S    
C198  H105  1.114090 S    
O69   C185  1.411682 S    
C105  C119  1.413553 A    
C208  H136  1.109173 S    
C28   C61   1.414418 A    
C106  C114  1.405502 A    
C67   C86   1.417939 A    
C109  C123  1.413433 A    
C119  C131  1.418456 A    
C175  H35   1.111542 S    
O122  C222  1.414479 S    
C162  O122  1.392752 S    
C121  C127  1.419786 A    
C135  O107  1.383769 S    
C173  H29   1.111541 S    
N5    O93   1.302095 A    
C44   O72   1.389774 S    
C169  H18   1.112014 S    
Zn13  O35   1.938130 S    
C39   C66   1.411663 A    
O34   C22   1.278619 A    
C179  H49   1.108491 S    
C89   O53   1.384685 S    
C183  H59   1.112759 S    
O52   C22   1.275837 A    
C127  C153  1.412571 A    
C108  C114  1.405503 A    
C111  C115  1.407848 A    
C192  H88   1.109514 S    
Zn4   O2    1.948208 S    
C158  O118  1.393041 S    
C140  O112  1.388342 S    
N1    O86   1.301154 A    
C148  C160  1.409566 A    
O47   C17   1.275922 A    
C27   C62   1.413638 A    
C40   H16   1.078415 S    
O76   C192  1.413545 S    
C130  O102  1.385525 S    
C214  H153  1.107804 S    
C133  C137  1.404075 A    
C46   O74   1.395311 S    
O67   C183  1.410151 S    
Zn16  O36   1.928817 S    
O55   C171  1.409900 S    
C157  C165  1.400460 A    
C58   C79   1.413094 A    
C160  O120  1.393040 S    
O22   C10   1.278872 A    
C181  H53   1.112762 S    
C109  C115  1.407848 A    
O46   C20   1.276041 A    
C17   C85   1.446947 S    
Zn12  O24   1.939593 S    
C204  H124  1.109285 S    
C14   C76   1.448996 S    
C94   O58   1.385540 S    
O63   C179  1.410357 S    
C124  C128  1.418206 A    
C19   C87   1.446946 S    
O116  C216  1.413978 S    
Zn1   O13   1.942666 S    
C213  H149  1.113345 S    
C220  H171  1.109207 S    
C118  C130  1.416118 A    
Zn3   O15   1.942669 S    
C55   O83   1.383808 S    
Zn4   O16   1.942931 S    
Zn3   O41   1.939994 S    
C112  N8    1.441795 S    
C136  O108  1.383907 S    
Zn7   O3    1.945297 S    
C212  H147  1.108123 S    
C69   C84   1.416313 A    
C196  H98   1.110839 S    
C224  H184  1.107444 S    
C70   C83   1.422912 A    
O62   C178  1.411405 S    
C138  O110  1.388340 S    
C145  C153  1.423228 A    
O79   C195  1.409221 S    
C8    C168  1.453788 S    
O11   C3    1.279118 A    
C105  C113  1.406215 A    
O49   C23   1.281370 A    
C175  H37   1.109393 S    
Zn9   O7    1.942706 S    
C60   C61   1.409553 A    
C170  H21   1.113981 S    
C195  H96   1.110694 S    
C32   C48   1.410288 A    
C217  H161  1.114360 S    
C33   C49   1.410669 A    
O81   C197  1.411874 S    
C132  O104  1.385527 S    
Zn10  O22   1.939595 S    
Zn10  O8    1.942442 S    
N2    O87   1.300516 A    
C223  H180  1.109142 S    
C149  C155  1.423807 A    
C141  C149  1.415568 A    
Zn12  O28   1.928817 S    
C203  H119  1.111012 S    
Zn13  O29   1.927344 S    
C185  H67   1.109476 S    
C106  C120  1.414979 A    
O117  C217  1.414474 S    
Zn6   O4    1.948211 S    
Zn10  O2    1.945447 S    
C219  H169  1.109283 S    
O72   C188  1.412736 S    
Zn3   O1    1.945297 S    
C174  H33   1.114223 S    
C112  C122  1.415137 A    
C202  H117  1.113284 S    
C30   H6    1.077521 S    
C197  H101  1.112330 S    
C92   O56   1.385609 S    
C122  C128  1.418204 A    
C210  H142  1.108016 S    
O120  C220  1.412998 S    
C191  H83   1.112705 S    
C190  H80   1.114403 S    
C108  N4    1.442141 S    
C107  C117  1.413564 A    
C200  H110  1.112464 S    
C134  O106  1.383905 S    
C164  C168  1.410955 A    
Zn8   O46   1.938527 S    
C52   O80   1.388708 S    
C107  N3    1.438902 S    
C182  H57   1.114271 S    
C188  H74   1.110912 S    
O27   C15   1.274500 A    
C152  C164  1.412865 A    
O29   C17   1.276725 A    
N3    O89   1.301992 A    
C82   C98   1.404815 A    
C149  C161  1.411004 A    
C44   C45   1.398768 A    
C217  H163  1.109282 S    
O8    C2    1.277671 A    
C3    C116  1.462430 S    
N7    O98   1.301161 A    
Zn14  O34   1.928815 S    
C28   C44   1.411106 A    
C132  C144  1.405280 A    
C18   C88   1.457566 S    
C23   C83   1.458187 S    
C183  H61   1.109357 S    
O16   C6    1.276368 A    
O53   C169  1.409897 S    
O14   C6    1.276369 A    
C218  H166  1.108518 S    
Zn15  O9    1.942706 S    
O24   C12   1.278873 A    
C198  H104  1.112462 S    
Zn12  O6    1.942444 S    
O40   C10   1.275011 A    
C100  C101  1.396258 A    
C100  O64   1.385571 S    
C193  H89   1.114604 S    
C211  H143  1.113175 S    
O45   C19   1.275921 A    
C91   O55   1.384690 S    
O17   C7    1.273648 A    
C110  C116  1.408402 A    
N7    O97   1.302096 A    
C109  N5    1.438987 S    
C171  H23   1.112677 S    
Zn5   O17   1.942666 S    
C196  H100  1.108981 S    
C142  O114  1.388287 S    
O9    C3    1.279117 A    
C36   C69   1.414792 A    
O35   C23   1.273237 A    
Zn15  O33   1.938129 S    
C123  C127  1.419787 A    
C184  H63   1.114269 S    
C136  C140  1.405132 A    
Zn4   O44   1.927742 S    
C117  C125  1.418931 A    
C74   C90   1.404109 A    
C5    C165  1.450406 S    
C180  H51   1.113928 S    
Zn9   O27   1.938130 S    
C205  H125  1.109796 S    
C203  H121  1.109151 S    
C199  H107  1.112330 S    
C99   C102  1.395044 A    
C50   C55   1.398726 A    
C16   C74   1.448994 S    
C185  H65   1.111671 S    
C219  H167  1.114359 S    
C194  H94   1.108984 S    
O50   C24   1.275834 A    
C169  H19   1.108697 S    
C103  O67   1.384509 S    
Zn11  O5    1.942705 S    
C211  H145  1.109017 S    
O5    C1    1.277703 A    
C216  H159  1.107801 S    
C193  H91   1.109430 S    
O31   C19   1.276724 A    
Zn11  O23   1.927343 S    
C29   C60   1.411572 A    
O61   C177  1.410357 S    
C146  C158  1.409569 A    
C35   C70   1.418699 A    
C210  H140  1.115326 S    
O75   C191  1.411648 S    
C12   C78   1.457512 S    
C38   H14   1.078415 S    
O41   C15   1.279645 A    
C176  H38   1.110766 S    
C222  H178  1.107445 S    
C150  C156  1.421845 A    
O84   C200  1.409610 S    
C200  H112  1.109233 S    
C43   O71   1.383739 S    
N5    O94   1.301161 A    
C188  H76   1.108836 S    
C105  N1    1.438902 S    
C66   C71   1.409540 A    
C79   C95   1.402425 A    
N4    O91   1.300517 A    
C220  H172  1.108517 S    
N6    O95   1.300720 A    
C42   O70   1.389773 S    
Zn9   O1    1.948356 S    
O105  C205  1.415444 S    
O124  C224  1.414477 S    
C137  O109  1.390849 S    
C36   C52   1.410736 A    
C22   C84   1.449670 S    
C58   C63   1.409554 A    
C125  C155  1.413191 A    
C207  H132  1.110231 S    
C52   C53   1.398726 A    
C90   O54   1.385610 S    
C218  H164  1.115059 S    
C163  C167  1.401097 A    
C208  H135  1.111777 S    
C222  H177  1.108944 S    
C120  C132  1.416119 A    
Zn1   O1    1.945300 S    
C142  C150  1.418492 A    
C191  H85   1.108077 S    
Zn2   O14   1.942930 S    
C175  H36   1.113443 S    
O54   C170  1.411316 S    
O78   C194  1.412392 S    
Zn2   O40   1.938530 S    
C4    C115  1.466013 S    
Zn3   O37   1.929213 S    
C1    C114  1.457736 S    
C171  H25   1.108697 S    
C110  N6    1.441797 S    
C190  H82   1.109524 S    
C131  C143  1.404791 A    
C64   C73   1.419849 A    
C39   C55   1.399861 A    
C209  H137  1.113174 S    
C178  H46   1.109456 S    
C78   C94   1.405717 A    
C129  C141  1.404791 A    
O118  C218  1.412999 S    
C37   C53   1.399861 A    
C186  H70   1.108836 S    
C187  H71   1.111670 S    
C138  C146  1.414806 A    
C57   C80   1.416563 A    
C219  H168  1.109447 S    
C189  H77   1.112703 S    
C73   C89   1.405097 A    
O111  C211  1.412233 S    
O58   C174  1.411628 S    
C119  C125  1.418924 A    
O102  C202  1.416164 S    
C212  H146  1.115324 S    
C63   C74   1.415524 A    
C29   H5    1.081357 S    
O6    C2    1.277679 A    
C128  C154  1.414286 A    
C25   H1    1.079605 S    
C215  H155  1.113345 S    
C192  H87   1.111162 S    
C59   C62   1.411733 A    
N1    O85   1.301995 A    
C159  C165  1.400461 A    
C60   C77   1.413091 A    
Zn10  O26   1.928815 S    
C173  H31   1.109390 S    
O10   C4    1.278300 A    
C98   O62   1.385570 S    
O123  C223  1.414533 S    
C32   H8    1.077552 S    
C199  H109  1.108121 S    
C39   H15   1.081310 S    
N8    O99   1.300721 A    
C93   O57   1.384622 S    
C194  H92   1.110837 S    
Zn14  O30   1.939595 S    
O108  C208  1.416105 S    
Zn15  O3    1.948357 S    
C207  H131  1.109797 S    
C95   O59   1.384621 S    
C221  H173  1.114438 S    
C222  H176  1.115406 S    
N3    O90   1.301156 A    
C32   C57   1.415589 A    
Zn1   O43   1.939992 S    
C161  O121  1.387876 S    
C177  H41   1.113086 S    
C181  H54   1.112585 S    
C176  H40   1.109364 S    
O112  C212  1.413352 S    
Zn5   O47   1.929214 S    
C25   C64   1.413658 A    
Zn8   O20   1.942931 S    
Zn6   O48   1.938530 S    
C204  H123  1.113282 S    
C201  H113  1.110996 S    
Zn7   O45   1.929213 S    
C51   O79   1.390660 S    
C101  O65   1.384509 S    
C102  O66   1.385710 S    
C206  H130  1.109173 S    
C213  H150  1.109219 S    
C174  H32   1.110764 S    
O32   C20   1.278007 A    
C80   C96   1.405713 A    
C181  H55   1.109356 S    
C161  C167  1.401097 A    
C220  H170  1.115061 S    
Zn16  O10   1.942445 S    
C224  H183  1.108945 S    
O12   C4    1.278300 A    
C198  H106  1.109232 S    
C7    C167  1.451659 S    
O48   C18   1.276044 A    
C97   C104  1.395045 A    
C139  C147  1.414075 A    
C91   C94   1.396894 A    
O38   C12   1.275010 A    
O70   C186  1.412737 S    
C9    C77   1.447891 S    
C106  N2    1.442140 S    
C213  H151  1.108930 S    
C20   C86   1.457564 S    
Zn13  O3    1.948356 S    
O103  C203  1.415844 S    
C158  C166  1.413178 A    
Zn14  O4    1.945447 S    
C13   C73   1.457685 S    
C177  H43   1.108489 S    
C11   C79   1.447891 S    
O106  C206  1.416106 S    
O68   C184  1.411729 S    
C217  H162  1.109446 S    
C89   C96   1.396905 A    
O21   C9    1.276956 A    
C26   H2    1.079588 S    
C206  H128  1.110535 S    
C201  H115  1.109155 S    
O23   C11   1.276954 A    
C178  H44   1.110958 S    
C169  H17   1.112678 S    
Zn7   O49   1.939994 S    
C145  C157  1.409727 A    
C133  O105  1.383769 S    
C66   C87   1.412741 A    
C207  H133  1.109127 S    
C212  H148  1.108018 S    
C214  H152  1.115363 S    
C121  C133  1.419979 A    
C30   C46   1.410402 A    
C211  H144  1.109283 S    
C48   O76   1.395186 S    
C117  C129  1.418470 A    
C160  C166  1.413178 A    
C215  H157  1.108932 S    
C210  H141  1.108125 S    
O36   C24   1.278619 A    
O18   C8    1.276506 A    
C164  O124  1.392753 S    
C214  H154  1.107457 S    
C97   O61   1.384747 S    
C37   C68   1.411662 A    
C56   O84   1.382435 S    
O114  C214  1.413978 S    
Zn11  O1    1.948357 S    
C38   C67   1.415420 A    
C47   O75   1.383128 S    
C144  O116  1.388286 S    
C151  C155  1.423816 A    
Zn12  O2    1.945443 S    
O43   C13   1.279641 A    
C49   O77   1.390660 S    
O28   C16   1.279001 A    
C197  H103  1.108121 S    
Zn2   O42   1.927739 S    
C179  H47   1.113086 S    
Zn5   O3    1.945300 S    
C31   C47   1.399769 A    
C110  C124  1.415137 A    
C33   C72   1.418698 A    
C33   H9    1.074818 S    
C85   C101  1.402559 A    
C150  C162  1.412860 A    
C68   C85   1.412742 A    
C218  H165  1.109205 S    
O65   C181  1.410148 S    
C72   C81   1.422913 A    
C31   H7    1.081356 S    
C191  H84   1.113206 S    
Zn1   O39   1.929214 S    
C193  H90   1.110694 S    
C38   C54   1.396231 A    
C135  C139  1.404077 A    
C182  H56   1.110846 S    
C27   C43   1.403883 A    
O56   C172  1.411317 S    
C49   C56   1.394069 A    
C171  H24   1.112019 S    
O110  C210  1.413352 S    
C172  H28   1.109439 S    
C137  C145  1.414074 A    
C196  H99   1.114300 S    
C27   H3    1.079597 S    
O104  C204  1.416165 S    
N2    O88   1.300688 A    
C36   H12   1.079592 S    
C124  C136  1.418737 A    
C51   C54   1.394070 A    
O71   C187  1.411691 S    
C10   C80   1.457502 S    
C30   C59   1.415598 A    
Zn2   O2    1.948211 S    
O101  C201  1.415842 S    
C184  H62   1.110847 S    
O7    C1    1.277691 A    
C31   C58   1.411574 A    
O83   C199  1.411874 S    
O26   C14   1.279002 A    
Zn15  O31   1.927343 S    
C112  C116  1.408403 A    
C170  H22   1.109440 S    
Zn6   O18   1.942930 S    
C195  H95   1.114605 S    
Zn16  O32   1.939593 S    
O115  C215  1.412305 S    
C162  C168  1.410952 A    
C180  H50   1.110956 S    
C122  C134  1.418737 A    
C28   H4    1.079590 S    
O19   C7    1.273642 A    
Zn8   O4    1.948208 S    
C205  H126  1.110230 S    
C99   O63   1.384748 S    
C41   O69   1.383714 S    
C223  H179  1.114435 S    
O37   C11   1.276279 A    
C65   C72   1.413430 A    
C199  H108  1.113189 S    
C216  H158  1.115363 S    
C140  C148  1.414809 A    
O39   C9    1.276277 A    
C185  H66   1.114268 S    
C194  H93   1.114298 S    
O13   C5    1.273316 A    
C71   C82   1.416312 A    
O119  C219  1.414474 S    
O51   C21   1.281371 A    
C172  H26   1.111013 S    
C143  O115  1.390678 S    
O113  C213  1.412302 S    
C174  H34   1.109363 S    
C35   C51   1.410669 A    
C202  H118  1.109285 S    
O20   C8    1.276508 A    
C57   C64   1.411755 A    
O44   C14   1.275012 A    
C83   C99   1.405049 A    
C186  H68   1.110913 S    
C84   C100  1.404814 A    
C205  H127  1.109126 S    
C187  H73   1.109477 S    
C200  H111  1.114089 S    
C59   C78   1.416580 A    
C173  H30   1.113441 S    
C34   H10   1.079592 S    
Zn16  O4    1.945443 S    
C182  H58   1.109341 S    
O25   C13   1.274506 A    
C188  H75   1.114795 S    
C75   C91   1.405092 A    
C148  C154  1.418117 A    
C76   C92   1.404111 A    
C86   C102  1.405445 A    
C204  H122  1.109385 S    
C118  C126  1.417347 A    
C151  C163  1.411012 A    
C6    C166  1.452166 S    
N6    O96   1.300442 A    
C134  C138  1.405135 A    
C26   C42   1.411100 A    
C159  O119  1.387685 S    
C104  O68   1.385707 S    
O109  C209  1.412234 S    
C131  O103  1.383854 S    
C163  O123  1.387879 S    
C40   C56   1.396230 A    
C61   C76   1.415527 A    
O80   C196  1.412393 S    
C129  O101  1.383856 S    
C62   C75   1.419860 A    
C209  H139  1.109019 S    
C208  H134  1.110537 S    
C152  C156  1.421846 A    
C126  C156  1.416029 A    
C96   O60   1.385540 S    
C147  C159  1.409727 A    
C34   C50   1.410737 A    
O66   C182  1.411728 S    
O42   C16   1.275010 A    
O107  C207  1.415442 S    
C111  C121  1.413432 A    
O121  C221  1.414533 S    
Zn9   O21   1.927344 S    
O57   C173  1.410397 S    
C37   H13   1.081311 S    
C190  H81   1.111282 S    
C68   C69   1.409540 A    
C209  H138  1.109284 S    
C178  H45   1.113926 S    
C21   C81   1.458188 S    
C197  H102  1.113189 S    
C67   C70   1.413431 A    
C183  H60   1.112586 S    
C92   C93   1.396958 A    
C186  H69   1.114797 S    
O15   C5    1.273317 A    
C187  H72   1.114273 S    
Zn8   O52   1.927742 S    
C2    C113  1.463808 S    
C189  H78   1.113205 S    
C184  H64   1.109341 S    
C146  C154  1.418114 A    
C141  O113  1.390681 S    
C170  H20   1.111013 S    
C195  H97   1.109429 S    
O59   C175  1.410394 S    
O64   C180  1.411402 S    
C215  H156  1.109214 S    
C192  H86   1.114340 S    
C180  H52   1.109456 S    
C45   O73   1.383131 S    
C26   C63   1.414420 A    
Zn4   O38   1.938527 S    
Zn7   O19   1.942669 S    
C223  H181  1.109219 S    
C35   H11   1.074819 S    
C107  C113  1.406229 A    
O33   C21   1.273238 A    
C221  H174  1.109143 S    
N8    O100  1.300442 A    
C189  H79   1.108076 S    
C143  C151  1.415572 A    
C123  C135  1.419977 A    
C87   C103  1.402559 A    
C147  C153  1.423228 A    
C216  H160  1.107460 S    
C81   C97   1.405049 A    
O60   C176  1.411626 S    
C172  H27   1.113983 S    
C43   C46   1.397990 A    
C29   C45   1.399769 A    
C202  H116  1.109386 S    
C157  O117  1.387686 S    
O77   C193  1.409220 S    
C177  H42   1.112119 S    
C41   C48   1.397962 A    
C53   O81   1.383809 S    
C42   C47   1.398767 A    
C88   C104  1.405447 A    
C90   C95   1.396956 A    
C179  H48   1.112120 S    
C176  H39   1.114222 S    
C139  O111  1.390849 S    
Zn11  O25   1.938129 S    
C25   C41   1.403875 A    
C98   C103  1.396259 A    
O74   C190  1.413682 S    
C130  C142  1.405274 A    
C201  H114  1.110285 S    
C144  C152  1.418494 A    
C203  H120  1.110291 S    
C50   O78   1.388707 S    
C40   C65   1.415420 A    
C24   C82   1.449671 S    
Zn6   O50   1.927739 S    
C15   C75   1.457684 S    
C221  H175  1.109221 S    
O73   C189  1.411648 S    
C54   O82   1.382437 S    
C120  C126  1.417346 A    
C206  H129  1.111780 S    
C108  C118  1.414984 A    
O82   C198  1.409610 S    
Zn13  O11   1.942705 S    
Zn14  O12   1.942442 S    
C77   C93   1.402424 A    
C34   C71   1.414792 A    
C111  N7    1.438987 S    
O30   C18   1.278008 A    
