data_mof_unit_7457.cif
_audit_creation_date              2012-12-10T20:52:11-0500
_audit_creation_method            fapswitch 2.2
_symmetry_space_group_name_H-M    P1
_symmetry_Int_Tables_number       1
_space_group_crystal_system       triclinic
_cell_length_a                    10.8442
_cell_length_b                    8.933934
_cell_length_c                    8.294842
_cell_angle_alpha                 90.56663
_cell_angle_beta                  94.085051
_cell_angle_gamma                 90.948174
_cell_volume                      801.414854494

loop_
_atom_site_label
_atom_site_type_symbol
_atom_type_description
_atom_site_fract_x
_atom_site_fract_y
_atom_site_fract_z
_atom_type_partial_charge
C1    C     C_R   0.499785 0.218765 0.499455 0.941768
C2    C     C_R   0.740453 0.494475 0.505263 0.960449
C3    C     C_R   0.204173 0.520716 0.009227 0.058487
C4    C     C_R   0.795850 0.479315 0.990775 0.058491
C5    C     C_R   0.124884 0.530988 0.132095 -0.104629
C6    C     C_R   0.875145 0.469041 0.867916 -0.104678
C7    C     C_R   0.090385 0.402216 0.212104 0.093704
C8    C     C_R   0.909618 0.597802 0.787878 0.093789
C9    C     C_R   0.106377 0.260760 0.144671 -0.013343
C10   C     C_R   0.893572 0.739268 0.855254 -0.013355
C11   C     C_R   0.170737 0.248834 0.004673 -0.045208
C12   C     C_R   0.500215 0.781235 0.500545 0.941760
C13   C     C_R   0.829205 0.751203 0.995238 -0.045151
C14   C     C_R   0.226335 0.377747 0.944578 -0.326383
C15   C     C_R   0.773648 0.622287 0.055379 -0.326378
C16   C     C_R   0.928578 0.402340 0.398076 0.570894
C17   C     C_R   0.071421 0.597661 0.601918 0.570927
C18   C     C_2   0.274016 0.657608 0.968633 0.565566
C19   C     C_2   0.726004 0.342429 0.031363 0.565611
C20   C     C_2   0.187312 0.102479 0.925766 0.499549
C21   C     C_2   0.812579 0.897560 0.074107 0.499521
C22   C     C_R   0.874275 0.486937 0.514286 -0.294223
C23   C     C_R   0.125725 0.513058 0.485716 -0.294248
C24   C     C_R   0.948092 0.576075 0.625059 -0.176658
C25   C     C_R   0.051905 0.423929 0.374931 -0.176614
C26   C     C_1   0.499924 0.065357 0.499264 -0.151588
C27   C     C_1   0.500076 0.934642 0.500736 -0.151594
C28   C     C_R   0.259547 0.505528 0.494738 0.960453
F1    F     F_    0.862523 0.296617 0.310063 -0.693768
F2    F     F_    0.137477 0.703388 0.689917 -0.693771
H1    H     H_    0.291683 0.361703 0.855770 0.187000
H2    H     H_    0.750310 0.907454 0.170395 0.063020
H3    H     H_    0.708314 0.638335 0.144210 0.186954
H4    H     H_    0.105800 0.639870 0.183048 0.180720
H5    H     H_    0.894253 0.360153 0.816989 0.180678
H6    H     H_    0.074512 0.161680 0.204656 0.208362
H7    H     H_    0.925388 0.838344 0.795226 0.208199
H8    H     H_    0.321912 0.664790 0.859782 0.149392
H9    H     H_    0.678089 0.335256 0.140193 0.149386
H10   H     H_    0.249420 0.092607 0.829303 0.062989
N1    N     N_1   0.500020 0.500030 0.073640 -0.107729
N2    N     N_1   0.499980 0.499970 0.926360 -0.107726
O1    O     O_R   0.499990 0.285340 0.636850 -0.604695
O2    O     O_2   0.716355 0.235623 0.938057 -0.552642
O3    O     O_2   0.129549 0.991896 0.964765 -0.496275
O4    O     O_2   0.870500 0.008105 0.035315 -0.496335
O5    O     O_R   0.500010 0.714660 0.363150 -0.604703
O6    O     O_R   0.500010 0.285350 0.363100 -0.621101
O7    O     O_R   0.499990 0.714650 0.636900 -0.621131
O8    O     O_R   0.316750 0.500000 0.636870 -0.659024
O9    O     O_R   0.683250 0.500000 0.363130 -0.659010
O10   O     O_R   0.316770 0.500020 0.363120 -0.608053
O11   O     O_R   0.683230 0.499980 0.636880 -0.608048
O12   O     O_2   0.283659 0.764423 0.061934 -0.552539
Zn1   Zn    Zn3+2 0.499990 0.499990 0.682780 0.976458
Zn2   Zn    Zn3+2 0.500010 0.500010 0.317220 0.976472

loop_
_geom_bond_atom_site_label_1
_geom_bond_atom_site_label_2
_ccdc_geom_bond_type
C2    C22   S    
C9    H6    S    
C6    C8    A    
N1    Zn2   S    
C10   H7    S    
N2    Zn1   S    
C9    C11   A    
N1    N2    T    
O8    Zn1   S    
C7    C25   S    
C14   H1    S    
C5    H4    S    
C4    C15   A    
C13   C15   A    
C12   O7    A    
C18   H8    S    
C13   C21   S    
C1    O6    A    
C23   C28   S    
C6    H5    S    
C17   F2    S    
C28   O10   A    
C26   C27   T    
C17   C23   A    
C3    C14   A    
C19   H9    S    
C12   O5    A    
O1    Zn1   S    
C11   C14   A    
C15   H3    S    
C21   O4    D    
C5    C7    A    
O11   Zn1   S    
C1    C26   S    
C20   H10   S    
C21   H2    S    
C22   C24   A    
C11   C20   S    
C17   C24   A    
C2    O9    A    
C18   O12   D    
C12   C27   S    
C4    C6    A    
C2    O11   A    
O10   Zn2   S    
C23   C25   A    
C19   O2    D    
C3    C18   S    
C7    C9    A    
O9    Zn2   S    
C16   C25   A    
O6    Zn2   S    
C16   C22   A    
C8    C24   S    
C16   F1    S    
O7    Zn1   S    
C4    C19   S    
C28   O8    A    
C1    O1    A    
C8    C10   A    
C20   O3    D    
O5    Zn2   S    
C3    C5    A    
C10   C13   A    
