data_mof_unit_59308.cif
_audit_creation_date              2013-03-05T16:12:27-0500
_audit_creation_method            fapswitch 2.2
_symmetry_space_group_name_H-M    P1
_symmetry_Int_Tables_number       1
_space_group_crystal_system       triclinic
_cell_length_a                    10.801326
_cell_length_b                    9.821954
_cell_length_c                    23.028128
_cell_angle_alpha                 91.553356
_cell_angle_beta                  90.521647
_cell_angle_gamma                 89.457891
_cell_volume                      2441.95425849

loop_
_atom_site_label
_atom_site_type_symbol
_atom_site_description
_atom_site_fract_x
_atom_site_fract_y
_atom_site_fract_z
_atom_type_partial_charge
O1    O     O_R   0.316770 0.614620 0.500000 -0.634825
O2    O     O_R   0.683230 0.385380 0.500000 -0.634563
O3    O     O_R   0.683230 0.614620 0.500000 -0.635876
O4    O     O_R   0.316770 0.385380 0.500000 -0.634046
C1    C     C_R   0.259680 0.500377 0.499987 0.866775
C2    C     C_R   0.740315 0.499622 0.499887 0.866350
O5    O     O_R   0.499970 0.614690 0.416160 -0.618534
O6    O     O_R   0.500030 0.385310 0.583840 -0.602390
O7    O     O_R   0.500030 0.614690 0.583840 -0.621236
O8    O     O_R   0.499970 0.385310 0.416160 -0.602362
C3    C     C_R   0.504045 0.498231 0.388809 0.965584
C4    C     C_R   0.495445 0.502239 0.611278 0.964671
Zn1   Zn    Zn3+2 0.500000 0.653120 0.500000 0.932967
Zn2   Zn    Zn3+2 0.500000 0.346880 0.500000 0.944895
C5    C     C_R   0.568481 0.638789 0.873578 0.576051
C6    C     C_R   0.426711 0.609936 0.128534 0.566724
N1    N     N_R   0.452640 0.612251 0.852215 -0.314690
N2    N     N_R   0.541122 0.570933 0.147992 -0.320383
C7    C     C_R   0.351714 0.615697 0.887390 0.597277
C8    C     C_R   0.641255 0.569428 0.112320 0.592226
C9    C     C_R   0.367584 0.634208 0.947653 -0.197272
C10   C     C_R   0.626837 0.605262 0.053988 -0.201427
C11   C     C_R   0.488698 0.628251 0.970807 -0.132170
C12   C     C_R   0.506364 0.617658 0.031079 -0.132557
C13   C     C_R   0.591852 0.631986 0.933602 -0.202357
C14   C     C_R   0.403888 0.619891 0.068587 -0.189979
C15   C     C_R   0.266290 0.651446 0.985411 0.384607
C16   C     C_R   0.729216 0.629190 0.018210 0.407051
C17   C     C_R   0.282843 0.632561 0.045187 0.405839
C18   C     C_R   0.713522 0.627845 0.957589 0.404951
O9    O     O_2   0.659705 0.667667 0.836410 -0.550319
O10   O     O_2   0.336064 0.636733 0.167257 -0.536993
O11   O     O_2   0.237900 0.595361 0.864391 -0.563748
O12   O     O_2   0.753372 0.531536 0.132938 -0.555841
C19   C     C_R   0.614653 0.621132 0.246504 0.508178
C20   C     C_R   0.390934 0.659331 0.752615 0.504828
C21   C     C_R   0.598517 0.604498 0.305782 -0.432963
C22   C     C_R   0.407380 0.631044 0.693594 -0.436944
H1    H     H_    0.636864 0.679432 0.336018 0.194129
H2    H     H_    0.377942 0.706625 0.662927 0.198710
C23   C     C_R   0.528731 0.497226 0.326425 -0.237791
C24   C     C_R   0.469258 0.512946 0.673714 -0.232041
C25   C     C_R   0.483441 0.395714 0.287627 0.430098
C26   C     C_R   0.507453 0.414013 0.713302 0.431919
C27   C     C_R   0.493362 0.414945 0.227267 0.065536
C28   C     C_R   0.492880 0.441794 0.773447 0.059791
C29   C     C_R   0.554263 0.532144 0.207297 0.157499
C30   C     C_R   0.440768 0.568608 0.792551 0.162221
C31   C     C_R   0.064801 0.376661 0.503307 -0.187941
C32   C     C_R   0.935176 0.623305 0.496098 -0.193585
C33   C     C_R   0.937554 0.376221 0.503175 -0.193364
C34   C     C_R   0.062432 0.623751 0.496262 -0.199914
H3    H     H_    0.113870 0.280341 0.506203 0.146471
H4    H     H_    0.886097 0.719610 0.493155 0.147849
H5    H     H_    0.890333 0.279820 0.506016 0.148349
H6    H     H_    0.109659 0.720148 0.493428 0.148800
C35   C     C_R   0.872770 0.499539 0.499659 -0.010005
C36   C     C_R   0.127215 0.500450 0.499903 -0.009454
C37   C     C_R   0.601180 0.069781 0.481645 -0.106396
C38   C     C_R   0.398421 0.930203 0.517849 -0.078039
C39   C     C_R   0.398679 0.074117 0.518177 -0.087165
C40   C     C_R   0.601425 0.925899 0.481950 -0.079810
H7    H     H_    0.681861 0.122370 0.466662 0.124155
H8    H     H_    0.317507 0.877601 0.532566 0.119808
H9    H     H_    0.317974 0.130146 0.533190 0.121696
H10   H     H_    0.682257 0.869873 0.467074 0.122094
N3    N     N_R   0.500000 0.857200 0.500000 -0.069966
N4    N     N_R   0.500000 0.142800 0.500000 -0.079566
O13   O     O_3   0.150857 0.690055 0.964703 -0.570012
C41   C     C_3   0.152633 0.832439 0.956105 0.145124
H11   H     H_    0.218794 0.858635 0.921359 0.146368
H12   H     H_    0.181637 0.888179 0.996754 0.077671
C42   C     C_3   0.022965 0.883460 0.939762 -0.346947
H13   H     H_    0.953281 0.829908 0.965168 0.281797
H14   H     H_    0.014991 0.994120 0.950622 0.155476
C43   C     C_3   0.994027 0.860763 0.875456 -0.733490
H15   H     H_    0.054677 0.925919 0.849711 0.220996
H16   H     H_    0.896202 0.889688 0.866511 0.260272
H17   H     H_    0.008203 0.752119 0.862409 0.306722
O14   O     O_3   0.843777 0.661581 0.042052 -0.596303
C44   C     C_3   0.834937 0.792730 0.069282 0.091241
H18   H     H_    0.763877 0.796784 0.103951 0.170476
H19   H     H_    0.809691 0.870696 0.036851 0.106678
C45   C     C_3   0.958437 0.830235 0.097727 -0.252623
H20   H     H_    0.985262 0.752277 0.129618 0.259178
H21   H     H_    0.030840 0.833021 0.064237 0.257327
C46   C     C_3   0.950770 0.969467 0.128381 -1.027311
H22   H     H_    0.918433 0.046724 0.097387 0.275824
H23   H     H_    0.043372 0.998432 0.145725 0.286028
H24   H     H_    0.884539 0.967698 0.164794 0.276919
O15   O     O_3   0.179075 0.629011 0.079915 -0.613874
C47   C     C_3   0.156525 0.493426 0.096474 0.175808
H25   H     H_    0.099771 0.498704 0.136493 0.188988
H26   H     H_    0.242188 0.435523 0.107401 0.122136
C48   C     C_3   0.085146 0.415122 0.049251 -0.366802
H27   H     H_    0.999442 0.472636 0.039415 0.298415
H28   H     H_    0.142305 0.404743 0.009516 0.215134
C49   C     C_3   0.051436 0.273465 0.068694 -0.992478
H29   H     H_    0.136317 0.214123 0.079377 0.268735
H30   H     H_    0.000891 0.218861 0.033055 0.266208
H31   H     H_    0.991078 0.281207 0.107467 0.292767
O16   O     O_3   0.818342 0.628642 0.923236 -0.599892
C50   C     C_3   0.833271 0.502274 0.892371 0.181290
H32   H     H_    0.865329 0.524831 0.847963 0.198059
H33   H     H_    0.746651 0.442347 0.887241 0.108571
C51   C     C_3   0.930856 0.413863 0.921532 -0.379353
H34   H     H_    0.015550 0.474799 0.929591 0.295146
H35   H     H_    0.893260 0.379328 0.963241 0.217682
C52   C     C_3   0.964190 0.288689 0.883926 -0.956895
H36   H     H_    0.881240 0.224561 0.875978 0.264991
H37   H     H_    0.035680 0.227333 0.906583 0.267319
H38   H     H_    0.002139 0.319792 0.841665 0.280261
O17   O     O_3   0.672528 0.735639 0.226016 -0.649029
C53   C     C_3   0.794478 0.748297 0.248810 0.119518
H39   H     H_    0.858560 0.749191 0.211597 0.184733
H40   H     H_    0.826302 0.662093 0.276052 0.127718
C54   C     C_3   0.806356 0.882838 0.283478 -0.393375
H41   H     H_    0.773782 0.968421 0.256508 0.231080
H42   H     H_    0.747520 0.880697 0.322645 0.210255
C55   C     C_3   0.940017 0.908081 0.302628 -0.946707
H43   H     H_    0.973175 0.825222 0.330930 0.267342
H44   H     H_    0.945453 0.006290 0.327522 0.262858
H45   H     H_    0.001130 0.913224 0.264226 0.278949
O18   O     O_3   0.349217 0.786517 0.771976 -0.637937
C56   C     C_3   0.227716 0.813818 0.751368 0.100254
H46   H     H_    0.160464 0.774671 0.782786 0.184610
H47   H     H_    0.205293 0.765622 0.708307 0.122633
C57   C     C_3   0.210662 0.967863 0.746604 -0.362612
H48   H     H_    0.221934 0.017644 0.790229 0.225469
H49   H     H_    0.283006 0.007706 0.717783 0.219270
C58   C     C_3   0.083691 0.004535 0.721521 -0.970244
H50   H     H_    0.074165 0.962353 0.676464 0.262858
H51   H     H_    0.073358 0.117034 0.720522 0.269740
H52   H     H_    0.008717 0.963611 0.748499 0.273591
O19   O     O_3   0.409599 0.293223 0.307948 -0.622854
C59   C     C_3   0.481848 0.174221 0.315786 0.099528
H53   H     H_    0.554411 0.191091 0.349741 0.146381
H54   H     H_    0.528924 0.140828 0.275089 0.128697
C60   C     C_3   0.396446 0.060733 0.334782 -0.316462
H55   H     H_    0.361129 0.085840 0.379029 0.229351
H56   H     H_    0.316024 0.053049 0.304420 0.237197
C61   C     C_3   0.463190 0.923385 0.335214 -0.915075
H57   H     H_    0.492723 0.893231 0.290593 0.292143
H58   H     H_    0.399894 0.844602 0.351258 0.284590
H59   H     H_    0.545614 0.928775 0.364143 0.248288
O20   O     O_3   0.583032 0.307489 0.694447 -0.625263
C62   C     C_3   0.512194 0.188876 0.684769 0.099140
H60   H     H_    0.431788 0.207456 0.655273 0.133141
H61   H     H_    0.476878 0.150843 0.726277 0.141047
C63   C     C_3   0.595690 0.079200 0.657046 -0.314772
H62   H     H_    0.616446 0.106669 0.611711 0.233260
H63   H     H_    0.684665 0.073608 0.681585 0.236657
C64   C     C_3   0.535358 0.939703 0.657101 -0.922380
H64   H     H_    0.527378 0.904966 0.702376 0.297673
H65   H     H_    0.593152 0.865010 0.632161 0.284090
H66   H     H_    0.441704 0.944114 0.637034 0.248022
C65   C     C_3   0.432290 0.314932 0.185100 -0.823244
H67   H     H_    0.331401 0.311331 0.193663 0.259093
H68   H     H_    0.445595 0.340712 0.139076 0.209851
H69   H     H_    0.472606 0.211781 0.189506 0.226781
C66   C     C_3   0.538547 0.338695 0.816579 -0.851773
H70   H     H_    0.637161 0.312523 0.808318 0.261829
H71   H     H_    0.530104 0.374390 0.862366 0.213593
H72   H     H_    0.482024 0.245435 0.812975 0.225282

loop_
_geom_bond_atom_site_label_1
_geom_bond_atom_site_label_2
_geom_bond_distance
_ccdc_geom_bond_type
C46   H22   1.107709 S    
C65   H67   1.110255 S    
C15   C17   1.403528 A    
C42   H14   1.111393 S    
C42   H13   1.103492 S    
C48   H27   1.104813 S    
C2    C35   1.430736 S    
C43   H17   1.110311 S    
C58   H52   1.110042 S    
C19   C29   1.400677 A    
C57   H48   1.111480 S    
C66   H72   1.106447 S    
C66   H70   1.110264 S    
C48   C49   1.521583 S    
O19   C59   1.413984 S    
O5    C3    1.291325 A    
C32   H4    1.083358 S    
C1    C36   1.430770 S    
O1    C1    1.285461 A    
C20   O18   1.387503 S    
C43   H16   1.110472 S    
C22   C24   1.401396 A    
O13   C41   1.418071 S    
C52   H37   1.110217 S    
C60   C61   1.523780 S    
C5    C13   1.406114 A    
C51   H34   1.109400 S    
O7    Zn1   1.977243 S    
C4    C24   1.468634 S    
C44   H19   1.114387 S    
C62   H60   1.114423 S    
C38   N3    1.365370 A    
C26   C28   1.414270 A    
C31   C33   1.374458 A    
C63   C64   1.522808 S    
C56   C57   1.529234 S    
C26   O20   1.383944 S    
C11   C12   1.405814 A    
C45   C46   1.523773 S    
C19   O17   1.387711 S    
C41   H11   1.114520 S    
C33   C35   1.396961 A    
C64   H65   1.110298 S    
N2    C8    1.363814 A    
O3    Zn1   2.011410 S    
C55   H45   1.110849 S    
N1    C30   1.433108 S    
C8    O12   1.349468 S    
O3    C2    1.281673 A    
C9    C15   1.409830 A    
C65   H68   1.107272 S    
C10   C16   1.410296 A    
N2    C29   1.433192 S    
C21   C23   1.397481 A    
C23   C25   1.408772 A    
C61   H59   1.107879 S    
O2    C2    1.285509 A    
C24   C26   1.406814 A    
C59   C60   1.529060 S    
O2    Zn2   2.018439 S    
C66   H71   1.106373 S    
C55   H44   1.110415 S    
C44   H18   1.112184 S    
C20   C30   1.398527 A    
C27   C29   1.420493 A    
C6    C14   1.405939 A    
C28   C30   1.422442 A    
C62   H61   1.107891 S    
C40   H10   1.081012 S    
C62   C63   1.528458 S    
C27   C65   1.513908 S    
C45   H20   1.109940 S    
C59   H54   1.110530 S    
C7    O11   1.348599 S    
C52   H38   1.110923 S    
O15   C47   1.418997 S    
O14   C44   1.420064 S    
C28   C66   1.513760 S    
C47   C48   1.522865 S    
C31   C36   1.400207 A    
C57   H49   1.110653 S    
C38   C39   1.413362 A    
C63   H63   1.112089 S    
C37   N4    1.365481 A    
C32   C34   1.374550 A    
O5    Zn1   1.957162 S    
O6    C4    1.296472 A    
C18   O16   1.387297 S    
C41   C42   1.530275 S    
C47   H26   1.111954 S    
C50   H33   1.113742 S    
C43   H15   1.107133 S    
C64   H66   1.109259 S    
C25   O19   1.384205 S    
C25   C27   1.412987 A    
O20   C62   1.411395 S    
C34   C36   1.397039 A    
C40   N3    1.365918 A    
C8    C10   1.404752 A    
C65   H69   1.105809 S    
C49   H30   1.110302 S    
C9    C11   1.409473 A    
O8    Zn2   1.977245 S    
C56   H46   1.108555 S    
C42   C43   1.521598 S    
C10   C12   1.405142 A    
C54   C55   1.526276 S    
O1    Zn1   2.018440 S    
C58   H50   1.111022 S    
C57   C58   1.527014 S    
C17   O15   1.384052 S    
C44   C45   1.524653 S    
C55   H43   1.111010 S    
O17   C53   1.418804 S    
Zn1   N3    2.004464 S    
C13   C18   1.421574 A    
C5    N1    1.365124 A    
C37   C40   1.413391 A    
O6    Zn2   1.957160 S    
C19   C21   1.391913 A    
C61   H57   1.110413 S    
C32   C35   1.400272 A    
C12   C14   1.409839 A    
C59   H53   1.112398 S    
C58   H51   1.110372 S    
C15   O13   1.384139 S    
C53   H40   1.117128 S    
C60   H55   1.111855 S    
C48   H28   1.110336 S    
C5    O9    1.348224 S    
C6    O10   1.349579 S    
C49   H31   1.110861 S    
C37   H7    1.081180 S    
C38   H8    1.081234 S    
C54   H42   1.108832 S    
C21   H1    1.082032 S    
C52   H36   1.111051 S    
C20   C22   1.392472 A    
C22   H2    1.082021 S    
C60   H56   1.111952 S    
C39   N4    1.365883 A    
C51   H35   1.108993 S    
C31   H3    1.083355 S    
C16   C18   1.404413 A    
C47   H25   1.111244 S    
N1    C7    1.363669 A    
C3    C23   1.463275 S    
C50   C51   1.522310 S    
C33   H5    1.083539 S    
C53   H39   1.106724 S    
C11   C13   1.413038 A    
O4    Zn2   2.011411 S    
O16   C50   1.422030 S    
C16   O14   1.385447 S    
O7    C4    1.288805 A    
C53   C54   1.531079 S    
O8    C3    1.291530 A    
C39   H9    1.080905 S    
O4    C1    1.281741 A    
C14   C17   1.415276 A    
C6    N2    1.365642 A    
C49   H29   1.111032 S    
C46   H24   1.107780 S    
C50   H32   1.111299 S    
C56   H47   1.112836 S    
C46   H23   1.110343 S    
Zn2   N4    2.004464 S    
C63   H62   1.110683 S    
C45   H21   1.104371 S    
C41   H12   1.115456 S    
C64   H64   1.110110 S    
C54   H41   1.111232 S    
C61   H58   1.110310 S    
C34   H6    1.083526 S    
O18   C56   1.417152 S    
C7    C9    1.403869 A    
C51   C52   1.526676 S    
