data_mof_unit_17512.cif
_audit_creation_date              2012-12-11T15:33:38-0500
_audit_creation_method            fapswitch 2.2
_symmetry_space_group_name_H-M    P1
_symmetry_Int_Tables_number       1
_space_group_crystal_system       triclinic
_cell_length_a                    27.26767
_cell_length_b                    7.182603
_cell_length_c                    22.733187
_cell_angle_alpha                 90.642286
_cell_angle_beta                  100.657598
_cell_angle_gamma                 90.47623
_cell_volume                      4375.03667828

loop_
_atom_site_label
_atom_site_type_symbol
_atom_type_description
_atom_site_fract_x
_atom_site_fract_y
_atom_site_fract_z
_atom_type_partial_charge
O1    O     O_R   0.207310 0.594030 0.676830 -0.528290
O2    O     O_R   0.792690 0.405970 0.323170 -0.538346
O3    O     O_R   0.292690 0.094030 0.823170 -0.534667
O4    O     O_R   0.707310 0.905970 0.176830 -0.534482
O5    O     O_R   0.197320 0.262370 0.795700 -0.541035
O6    O     O_R   0.802680 0.737630 0.204300 -0.541648
O7    O     O_R   0.302680 0.762370 0.704300 -0.540044
O8    O     O_R   0.697320 0.237630 0.295700 -0.539197
C1    C     C_R   0.184879 0.432469 0.812279 0.666180
C2    C     C_R   0.814697 0.567665 0.187159 0.690497
C3    C     C_R   0.315235 0.932479 0.687927 0.686714
C4    C     C_R   0.684753 0.067520 0.312059 0.690351
O9    O     O_R   0.201410 0.264250 0.675590 -0.536060
O10   O     O_R   0.798590 0.735750 0.324410 -0.535972
O11   O     O_R   0.298590 0.764250 0.824410 -0.540725
O12   O     O_R   0.701410 0.235750 0.175590 -0.540293
O13   O     O_R   0.296810 0.094940 0.702210 -0.540039
O14   O     O_R   0.703190 0.905060 0.297790 -0.538825
O15   O     O_R   0.203190 0.594940 0.797790 -0.536566
O16   O     O_R   0.796810 0.405060 0.202210 -0.538933
C5    C     C_R   0.189381 0.431145 0.653707 0.711075
C6    C     C_R   0.810788 0.568267 0.345999 0.724549
C7    C     C_R   0.310336 0.934456 0.846149 0.722684
C8    C     C_R   0.689666 0.065544 0.153848 0.725113
O17   O     O_3   0.281300 0.427390 0.758870 -0.377102
O18   O     O_3   0.718700 0.572610 0.241130 -0.376191
O19   O     O_3   0.218700 0.927390 0.741130 -0.366205
O20   O     O_3   0.781300 0.072610 0.258870 -0.378374
V1    V     V_3+5 0.244190 0.152150 0.748350 1.409790
V2    V     V_3+5 0.755810 0.847850 0.251650 1.399461
V3    V     V_3+5 0.255810 0.652150 0.751650 1.407407
V4    V     V_3+5 0.744190 0.347850 0.248350 1.391174
C9    C     C_R   0.654262 0.048287 0.096347 -0.115155
C10   C     C_R   0.345747 0.951715 0.903645 -0.114756
C11   C     C_R   0.846678 0.563412 0.403485 -0.112690
C12   C     C_R   0.153433 0.426420 0.596034 -0.119302
C13   C     C_R   0.642201 0.918662 0.995643 0.300682
C14   C     C_R   0.357819 0.081316 0.004353 0.300555
C15   C     C_R   0.860818 0.625987 0.510446 0.297068
C16   C     C_R   0.132684 0.273223 0.498640 0.289241
C17   C     C_R   0.673546 0.983171 0.047420 -0.250608
C18   C     C_R   0.326469 0.016794 0.952580 -0.250164
C19   C     C_R   0.828817 0.610730 0.455134 -0.256142
C20   C     C_R   0.166244 0.312775 0.551218 -0.245469
C21   C     C_R   0.601855 0.065062 0.092140 -0.063216
C22   C     C_R   0.398155 0.934978 0.907839 -0.063333
C23   C     C_R   0.898200 0.526005 0.406890 -0.064007
C24   C     C_R   0.105355 0.508608 0.587516 -0.084967
C25   C     C_R   0.568871 0.016777 0.036740 -0.009681
C26   C     C_R   0.431144 0.983275 0.963233 -0.009716
C27   C     C_R   0.931063 0.520482 0.464493 -0.012778
C28   C     C_R   0.067866 0.451070 0.536803 -0.028399
C29   C     C_R   0.589976 0.924474 0.991763 0.086221
C30   C     C_R   0.410042 0.075559 0.008217 0.086192
C31   C     C_R   0.911729 0.579700 0.515606 0.087794
C32   C     C_R   0.083377 0.339344 0.491422 0.089584
C33   C     C_R   0.515606 0.045822 0.024899 0.074386
C34   C     C_R   0.484411 0.954252 0.975067 0.074429
C35   C     C_R   0.982332 0.459718 0.473772 0.079137
C36   C     C_R   0.015388 0.494588 0.529684 0.073249
C37   C     C_R   0.507371 0.830459 0.940593 -0.195346
C38   C     C_R   0.492647 0.169631 0.059369 -0.195384
C39   C     C_R   0.993516 0.547558 0.578557 -0.202729
C40   C     C_R   0.999987 0.345628 0.431854 -0.196438
C41   C     C_R   0.558736 0.826384 0.945804 -0.184889
C42   C     C_R   0.441283 0.173684 0.054166 -0.184819
C43   C     C_R   0.943142 0.587233 0.571833 -0.180909
C44   C     C_R   0.049077 0.289531 0.439905 -0.184886
H1    H     H_    0.574014 0.737312 0.915059 0.168910
H2    H     H_    0.426005 0.262758 0.084911 0.168905
H3    H     H_    0.928819 0.622869 0.611831 0.170185
H4    H     H_    0.059632 0.202070 0.405299 0.168062
H5    H     H_    0.286396 0.028558 0.949012 0.115284
H6    H     H_    0.713620 0.971369 0.050999 0.114843
H7    H     H_    0.203097 0.251885 0.557437 0.126799
H8    H     H_    0.789721 0.644364 0.451986 0.118049
H9    H     H_    0.486369 0.732660 0.909482 0.148541
H10   H     H_    0.513650 0.267449 0.090472 0.148488
H11   H     H_    0.013707 0.544010 0.623833 0.142565
H12   H     H_    0.975497 0.282789 0.394471 0.146774
C45   C     C_R   0.624204 0.883189 0.360308 -0.158627
C46   C     C_R   0.375753 0.116830 0.639639 -0.158990
C47   C     C_R   0.861318 0.386241 0.120004 -0.172782
C48   C     C_R   0.137067 0.614183 0.878010 -0.173535
H13   H     H_    0.634808 0.756861 0.339638 0.121585
H14   H     H_    0.365138 0.243168 0.660294 0.121334
H15   H     H_    0.841051 0.261149 0.127569 0.122846
H16   H     H_    0.158047 0.738605 0.871565 0.123318
C49   C     C_R   0.588160 0.870259 0.396698 -0.153518
C50   C     C_R   0.411796 0.129762 0.603248 -0.153256
C51   C     C_R   0.897137 0.373237 0.083337 -0.152627
C52   C     C_R   0.100690 0.627448 0.913901 -0.145055
H17   H     H_    0.572456 0.734578 0.403007 0.133398
H18   H     H_    0.427487 0.265452 0.596922 0.133434
H19   H     H_    0.903247 0.238843 0.064028 0.137991
H20   H     H_    0.094800 0.761458 0.933611 0.136510
C53   C     C_R   0.572733 0.029583 0.424575 0.017275
C54   C     C_R   0.427238 0.970427 0.575392 0.017056
C55   C     C_R   0.924734 0.530747 0.071975 0.015192
C56   C     C_R   0.072481 0.470480 0.924283 0.022461
C57   C     C_R   0.594263 0.202740 0.414638 -0.153949
C58   C     C_R   0.405723 0.797259 0.585348 -0.153624
C59   C     C_R   0.915196 0.702273 0.098147 -0.150832
C60   C     C_R   0.081792 0.299432 0.897638 -0.135648
H21   H     H_    0.583299 0.328693 0.435169 0.141675
H22   H     H_    0.416699 0.671297 0.564834 0.141766
H23   H     H_    0.935607 0.826806 0.090409 0.140023
H24   H     H_    0.060912 0.175309 0.904627 0.139128
C61   C     C_R   0.630365 0.215816 0.378085 -0.168225
C62   C     C_R   0.369623 0.784182 0.621904 -0.167618
C63   C     C_R   0.879373 0.715282 0.135082 -0.157751
C64   C     C_R   0.118179 0.286228 0.861448 -0.173478
H25   H     H_    0.646145 0.351277 0.371656 0.119588
H26   H     H_    0.353859 0.648710 0.628353 0.119563
H27   H     H_    0.873461 0.849186 0.154850 0.119305
H28   H     H_    0.124122 0.152525 0.841560 0.118070
C65   C     C_R   0.645930 0.056036 0.350452 -0.026592
C66   C     C_R   0.354046 0.943969 0.649521 -0.026683
C67   C     C_R   0.852188 0.556943 0.146958 -0.029416
C68   C     C_R   0.146212 0.443810 0.850898 -0.046321
N1    N     N_R   0.519481 0.167562 0.490971 -0.283183
N2    N     N_R   0.480492 0.832446 0.508997 -0.283117
N3    N     N_R   0.990175 0.666562 0.022109 -0.282888
N4    N     N_R   0.006848 0.334668 0.973898 -0.281925
N5    N     N_R   0.485602 0.153472 0.526234 -0.288344
N6    N     N_R   0.514371 0.846536 0.473734 -0.288353
N7    N     N_R   0.024646 0.652194 0.987651 -0.287190
N8    N     N_R   0.972379 0.349033 0.008367 -0.286873
C69   C     C_R   0.465313 0.985619 0.536104 0.511323
C70   C     C_R   0.534660 0.014390 0.463864 0.511232
C71   C     C_R   0.033810 0.485967 0.962739 0.511975
C72   C     C_R   0.963223 0.515272 0.033283 0.511856
C73   C     C_R   0.417119 0.904869 0.851287 0.063307
C74   C     C_R   0.443615 0.047718 0.828718 -0.119887
C75   C     C_R   0.463810 0.016907 0.777285 -0.125728
C76   C     C_R   0.457713 0.843715 0.748096 -0.081507
C77   C     C_R   0.430517 0.702100 0.769523 -0.131007
C78   C     C_R   0.410032 0.732493 0.820773 -0.136572
H29   H     H_    0.449102 0.181778 0.851406 0.111167
H30   H     H_    0.484438 0.126949 0.760238 0.114837
H31   H     H_    0.473717 0.819769 0.708554 0.125514
H32   H     H_    0.425542 0.568453 0.746597 0.107681
H33   H     H_    0.390107 0.620212 0.837784 0.124019
C79   C     C_R   0.582883 0.095197 0.148685 0.063246
C80   C     C_R   0.589968 0.267582 0.179194 -0.136123
C81   C     C_R   0.569477 0.297996 0.230439 -0.130790
C82   C     C_R   0.542276 0.156397 0.251865 -0.081712
C83   C     C_R   0.536179 0.983197 0.222681 -0.125761
C84   C     C_R   0.556381 0.952364 0.171253 -0.119695
H34   H     H_    0.609898 0.379851 0.162184 0.124361
H35   H     H_    0.574451 0.431650 0.253361 0.107888
H36   H     H_    0.526267 0.180358 0.291404 0.125611
H37   H     H_    0.515547 0.873167 0.239727 0.114874
H38   H     H_    0.550893 0.818298 0.148568 0.111189
C85   C     C_R   0.097904 0.670335 0.626285 0.088201
C86   C     C_R   0.087668 0.846238 0.600691 -0.105000
C87   C     C_R   0.080823 0.999862 0.636462 -0.108941
C88   C     C_R   0.083903 0.979325 0.698027 -0.093120
C89   C     C_R   0.093321 0.804558 0.723820 -0.088009
C90   C     C_R   0.100322 0.650362 0.688249 -0.108263
H39   H     H_    0.084757 0.864035 0.553047 0.111350
H40   H     H_    0.072850 0.134598 0.616423 0.119124
H41   H     H_    0.078569 0.098504 0.725641 0.095417
H42   H     H_    0.094861 0.788668 0.771324 0.106964
H43   H     H_    0.106779 0.515156 0.708652 0.071448
C91   C     C_R   0.917675 0.523220 0.350059 0.068235
C92   C     C_R   0.950153 0.665317 0.338429 -0.109962
C93   C     C_R   0.971685 0.656021 0.287251 -0.128463
C94   C     C_R   0.961444 0.504007 0.247847 -0.075868
C95   C     C_R   0.928788 0.363034 0.258837 -0.127708
C96   C     C_R   0.906151 0.374041 0.309082 -0.160722
H44   H     H_    0.959302 0.781489 0.369435 0.108562
H45   H     H_    0.996846 0.765391 0.278569 0.114266
H46   H     H_    0.978703 0.495622 0.208701 0.124622
H47   H     H_    0.921130 0.244750 0.228520 0.116711
H48   H     H_    0.881823 0.261780 0.317742 0.132752
N9    N     N_2   0.663623 0.841441 0.948302 -0.532700
H49   H     H_    0.698288 0.783515 0.962131 0.259236
C97   C     C_3   0.662820 0.964322 0.898147 -0.552087
H50   H     H_    0.686370 0.089785 0.912336 0.199069
H51   H     H_    0.624090 0.007883 0.879660 0.207939
H52   H     H_    0.677751 0.890448 0.862181 0.202906
N10   N     N_2   0.336403 0.158485 0.051706 -0.532654
H53   H     H_    0.301729 0.216355 0.037891 0.259155
C98   C     C_3   0.337237 0.035592 0.101864 -0.552671
H54   H     H_    0.313704 0.910082 0.087683 0.198912
H55   H     H_    0.322305 0.109421 0.137837 0.202770
H56   H     H_    0.375976 0.992107 0.120339 0.208095
N11   N     N_2   0.841278 0.688515 0.561063 -0.532714
H57   H     H_    0.805140 0.644180 0.560779 0.259546
C99   C     C_3   0.847352 0.886620 0.572752 -0.550165
H58   H     H_    0.825390 0.965706 0.535241 0.197004
H59   H     H_    0.887296 0.928416 0.578496 0.208209
H60   H     H_    0.833850 0.922553 0.614596 0.204368
N12   N     N_2   0.148797 0.162223 0.453575 -0.528583
H61   H     H_    0.184942 0.191531 0.448745 0.260418
C100  C     C_3   0.140441 0.964280 0.458636 -0.566921
H62   H     H_    0.161824 0.912452 0.501669 0.198335
H63   H     H_    0.153060 0.889311 0.421224 0.207314
H64   H     H_    0.100117 0.933363 0.455840 0.199045

loop_
_geom_bond_atom_site_label_1
_geom_bond_atom_site_label_2
_ccdc_geom_bond_type
O17   V3    S    
C55   C59   A    
C77   H32   S    
O1    C5    A    
C87   C88   A    
N3    C72   A    
O19   V1    S    
C9    C21   A    
C94   C95   A    
O3    C7    A    
C82   C83   A    
C10   C18   A    
C60   H24   S    
N1    C70   A    
N10   H53   S    
C11   C23   A    
C62   C66   A    
C80   C81   A    
C98   H54   S    
C56   C71   S    
C61   C65   A    
C33   C38   A    
C5    C12   S    
C39   H11   S    
C100  H64   S    
O7    C3    A    
C6    C11   S    
C35   C40   A    
C26   C30   A    
C55   C72   S    
C36   C39   A    
C40   C44   A    
O2    V4    S    
C63   C67   A    
C86   C87   A    
C53   C70   S    
C14   C18   A    
C78   H33   S    
N10   C98   S    
C15   N11   S    
C25   C29   A    
C98   H55   S    
C95   C96   A    
N6    C70   A    
C57   C61   A    
C45   C65   A    
O1    V3    S    
O13   V1    S    
C59   C63   A    
C47   C67   A    
O3    V1    S    
C2    C67   S    
C28   C36   A    
C17   H6    S    
C1    O15   A    
C56   C60   A    
C15   C31   A    
C37   H9    S    
C16   C32   A    
O2    C6    A    
C21   C79   S    
C94   H46   S    
C58   H22   S    
C10   C22   A    
C100  H62   S    
C11   C19   A    
C62   H26   S    
N2    C69   A    
C27   C31   A    
C80   H34   S    
O8    C4    A    
N4    N8    A    
C97   H52   S    
C13   C29   A    
C34   C37   A    
O11   C7    A    
C77   C78   A    
O15   V3    S    
C35   C36   A    
O12   C8    A    
C13   C17   A    
C40   H12   S    
C75   H30   S    
C74   H29   S    
O10   V2    S    
N8    C72   A    
C45   H13   S    
C50   H18   S    
O5    V1    S    
C95   H47   S    
C52   H20   S    
C57   H21   S    
C93   H45   S    
C39   C43   A    
O7    V3    S    
C38   C42   A    
C99   H58   S    
C26   C34   A    
C75   C76   A    
C83   C84   A    
C2    O16   A    
C92   C93   A    
C64   C68   A    
C23   C91   S    
O18   V4    S    
C76   C77   A    
C98   H56   S    
C23   C27   A    
N9    C97   S    
C32   C44   A    
O4    V2    S    
C14   N10   S    
C97   H50   S    
N4    C71   A    
C49   C53   A    
C44   H4    S    
O8    V4    S    
C88   C89   A    
N2    N6    A    
C20   H7    S    
C84   H38   S    
C99   H59   S    
O5    C1    A    
C79   C84   A    
C37   C41   A    
C81   H35   S    
N3    N7    A    
C89   C90   A    
C14   C30   A    
C21   C25   A    
C48   C68   A    
C7    C10   S    
O9    C5    A    
C90   H43   S    
C73   C78   A    
C74   C75   A    
C91   C96   A    
C88   H41   S    
O14   V2    S    
C93   C94   A    
O6    V2    S    
C24   C85   S    
C16   C20   A    
N1    N5    A    
C73   C74   A    
N12   C100  S    
C12   C20   A    
C27   C35   A    
C83   H37   S    
C46   C66   A    
C4    O14   A    
C64   H28   S    
C29   C41   A    
C52   C56   A    
C60   C64   A    
C81   C82   A    
O16   V4    S    
O9    V1    S    
C19   H8    S    
C3    O13   A    
C18   H5    S    
C85   C90   A    
C38   H10   S    
C48   H16   S    
C79   C80   A    
C47   H15   S    
C86   H39   S    
C25   C33   A    
C31   C43   A    
O11   V3    S    
C92   H44   S    
C30   C42   A    
C61   H25   S    
O12   V4    S    
C47   C51   A    
C96   H48   S    
C22   C26   A    
C8    C9    S    
C46   C50   A    
C9    C17   A    
O10   C6    A    
C100  H63   S    
C82   H36   S    
C99   H60   S    
C45   C49   A    
C54   C58   A    
C22   C73   S    
C46   H14   S    
C33   C34   A    
C91   C92   A    
O4    C8    A    
C41   H1    S    
C54   C69   S    
O20   V2    S    
C76   H31   S    
C12   C24   A    
C43   H3    S    
C49   H17   S    
N11   H57   S    
N7    C71   A    
C58   C62   A    
O6    C2    A    
C51   H19   S    
N12   H61   S    
N5    C69   A    
C24   C28   A    
C42   H2    S    
C15   C19   A    
C63   H27   S    
N9    H49   S    
C13   N9    S    
C85   C86   A    
C1    C68   S    
C89   H42   S    
C59   H23   S    
C4    C65   S    
C48   C52   A    
C51   C55   A    
C3    C66   S    
C87   H40   S    
C50   C54   A    
C53   C57   A    
C28   C32   A    
N11   C99   S    
C97   H51   S    
C16   N12   S    
