data_mof_unit_41068.cif
_audit_creation_date              2012-12-10T17:47:11-0500
_audit_creation_method            fapswitch 2.2
_symmetry_space_group_name_H-M    P1
_symmetry_Int_Tables_number       1
_space_group_crystal_system       triclinic
_cell_length_a                    11.707534
_cell_length_b                    14.75189
_cell_length_c                    14.595769
_cell_angle_alpha                 65.480931
_cell_angle_beta                  103.207505
_cell_angle_gamma                 102.697075
_cell_volume                      2210.48798387

loop_
_atom_site_label
_atom_site_type_symbol
_atom_type_description
_atom_site_fract_x
_atom_site_fract_y
_atom_site_fract_z
_atom_type_partial_charge
C1    C     C_R   0.482515 0.119241 0.311677 0.799077
C2    C     C_R   0.517363 0.880782 0.688294 0.799111
C3    C     C_R   0.488545 0.324660 0.001334 0.141971
C4    C     C_R   0.504697 0.675252 0.997636 0.141292
C5    C     C_R   0.491754 0.465823 0.050764 0.071332
C6    C     C_R   0.501512 0.534029 0.948342 0.071696
C7    C     C_R   0.501070 0.494158 0.875097 -0.200815
C8    C     C_R   0.489880 0.505633 0.123538 -0.199725
C9    C     C_R   0.495291 0.391809 0.901487 -0.192153
C10   C     C_R   0.495590 0.607993 0.097055 -0.191198
C11   C     C_R   0.691808 0.283285 0.672791 -0.320539
C12   C     C_R   0.307362 0.716386 0.327755 -0.321056
C13   C     C_R   0.664673 0.203774 0.640261 0.177739
C14   C     C_R   0.335058 0.796145 0.359934 0.177864
C15   C     C_R   0.516151 0.285322 0.509235 0.010457
C16   C     C_R   0.483602 0.714535 0.490892 0.010069
C17   C     C_R   0.542968 0.370974 0.536688 -0.018730
C18   C     C_R   0.456118 0.628605 0.463859 -0.018703
C19   C     C_R   0.630719 0.366907 0.622799 0.095342
C20   C     C_R   0.368098 0.632570 0.377943 0.095558
C21   C     C_R   0.485207 0.459177 0.482847 0.067669
C22   C     C_R   0.513524 0.540235 0.517918 0.067329
C23   C     C_R   0.284155 0.000266 0.500025 0.829301
C24   C     C_R   0.715845 0.999733 0.499978 0.829375
C25   C     C_R   0.597036 0.529892 0.606798 -0.270120
C26   C     C_R   0.401139 0.469273 0.394318 -0.269722
C27   C     C_R   0.655554 0.445895 0.657966 -0.014060
C28   C     C_R   0.342579 0.553251 0.343212 -0.014374
C29   C     C_1   0.162580 0.000619 0.500121 -0.157836
C30   C     C_1   0.837422 0.999378 0.499886 -0.157838
C31   C     C_1   0.060003 0.000310 0.500064 0.017899
C32   C     C_1   0.939999 0.999686 0.499945 0.017924
C33   C     C_R   0.478332 0.186101 0.202639 -0.097178
C34   C     C_R   0.520158 0.814004 0.797200 -0.096968
C35   C     C_R   0.485936 0.221843 0.025964 -0.215270
C36   C     C_R   0.508049 0.778165 0.972996 -0.215373
C37   C     C_R   0.482507 0.152460 0.125911 -0.024483
C38   C     C_R   0.513827 0.847641 0.873381 -0.025109
C39   C     C_R   0.476815 0.288677 0.176471 -0.244493
C40   C     C_R   0.521657 0.711407 0.823594 -0.243780
C41   C     C_R   0.485155 0.360241 0.076956 0.093207
C42   C     C_R   0.509641 0.639686 0.922405 0.093014
Cu1   Cu    Cu3+1 0.469550 0.918260 0.475690 0.967510
Cu2   Cu    Cu3+1 0.530450 0.081740 0.524310 0.967530
H1    H     H_    0.496456 0.365015 0.842875 0.152894
H2    H     H_    0.492703 0.634737 0.155289 0.152887
H3    H     H_    0.618413 0.586133 0.639446 0.130762
H4    H     H_    0.379086 0.412750 0.362026 0.130464
H5    H     H_    0.531863 0.689658 0.764558 0.148309
H6    H     H_    0.470205 0.310592 0.236383 0.149084
H7    H     H_    0.489351 0.195773 0.967278 0.152683
H8    H     H_    0.503269 0.804237 0.031331 0.152853
H9    H     H_    0.504266 0.539425 0.795748 0.138968
H10   H     H_    0.483782 0.460323 0.202397 0.138193
H11   H     H_    0.553640 0.720225 0.551179 0.127880
H12   H     H_    0.446469 0.279708 0.448700 0.127732
H13   H     H_    0.761028 0.279055 0.737448 0.157567
H14   H     H_    0.237947 0.720562 0.263239 0.157661
N1    N     N_R   0.576230 0.204580 0.560790 -0.199004
N2    N     N_R   0.423770 0.795420 0.439210 -0.198973
O1    O     O_R   0.459870 0.022090 0.338120 -0.573031
O2    O     O_R   0.540130 0.977910 0.661880 -0.573124
O3    O     O_R   0.511290 0.160150 0.379180 -0.592631
O4    O     O_R   0.488710 0.839850 0.620820 -0.592445
O5    O     O_R   0.311490 0.930960 0.479480 -0.572989
O6    O     O_R   0.688510 0.069040 0.520520 -0.572861
O7    O     O_R   0.362910 0.069020 0.520540 -0.576629
O8    O     O_R   0.637090 0.930980 0.479460 -0.576612
C43   C     C_1   0.508697 0.951556 0.852143 0.286380
N3    N     N_1   0.504347 0.034668 0.835559 -0.287346
C44   C     C_1   0.488025 0.048685 0.146870 0.286475
N4    N     N_1   0.492695 0.965691 0.163218 -0.287681
C45   C     C_1   0.739921 0.442494 0.748590 0.220646
N5    N     N_1   0.807153 0.439854 0.821085 -0.260680
C46   C     C_1   0.257402 0.556257 0.253115 0.218776
N6    N     N_1   0.189524 0.558581 0.181041 -0.260613
C47   C     C_1   0.268220 0.879213 0.306608 0.321601
N7    N     N_1   0.213747 0.945522 0.263164 -0.290676
C48   C     C_1   0.731672 0.120805 0.693514 0.321329
N8    N     N_1   0.786259 0.054567 0.736902 -0.290593

loop_
_geom_bond_atom_site_label_1
_geom_bond_atom_site_label_2
_ccdc_geom_bond_type
C21   C26   A    
C13   C48   S    
C9    H1    S    
C45   N5    T    
Cu2   O6    S    
C46   N6    T    
C4    C36   A    
C1    C33   S    
C39   C41   A    
C47   N7    T    
C11   C19   A    
C33   C39   A    
C34   C40   A    
C23   C29   S    
C35   C37   A    
C5    C6    A    
Cu2   N1    S    
C40   H5    S    
C7    C9    A    
C16   N2    A    
C14   C47   S    
C23   O7    A    
Cu1   O8    S    
C22   C25   A    
C10   H2    S    
C19   C27   A    
C25   H3    S    
C36   H8    S    
C24   O6    A    
C12   H14   S    
C2    C34   S    
C40   C42   A    
C38   C43   S    
C34   C38   A    
C21   C22   A    
C1    O3    A    
C2    O4    A    
Cu1   O4    S    
Cu2   O3    S    
C8    H10   S    
C20   C28   A    
Cu2   O2    S    
C33   C37   A    
Cu1   Cu2   S    
C3    C9    A    
C31   C32   S    
C3    C35   A    
Cu1   O5    S    
C12   C20   A    
Cu1   N2    S    
C16   C18   A    
C12   C14   A    
C37   C44   S    
C35   H7    S    
C7    H9    S    
C4    C10   A    
Cu1   O1    S    
C15   C17   A    
C5    C41   A    
C3    C41   A    
C18   C22   A    
C15   N1    A    
C1    O1    A    
C5    C8    A    
C6    C7    A    
C13   N1    A    
C26   H4    S    
C25   C27   A    
C14   N2    A    
C26   C28   A    
C15   H12   S    
C23   O5    A    
C36   C38   A    
C16   H11   S    
C44   N4    T    
C29   C31   T    
C27   C45   S    
C30   C32   T    
C11   C13   A    
C4    C42   A    
C17   C19   A    
C18   C20   A    
C43   N3    T    
C24   C30   S    
C24   O8    A    
C48   N8    T    
C39   H6    S    
C8    C10   A    
C6    C42   A    
Cu2   O7    S    
C11   H13   S    
C28   C46   S    
C2    O2    A    
C17   C21   A    
