data_mof_unit_56540.cif
_audit_creation_date              2013-03-05T15:52:19-0500
_audit_creation_method            fapswitch 2.2
_symmetry_space_group_name_H-M    P1
_symmetry_Int_Tables_number       1
_space_group_crystal_system       triclinic
_cell_length_a                    10.734441
_cell_length_b                    10.73892
_cell_length_c                    17.003752
_cell_angle_alpha                 80.369528
_cell_angle_beta                  99.510788
_cell_angle_gamma                 119.142088
_cell_volume                      1679.87423955

loop_
_atom_site_label
_atom_site_type_symbol
_atom_site_description
_atom_site_fract_x
_atom_site_fract_y
_atom_site_fract_z
_atom_type_partial_charge
O1    O     O_R   0.754020 0.497590 0.609930 -0.516576
O2    O     O_R   0.481420 0.271390 0.600630 -0.493167
C1    C     C_R   0.360963 0.228917 0.627293 0.549257
O3    O     O_R   0.263810 0.254550 0.589590 -0.498651
O4    O     O_R   0.300820 0.531200 0.560890 -0.471983
C2    C     C_R   0.370346 0.655108 0.586263 0.575109
O5    O     O_R   0.491480 0.744020 0.564270 -0.492279
O6    O     O_R   0.726290 0.693800 0.583010 -0.490430
C3    C     C_R   0.777432 0.619314 0.626640 0.545179
O7    O     O_R   0.747830 0.500190 0.434090 -0.498429
O8    O     O_R   0.475680 0.273800 0.437630 -0.469621
C4    C     C_R   0.348609 0.222079 0.401767 0.555526
O9    O     O_R   0.257620 0.257160 0.413750 -0.496283
O10   O     O_R   0.295080 0.533620 0.397890 -0.443713
C5    C     C_R   0.400998 0.627892 0.358294 0.532004
O11   O     O_R   0.485280 0.746620 0.388440 -0.434282
O12   O     O_R   0.720550 0.696220 0.420010 -0.464651
C6    C     C_R   0.774427 0.624128 0.400147 0.544190
Cr1   Cr    Cr6+3 0.608440 0.389080 0.519680 1.079753
Cr2   Cr    Cr6+3 0.288640 0.400090 0.490760 1.129846
Cr3   Cr    Cr6+3 0.602940 0.710800 0.489510 1.132717
O13   O     O_3   0.500010 0.499990 0.499980 -0.320375
C7    C     C_R   0.279141 0.743633 0.797343 0.017750
C8    C     C_R   0.170130 0.632862 0.754081 0.037643
C9    C     C_R   0.193554 0.607637 0.682556 -0.024872
C10   C     C_R   0.411602 0.829079 0.679769 -0.132680
C11   C     C_R   0.391550 0.851628 0.754410 -0.169222
C12   C     C_3   0.060299 0.479430 0.770392 0.152405
C13   C     C_3   0.095284 0.450888 0.693450 -0.223758
C14   C     C_R   0.320596 0.696912 0.647473 0.025274
H1    H     H_    0.506861 0.909130 0.652127 0.164087
H2    H     H_    0.470648 0.948023 0.781010 0.133174
H3    H     H_    0.951578 0.469958 0.765559 0.114651
H4    H     H_    0.153760 0.387000 0.704237 0.168436
H5    H     H_    0.003246 0.416061 0.646411 0.146256
C15   C     C_1   0.823323 0.657130 0.705869 -0.054960
C16   C     C_1   0.850749 0.684850 0.773720 -0.051135
C17   C     C_1   0.345002 0.187272 0.709699 -0.049486
C18   C     C_1   0.320555 0.159760 0.778192 -0.043005
C19   C     C_1   0.365896 0.644909 0.275259 -0.075610
C20   C     C_1   0.339231 0.661322 0.204878 -0.073483
C21   C     C_R   0.948174 0.720635 0.178993 -0.039783
C22   C     C_R   0.964936 0.621076 0.237391 -0.036380
C23   C     C_R   0.922544 0.601105 0.312497 0.021827
C24   C     C_R   0.868340 0.798900 0.279062 0.231311
C25   C     C_R   0.919251 0.821868 0.203601 -0.148540
C26   C     C_3   0.922415 0.466629 0.236556 -0.252525
C27   C     C_3   0.872087 0.442688 0.318900 0.102840
C28   C     C_R   0.861044 0.679392 0.332323 0.014077
H6    H     H_    0.922110 0.909889 0.161329 0.146732
H7    H     H_    0.017391 0.451503 0.236335 0.152774
H8    H     H_    0.832464 0.412639 0.190642 0.130369
H9    H     H_    0.754211 0.374885 0.320030 0.146752
C29   C     C_R   0.312844 0.136599 0.167888 -0.027824
C30   C     C_R   0.215947 0.166308 0.193230 0.001502
C31   C     C_R   0.212103 0.169015 0.272474 0.020715
C32   C     C_R   0.400360 0.100613 0.307486 0.162374
C33   C     C_R   0.398076 0.092277 0.225625 -0.158755
C34   C     C_3   0.192034 0.292192 0.165598 -0.280635
C35   C     C_3   0.184915 0.295476 0.252761 -0.244360
C36   C     C_R   0.313969 0.151634 0.329889 0.014389
H10   H     H_    0.460187 0.049221 0.207857 0.156175
H11   H     H_    0.089705 0.265721 0.127461 0.140802
H12   H     H_    0.287440 0.385769 0.140632 0.143810
H13   H     H_    0.276174 0.388989 0.277665 0.137140
H14   H     H_    0.078773 0.271036 0.268371 0.184057
O14   O     O_R   0.163320 0.092900 0.874450 -0.521725
O15   O     O_R   0.934650 0.822080 0.882840 -0.490595
C37   C     C_R   0.891519 0.701806 0.855972 0.554966
O16   O     O_R   0.915520 0.604140 0.893670 -0.533635
O17   O     O_R   0.191760 0.638110 0.923230 -0.441803
C38   C     C_R   0.281232 0.752036 0.882730 0.590027
O18   O     O_R   0.406180 0.826930 0.920660 -0.521446
O19   O     O_R   0.358620 0.062870 0.901950 -0.524686
C39   C     C_R   0.284419 0.114478 0.857853 0.559843
O20   O     O_R   0.163910 0.085460 0.050210 -0.524019
O21   O     O_R   0.935200 0.815170 0.045770 -0.508218
C40   C     C_R   0.960238 0.720963 0.094867 0.587765
O22   O     O_R   0.916120 0.596690 0.069430 -0.518737
O23   O     O_R   0.192310 0.631200 0.086170 -0.510710
C41   C     C_R   0.315128 0.698921 0.123020 0.555707
O24   O     O_R   0.406770 0.819480 0.096420 -0.530463
O25   O     O_R   0.359170 0.055960 0.064880 -0.517899
C42   C     C_R   0.284383 0.103459 0.086497 0.559859
Cr4   Cr    Cr6+3 0.052530 0.947560 0.964210 0.985052
Cr5   Cr    Cr6+3 0.059970 0.626800 0.992920 1.006034
Cr6   Cr    Cr6+3 0.373320 0.938440 0.995370 0.966228
O26   O     O_3   0.161940 0.837600 0.984160 -0.299692
N1    N     N_R   0.954612 0.396022 0.382511 0.099182
O27   O     O_R   0.941967 0.268743 0.384931 -0.316302
O28   O     O_R   0.019554 0.468898 0.444041 -0.302700
N2    N     N_R   0.491189 0.060818 0.365957 0.093081
O29   O     O_R   0.451571 0.003028 0.437172 -0.305872
O30   O     O_R   0.609010 0.072623 0.346666 -0.346942
O31   O     O_3   0.098938 0.410676 0.840972 -0.530711
C43   C     C_3   0.986065 0.270225 0.856253 0.016450
H15   H     H_    0.032230 0.208962 0.897675 0.200930
H16   H     H_    0.939218 0.213878 0.800830 0.123952
C44   C     C_3   0.869341 0.267514 0.899049 -0.285000
H17   H     H_    0.916969 0.312909 0.957432 0.171772
H18   H     H_    0.821090 0.331904 0.862768 0.174144
C45   C     C_3   0.749549 0.114437 0.913345 -0.465344
H19   H     H_    0.700971 0.068104 0.855412 0.151884
H20   H     H_    0.664855 0.114329 0.943055 0.170187
H21   H     H_    0.792223 0.046661 0.951800 0.147604
O32   O     O_3   0.821274 0.887457 0.300752 -0.520291
C46   C     C_3   0.725782 0.911967 0.239732 0.042268
H22   H     H_    0.632759 0.896820 0.267729 0.209818
H23   H     H_    0.679908 0.834352 0.193503 0.108757
C47   C     C_3   0.799661 0.067018 0.202025 -0.273422
H24   H     H_    0.805790 0.140334 0.243170 0.214389
H25   H     H_    0.909496 0.094866 0.192852 0.165080
C48   C     C_3   0.724893 0.089760 0.121029 -0.470581
H26   H     H_    0.712686 0.012290 0.080862 0.158687
H27   H     H_    0.789756 0.200374 0.093313 0.127193
H28   H     H_    0.618150 0.075546 0.127941 0.186483

loop_
_geom_bond_atom_site_label_1
_geom_bond_atom_site_label_2
_geom_bond_distance
_ccdc_geom_bond_type
C23   C28   1.401855 A    
C33   H10   1.078493 S    
O25   Cr6   1.938525 S    
Cr6   O26   1.972449 S    
O11   Cr3   2.057024 S    
C32   N2    1.437027 S    
C16   C37   1.409290 S    
O31   C43   1.415457 S    
C30   C31   1.360445 A    
O20   C42   1.274058 A    
C29   C42   1.433356 S    
C41   O24   1.248657 A    
O4    Cr2   1.937121 S    
O21   C40   1.304132 A    
O8    Cr1   1.926792 S    
C34   H12   1.112425 S    
C12   O31   1.412368 S    
C12   C13   1.534689 S    
C30   C34   1.483160 S    
C17   C18   1.192844 T    
O23   C41   1.266997 A    
Cr5   O26   1.967904 S    
O32   C46   1.420041 S    
C5    O11   1.284071 A    
C43   C44   1.535902 S    
C45   H21   1.110699 S    
C21   C25   1.406132 A    
C32   C36   1.409528 A    
C47   H24   1.110104 S    
O18   Cr6   2.059289 S    
O23   Cr5   1.936433 S    
O25   C42   1.264456 A    
C1    C17   1.409887 S    
O15   C37   1.279235 A    
C43   H16   1.115792 S    
C3    C15   1.411168 S    
C46   H22   1.105968 S    
C18   C39   1.411121 S    
O19   Cr6   1.935480 S    
N1    O28   1.301792 A    
C48   H28   1.103723 S    
O2    Cr1   1.926358 S    
O21   Cr4   1.924680 S    
C10   H1    1.083065 S    
Cr3   O13   1.967629 S    
O15   Cr4   1.927657 S    
C46   H23   1.116541 S    
C37   O16   1.249383 A    
O12   C6    1.279084 A    
C9    C13   1.487084 S    
C27   H9    1.112489 S    
O1    Cr1   2.046259 S    
O14   Cr4   2.043243 S    
O19   C39   1.263849 A    
C26   C27   1.520737 S    
O10   Cr2   1.933027 S    
Cr1   O13   1.993347 S    
O1    C3    1.278026 A    
C8    C9    1.376006 A    
C40   O22   1.304716 A    
O6    C3    1.259416 A    
C26   H7    1.108408 S    
O5    Cr3   2.060293 S    
C13   H4    1.112511 S    
O12   Cr3   1.939687 S    
C31   C35   1.497742 S    
C22   C23   1.374546 A    
O17   Cr5   1.938762 S    
C44   H17   1.111755 S    
C24   C28   1.417757 A    
O7    Cr1   2.044593 S    
C7    C8    1.406434 A    
C20   C41   1.400738 S    
C43   H15   1.105270 S    
N2    O30   1.300098 A    
O6    Cr3   1.938254 S    
C10   C11   1.399870 A    
C45   H20   1.110094 S    
C47   C48   1.521067 S    
C26   H8    1.111344 S    
C19   C20   1.187654 T    
C44   H18   1.107917 S    
Cr2   O13   1.972705 S    
C12   H3    1.111132 S    
C10   C14   1.415442 A    
C7    C11   1.406702 A    
C27   N1    1.462935 S    
C46   C47   1.528806 S    
O24   Cr6   2.054677 S    
O14   C39   1.276375 A    
C21   C22   1.390886 A    
C1    O3    1.254590 A    
O16   Cr5   2.053473 S    
C24   O32   1.393773 S    
C48   H26   1.109127 S    
C29   C33   1.413641 A    
Cr4   O26   1.993460 S    
C9    C14   1.392420 A    
C13   H5    1.111215 S    
C29   C30   1.373566 A    
C15   C16   1.193176 T    
O9    Cr2   2.052346 S    
C2    C14   1.464080 S    
C11   H2    1.082032 S    
C31   C36   1.403085 A    
C7    C38   1.465535 S    
C8    C12   1.498320 S    
C38   O18   1.303387 A    
C35   H13   1.092936 S    
O8    C4    1.281213 A    
C21   C40   1.456750 S    
C2    O5    1.254727 A    
C25   H6    1.078318 S    
C34   H11   1.109083 S    
O2    C1    1.278930 A    
O17   C38   1.298352 A    
C4    C36   1.445528 S    
C32   C33   1.405135 A    
O4    C2    1.277571 A    
O7    C6    1.270198 A    
N2    O29   1.301545 A    
C45   H19   1.109693 S    
C47   H25   1.098006 S    
C5    C19   1.404925 S    
C35   H14   1.105840 S    
O3    Cr2   2.049719 S    
C24   C25   1.414374 A    
C34   C35   1.503742 S    
C44   C45   1.525046 S    
C4    O9    1.259852 A    
O10   C5    1.294126 A    
N1    O27   1.300257 A    
C22   C26   1.492608 S    
O20   Cr4   2.045297 S    
O22   Cr5   2.053842 S    
C23   C27   1.503163 S    
C6    C28   1.461046 S    
C48   H27   1.110638 S    
