data_mof_unit_42161.cif
_audit_creation_date              2012-12-11T14:13:19-0500
_audit_creation_method            fapswitch 2.2
_symmetry_space_group_name_H-M    P1
_symmetry_Int_Tables_number       1
_space_group_crystal_system       triclinic
_cell_length_a                    11.705623
_cell_length_b                    18.542391
_cell_length_c                    10.19966
_cell_angle_alpha                 90.021836
_cell_angle_beta                  110.837276
_cell_angle_gamma                 90.025799
_cell_volume                      2069.04074571

loop_
_atom_site_label
_atom_site_type_symbol
_atom_type_description
_atom_site_fract_x
_atom_site_fract_y
_atom_site_fract_z
_atom_type_partial_charge
C1    C     C_R   0.069021 0.648369 0.137689 0.551796
C2    C     C_R   0.929982 0.352327 0.861746 0.529978
C3    C     C_R   0.932755 0.149229 0.861760 0.522841
C4    C     C_R   0.079299 0.856003 0.142196 0.554314
C5    C     C_R   0.442832 0.475324 0.591498 -0.012054
C6    C     C_R   0.560501 0.524999 0.409836 -0.013221
C7    C     C_R   0.536250 0.977121 0.365310 -0.018888
C8    C     C_R   0.370868 0.053376 0.451859 -0.004819
C9    C     C_2   0.394975 0.932897 0.942623 -0.030148
C10   C     C_2   0.638988 0.061117 0.983235 0.006023
C11   C     C_2   0.633372 0.438368 0.983944 -0.017907
C12   C     C_2   0.390417 0.564978 0.971483 0.012171
C13   C     C_2   0.509169 0.955858 0.972694 -0.151057
C14   C     C_2   0.538484 0.032801 0.994319 -0.111877
C15   C     C_2   0.536904 0.465906 0.006615 -0.141890
C16   C     C_2   0.496407 0.540704 0.968467 -0.152798
C17   C     C_2   0.033808 0.930104 0.122020 -0.119277
C18   C     C_2   0.011306 0.084855 0.894245 -0.153724
C19   C     C_2   0.001465 0.419350 0.897058 -0.133589
C20   C     C_2   0.995781 0.582265 0.100985 -0.135341
C21   C     C_2   0.042855 0.969254 0.015838 -0.183595
C22   C     C_2   0.025005 0.047270 0.010826 -0.182715
C23   C     C_2   0.987642 0.462207 0.996936 -0.195787
C24   C     C_2   0.006922 0.540079 0.998346 -0.204919
C25   C     C_R   0.436954 0.637967 0.376084 0.544129
C26   C     C_R   0.564055 0.361937 0.624680 0.525151
C27   C     C_R   0.527480 0.149016 0.555675 0.536152
C28   C     C_R   0.434169 0.860698 0.372111 0.561801
C29   C     C_R   0.373430 0.642516 0.971360 0.562672
C30   C     C_R   0.649016 0.360461 0.987003 0.572240
C31   C     C_R   0.650537 0.139679 0.985357 0.591055
C32   C     C_R   0.373582 0.857301 0.968950 0.547234
C33   C     C_R   0.546209 0.438391 0.583083 -0.031156
C34   C     C_R   0.458508 0.562051 0.419942 -0.028521
C35   C     C_R   0.442761 0.938667 0.395564 -0.020760
C36   C     C_R   0.486089 0.083841 0.469962 -0.015872
C37   C     C_R   0.380137 0.454924 0.681994 -0.113629
C38   C     C_R   0.614702 0.541963 0.309498 -0.129813
C39   C     C_R   0.611239 0.949366 0.293012 -0.118569
C40   C     C_R   0.271763 0.095245 0.455824 -0.121815
C41   C     C_R   0.270256 0.487582 0.671912 -0.132122
C42   C     C_R   0.712686 0.501558 0.301520 -0.129115
C43   C     C_R   0.716240 0.985695 0.295285 -0.130675
C44   C     C_R   0.170799 0.062758 0.471775 -0.144551
C45   C     C_R   0.214888 0.535416 0.563350 0.090408
C46   C     C_R   0.763916 0.447917 0.400737 0.091782
C47   C     C_R   0.753621 0.046160 0.379729 0.094052
C48   C     C_R   0.166240 0.988189 0.484631 0.070664
C49   C     C_R   0.266516 0.542433 0.459219 0.048895
C50   C     C_R   0.733385 0.449725 0.521560 0.056164
C51   C     C_R   0.693626 0.060822 0.472127 0.063625
C52   C     C_R   0.269183 0.946836 0.492740 0.023049
C53   C     C_R   0.393019 0.531778 0.498230 0.001683
C54   C     C_R   0.611676 0.468522 0.503039 0.000172
C55   C     C_R   0.569298 0.043954 0.428396 -0.018921
C56   C     C_R   0.360637 0.977686 0.446430 -0.013095
Cr1   Cr    Cr6+3 0.187610 0.750000 0.979860 1.026250
Cr2   Cr    Cr6+3 0.812390 0.250000 0.020140 1.028936
Cr3   Cr    Cr6+3 0.245810 0.750000 0.341640 1.052863
Cr4   Cr    Cr6+3 0.754190 0.250000 0.658360 1.108575
Cr5   Cr    Cr6+3 0.485760 0.750000 0.219910 1.000540
Cr6   Cr    Cr6+3 0.514240 0.250000 0.780090 1.002231
H1    H     H_    0.224168 0.472101 0.741921 0.135373
H2    H     H_    0.750039 0.513601 0.221339 0.159353
H3    H     H_    0.769204 0.965362 0.235930 0.153113
H4    H     H_    0.100483 0.096528 0.483993 0.182619
H5    H     H_    0.414521 0.414863 0.761949 0.174895
H6    H     H_    0.579000 0.583196 0.232337 0.177519
H7    H     H_    0.590922 0.901736 0.230926 0.184741
H8    H     H_    0.272047 0.153428 0.447422 0.152079
H9    H     H_    0.475490 0.068095 0.020361 0.151805
H10   H     H_    0.582789 0.916841 0.993293 0.126971
H11   H     H_    0.556308 0.578787 0.943598 0.131720
H12   H     H_    0.483170 0.430138 0.046228 0.153095
H13   H     H_    0.001899 0.071419 0.094117 0.194836
H14   H     H_    0.060493 0.943059 0.930367 0.168463
H15   H     H_    0.040927 0.561851 0.920568 0.201540
H16   H     H_    0.946225 0.441451 0.068563 0.208688
H17   H     H_    0.039371 0.061592 0.813279 0.162499
H18   H     H_    0.011515 0.956177 0.205048 0.165125
H19   H     H_    0.954073 0.561723 0.172841 0.158843
H20   H     H_    0.048117 0.438830 0.829497 0.119228
O1    O     O_R   0.267710 0.668200 0.902110 -0.465889
O2    O     O_R   0.732290 0.331800 0.097890 -0.455822
O3    O     O_R   0.732290 0.168200 0.097890 -0.464926
O4    O     O_R   0.267710 0.831800 0.902110 -0.517184
O5    O     O_R   0.099480 0.674460 0.038850 -0.511878
O6    O     O_R   0.900520 0.325540 0.961150 -0.527155
O7    O     O_R   0.900520 0.174460 0.961150 -0.528933
O8    O     O_R   0.099480 0.825540 0.038850 -0.507984
O9    O     O_R   0.116720 0.669210 0.267660 -0.460369
O10   O     O_R   0.883280 0.330790 0.732340 -0.455130
O11   O     O_R   0.883280 0.169210 0.732340 -0.465520
O12   O     O_R   0.116720 0.830790 0.267660 -0.477283
O13   O     O_R   0.366710 0.675440 0.427590 -0.479898
O14   O     O_R   0.633290 0.324560 0.572410 -0.468958
O15   O     O_R   0.633290 0.175440 0.572410 -0.477849
O16   O     O_R   0.366710 0.824560 0.427590 -0.514174
O17   O     O_R   0.534870 0.669390 0.371760 -0.506037
O18   O     O_R   0.465130 0.330610 0.628240 -0.524180
O19   O     O_R   0.465130 0.169390 0.628240 -0.524268
O20   O     O_R   0.534870 0.830610 0.371760 -0.511846
O21   O     O_R   0.453080 0.674480 0.075160 -0.540665
O22   O     O_R   0.546920 0.325520 0.924840 -0.534591
O23   O     O_R   0.546920 0.174480 0.924840 -0.505167
O24   O     O_R   0.453080 0.825520 0.075160 -0.538447
O25   O     O_3   0.306390 0.750000 0.180470 -0.314005
O26   O     O_3   0.693610 0.250000 0.819530 -0.342482
C57   C     C_2   0.101434 0.573126 0.556211 0.577188
O27   O     O_2   0.030036 0.595664 0.444739 -0.515634
O28   O     O_R   0.078554 0.585399 0.679764 -0.725759
H21   H     H_    0.003678 0.616450 0.664301 0.331600
C58   C     C_2   0.868203 0.404061 0.396149 0.597215
O29   O     O_2   0.909166 0.355561 0.480953 -0.475861
O30   O     O_R   0.918997 0.417162 0.293876 -0.736102
H22   H     H_    0.988069 0.382660 0.300628 0.329152
C59   C     C_2   0.852287 0.093601 0.373381 0.604345
O31   O     O_2   0.882534 0.146373 0.450070 -0.480891
O32   O     O_R   0.905706 0.081068 0.273365 -0.738343
H23   H     H_    0.959843 0.122745 0.267719 0.324841
C60   C     C_2   0.061738 0.953844 0.509379 0.560167
O33   O     O_2   0.017322 0.898286 0.447693 -0.511510
O34   O     O_R   0.020275 0.981542 0.610770 -0.762993
H24   H     H_    0.961035 0.947398 0.631186 0.324772
C61   C     C_3   0.198707 0.504258 0.324847 -0.375509
H25   H     H_    0.212283 0.533542 0.238105 0.123395
H26   H     H_    0.101671 0.497124 0.310294 0.180998
H27   H     H_    0.235027 0.448743 0.325779 0.129841
C62   C     C_3   0.824822 0.496138 0.629228 -0.377193
H28   H     H_    0.918864 0.480610 0.640609 0.168221
H29   H     H_    0.812520 0.494492 0.729977 0.125037
H30   H     H_    0.812911 0.553455 0.595075 0.146290
C63   C     C_3   0.761558 0.037237 0.619345 -0.352169
H31   H     H_    0.725645 0.064682 0.692230 0.135188
H32   H     H_    0.858364 0.049576 0.646954 0.189900
H33   H     H_    0.752595 0.978013 0.629795 0.111385
C64   C     C_3   0.300417 0.888826 0.604809 -0.301680
H34   H     H_    0.269990 0.905457 0.689484 0.130504
H35   H     H_    0.248466 0.838392 0.564915 0.196443
H36   H     H_    0.400552 0.879422 0.652799 0.137563
C65   C     C_3   0.727166 0.015628 0.942759 -0.405620
H37   H     H_    0.776897 0.977496 0.026734 0.144371
H38   H     H_    0.678065 0.984688 0.845756 0.119806
H39   H     H_    0.793833 0.050524 0.922094 0.143266
C66   C     C_3   0.289095 0.985555 0.903545 -0.402216
H40   H     H_    0.299246 0.027706 0.831004 0.154744
H41   H     H_    0.202187 0.958065 0.846469 0.172702
H42   H     H_    0.283608 0.011102 0.999597 0.134969
C67   C     C_3   0.312293 0.519686 0.029143 -0.392262
H43   H     H_    0.365802 0.503146 0.138237 0.111538
H44   H     H_    0.235533 0.552171 0.033252 0.150104
H45   H     H_    0.277188 0.470499 0.966513 0.122594
C68   C     C_3   0.705664 0.481897 0.918588 -0.425154
H46   H     H_    0.646347 0.511763 0.825309 0.130406
H47   H     H_    0.764295 0.520740 0.995394 0.143189
H48   H     H_    0.759315 0.444066 0.881610 0.120059

loop_
_geom_bond_atom_site_label_1
_geom_bond_atom_site_label_2
_ccdc_geom_bond_type
C1    O5    A    
C44   C48   A    
C31   O3    A    
C5    C37   A    
C12   C29   S    
C14   H9    S    
C44   H4    S    
O28   H21   S    
C7    C55   A    
C6    C34   A    
C8    C56   A    
C59   O32   S    
C66   H40   S    
C67   H45   S    
O34   H24   S    
Cr6   O23   S    
C64   H35   S    
C21   H14   S    
C50   C54   A    
C40   H8    S    
C5    C53   A    
Cr5   O21   S    
C38   C42   A    
C67   H44   S    
C42   C46   A    
C45   C57   S    
Cr6   O26   S    
C15   C16   S    
Cr1   O4    S    
C29   O21   A    
C3    C18   S    
C8    C36   A    
C9    C13   D    
C20   H19   S    
C57   O28   S    
C47   C59   S    
C11   C15   D    
C10   C31   S    
C25   O17   A    
C20   C24   D    
C11   C30   S    
C18   H17   S    
C5    C33   A    
C61   H27   S    
C23   C24   S    
C6    C38   A    
C2    O6    A    
Cr3   O12   S    
C13   C14   S    
C68   H47   S    
C19   H20   S    
Cr6   O22   S    
Cr4   O26   S    
C25   C34   S    
C62   H30   S    
Cr4   O11   S    
C35   C56   A    
C1    O9    A    
C32   O24   A    
C21   C22   S    
C37   C41   A    
C31   O23   A    
Cr5   O17   S    
Cr3   O13   S    
C22   H13   S    
C6    C54   A    
C66   H41   S    
C52   C64   S    
C4    O8    A    
Cr4   O10   S    
C26   O14   A    
C64   H36   S    
Cr2   O26   S    
Cr1   O8    S    
C16   H11   S    
C12   C16   D    
C28   C35   S    
Cr4   O15   S    
C10   C14   D    
C65   H39   S    
C48   C60   S    
C39   C43   A    
C27   O19   A    
C17   H18   S    
Cr3   O25   S    
Cr1   O5    S    
C10   C65   S    
C19   C23   D    
C50   C62   S    
Cr2   O2    S    
C63   H33   S    
C26   C33   S    
C48   C52   A    
C43   H3    S    
C32   O4    A    
Cr1   O1    S    
C45   C49   A    
C39   H7    S    
C3    O11   A    
Cr3   O9    S    
C68   H48   S    
C2    O10   A    
Cr5   O24   S    
C60   O33   D    
C4    O12   A    
C4    C17   S    
Cr4   O14   S    
Cr1   O25   S    
C38   H6    S    
C25   O13   A    
C65   H37   S    
C63   H31   S    
Cr6   O18   S    
C9    C32   S    
C41   H1    S    
Cr2   O3    S    
C42   H2    S    
C66   H42   S    
C61   H26   S    
C58   O29   D    
C28   O16   A    
C33   C54   A    
C27   O15   A    
C1    C20   S    
C7    C39   A    
C46   C58   S    
C2    C19   S    
C18   C22   D    
C7    C35   A    
C12   C67   S    
Cr2   O6    S    
C47   C51   A    
O32   H23   S    
C29   O1    A    
C13   H10   S    
C27   C36   S    
C49   C61   S    
C64   H34   S    
C46   C50   A    
C59   O31   D    
C3    O7    A    
Cr6   O19   S    
C65   H38   S    
Cr5   O20   S    
C62   H28   S    
C36   C55   A    
C67   H43   S    
C51   C63   S    
C61   H25   S    
C52   C56   A    
C49   C53   A    
C37   H5    S    
C9    C66   S    
C51   C55   A    
C23   H16   S    
C30   O2    A    
Cr5   O25   S    
Cr2   O7    S    
C17   C21   D    
C60   O34   S    
C11   C68   S    
C28   O20   A    
C24   H15   S    
C40   C44   A    
C15   H12   S    
C34   C53   A    
C30   O22   A    
C63   H32   S    
Cr3   O16   S    
C41   C45   A    
C8    C40   A    
C58   O30   S    
C68   H46   S    
C57   O27   D    
C43   C47   A    
O30   H22   S    
C26   O18   A    
C62   H29   S    
