data_mof_unit_31808.cif
_audit_creation_date              2012-12-11T15:32:06-0500
_audit_creation_method            fapswitch 2.2
_symmetry_space_group_name_H-M    P1
_symmetry_Int_Tables_number       1
_space_group_crystal_system       triclinic
_cell_length_a                    13.537533
_cell_length_b                    13.607971
_cell_length_c                    27.620053
_cell_angle_alpha                 90.990707
_cell_angle_beta                  89.828383
_cell_angle_gamma                 119.899484
_cell_volume                      4410.14600013

loop_
_atom_site_label
_atom_site_type_symbol
_atom_type_description
_atom_site_fract_x
_atom_site_fract_y
_atom_site_fract_z
_atom_type_partial_charge
C1    C     C_R   0.619933 0.897931 0.431494 0.543575
C2    C     C_R   0.158147 0.912925 0.266046 -0.108044
C3    C     C_R   0.143912 0.908882 0.215828 -0.107137
C4    C     C_R   0.600035 0.218560 0.431354 0.555038
C5    C     C_R   0.194090 0.761489 0.209331 -0.071971
C6    C     C_R   0.209542 0.765135 0.259690 0.006932
C7    C     C_R   0.189859 0.840932 0.288372 0.048361
C8    C     C_R   0.161077 0.832639 0.187426 0.011529
C9    C     C_1   0.133338 0.818216 0.136591 -0.031266
C10   C     C_1   0.209260 0.851408 0.340013 -0.049338
C11   C     C_1   0.101404 0.797655 0.095055 0.022682
C12   C     C_R   0.663763 0.419331 0.221777 -0.094289
C13   C     C_1   0.636745 0.863807 0.384354 0.003438
C14   C     C_R   0.568298 0.736086 0.266669 -0.132324
C15   C     C_R   0.572288 0.726413 0.216180 0.195586
C16   C     C_R   0.279647 0.878579 0.430531 0.541087
C17   C     C_R   0.756706 0.901891 0.216233 0.170939
C18   C     C_R   0.750448 0.909798 0.266623 -0.107381
C19   C     C_R   0.656924 0.827357 0.291737 -0.050908
C20   C     C_R   0.666475 0.810458 0.190648 -0.000966
C21   C     C_1   0.675748 0.799007 0.139051 0.084649
C22   C     C_1   0.647099 0.843339 0.342695 -0.042417
C23   C     C_R   0.656035 0.403224 0.271799 -0.101761
C24   C     C_1   0.691998 0.788095 0.096939 0.086515
C25   C     C_R   0.647060 0.294052 0.613317 0.003951
C26   C     C_R   0.741740 0.297709 0.636541 0.218489
C27   C     C_R   0.743172 0.293303 0.686747 -0.078086
C28   C     C_R   0.620318 0.901930 0.569275 0.540447
C29   C     C_R   0.663228 0.305982 0.714712 -0.046327
C30   C     C_R   0.587587 0.331781 0.690929 -0.101369
C31   C     C_R   0.578545 0.326146 0.640557 0.231478
C32   C     C_R   0.569959 0.284647 0.795650 -0.132391
C33   C     C_R   0.580796 0.312657 0.844764 -0.148877
C34   C     C_R   0.670188 0.316861 0.291445 0.035307
C35   C     C_R   0.777701 0.354986 0.842974 -0.014559
C36   C     C_R   0.767682 0.334024 0.793187 -0.071799
C37   C     C_R   0.666293 0.305601 0.768443 0.023796
C38   C     C_R   0.687096 0.357949 0.867890 0.023518
C39   C     C_R   0.229212 0.867712 0.615698 0.014457
C40   C     C_R   0.603761 0.227208 0.567710 0.563189
C41   C     C_R   0.298219 0.949050 0.650369 -0.107888
C42   C     C_R   0.269697 0.933505 0.698532 -0.127700
C43   C     C_R   0.171147 0.836904 0.712978 0.047714
C44   C     C_R   0.093629 0.757062 0.678600 0.317755
C45   C     C_R   0.685083 0.348855 0.191077 0.034755
C46   C     C_R   0.124387 0.772216 0.628792 -0.032437
C47   C     C_R   0.092088 0.872915 0.786201 -0.123897
C48   C     C_R   0.064474 0.856994 0.834744 -0.135178
C49   C     C_R   0.160420 0.747342 0.842168 -0.118743
C50   C     C_R   0.191609 0.765902 0.793421 0.278298
C51   C     C_R   0.150993 0.823736 0.764939 0.058550
C52   C     C_R   0.278814 0.881569 0.567765 0.533300
C53   C     C_R   0.094607 0.790543 0.862607 -0.025020
C54   C     C_R   0.636602 0.869246 0.617422 0.018371
C55   C     C_R   0.548094 0.771441 0.638293 -0.090060
C56   C     C_1   0.693123 0.367438 0.139704 -0.022755
C57   C     C_R   0.549218 0.754642 0.687591 -0.043862
C58   C     C_R   0.638580 0.835392 0.716533 0.047242
C59   C     C_R   0.729882 0.929927 0.695596 -0.117138
C60   C     C_R   0.729556 0.946145 0.646141 -0.111763
C61   C     C_R   0.663176 0.896461 0.803183 -0.082221
C62   C     C_R   0.680784 0.878991 0.851486 -0.029708
C63   C     C_R   0.655916 0.693653 0.827172 -0.025677
C64   C     C_1   0.632717 0.265750 0.384061 0.005924
C65   C     C_R   0.636574 0.712596 0.779927 -0.074968
C66   C     C_R   0.643180 0.814060 0.767648 0.032334
C67   C     C_1   0.652962 0.293597 0.342376 -0.044264
C68   C     C_R   0.679487 0.777604 0.863634 0.053298
C69   C     C_R   0.049806 0.761647 0.048069 0.551492
C70   C     C_R   0.714179 0.435928 0.049728 0.549910
C71   C     C_R   0.723038 0.771156 0.049306 0.547486
C72   C     C_R   0.043104 0.754999 0.910261 0.543544
C73   C     C_R   0.707380 0.425377 0.913024 0.527984
C74   C     C_R   0.717353 0.764385 0.911646 0.534580
C75   C     C_R   0.692589 0.246985 0.260805 -0.090169
C76   C     C_R   0.700270 0.263075 0.210715 -0.085060
C77   C     C_3   0.888429 0.380349 0.866796 -0.352819
C78   C     C_1   0.701223 0.391935 0.097568 0.021607
C79   C     C_3   0.047074 0.690235 0.590067 -0.296655
C80   C     C_3   0.701735 0.969058 0.889093 -0.389675
C81   C     C_3   0.657607 0.586136 0.836498 -0.356985
C82   C     C_3   0.246999 0.687359 0.280756 -0.364263
C83   C     C_1   0.234330 0.861930 0.382375 -0.004357
Cr1   Cr    Cr6+3 0.417720 0.831920 0.499820 1.055566
Cr2   Cr    Cr6+3 0.668190 0.085770 0.500360 1.132047
Cr3   Cr    Cr6+3 0.414060 0.082260 0.499840 1.103614
Cr4   Cr    Cr6+3 0.908000 0.821090 0.979770 1.056819
Cr5   Cr    Cr6+3 0.912420 0.571130 0.979880 1.033079
Cr6   Cr    Cr6+3 0.657970 0.566940 0.980940 1.057978
H1    H     H_    0.702479 0.179092 0.275571 0.130395
H2    H     H_    0.064041 0.920409 0.764663 0.147810
H3    H     H_    0.013440 0.891144 0.849615 0.151231
H4    H     H_    0.326732 0.995530 0.725020 0.134947
H5    H     H_    0.185443 0.697955 0.863992 0.155835
H6    H     H_    0.475397 0.710548 0.617042 0.152388
H7    H     H_    0.652442 0.486351 0.206998 0.149302
H8    H     H_    0.667169 0.974897 0.792922 0.126585
H9    H     H_    0.479432 0.679759 0.703390 0.183098
H10   H     H_    0.622276 0.650246 0.751743 0.142946
H11   H     H_    0.801468 0.990553 0.717475 0.117061
H12   H     H_    0.817763 0.981086 0.286419 0.168441
H13   H     H_    0.799637 0.021206 0.630913 0.185393
H14   H     H_    0.637511 0.456958 0.295006 0.120120
H15   H     H_    0.144589 0.972526 0.287520 0.141059
H16   H     H_    0.118255 0.964275 0.199278 0.179333
H17   H     H_    0.206411 0.701837 0.187224 0.168530
H18   H     H_    0.495552 0.673601 0.286554 0.146837
H19   H     H_    0.401097 0.479974 0.240144 0.344064
H20   H     H_    0.923189 0.880855 0.165984 0.311069
H21   H     H_    0.991110 0.348630 0.659912 0.351472
H22   H     H_    0.871704 0.337647 0.902215 0.139837
H23   H     H_    0.487624 0.253892 0.778597 0.115334
H24   H     H_    0.934874 0.347949 0.844459 0.126098
H25   H     H_    0.944885 0.473224 0.871381 0.190994
H26   H     H_    0.426613 0.483617 0.631500 0.370701
H27   H     H_    0.379347 0.714044 0.830553 0.342389
H28   H     H_    0.828168 0.632838 0.746338 0.360754
H29   H     H_    0.081105 0.713991 0.552971 0.122069
H30   H     H_    0.034580 0.604582 0.596500 0.250269
H31   H     H_    0.964310 0.688576 0.590078 0.183037
H32   H     H_    0.689511 0.037386 0.873918 0.127596
H33   H     H_    0.641244 0.930835 0.919502 0.140570
H34   H     H_    0.508033 0.307275 0.863622 0.137838
H35   H     H_    0.790424 0.008588 0.903013 0.163382
H36   H     H_    0.650900 0.537992 0.802595 0.117598
H37   H     H_    0.738932 0.606054 0.854433 0.150641
H38   H     H_    0.583075 0.530863 0.858998 0.180707
H39   H     H_    0.256676 0.695183 0.320689 0.141028
H40   H     H_    0.183374 0.597986 0.271464 0.174115
H41   H     H_    0.330340 0.707180 0.265051 0.174562
H42   H     H_    0.808008 0.280550 0.703123 0.119619
H43   H     H_    0.842984 0.347796 0.774055 0.147252
H44   H     H_    0.534734 0.356166 0.711407 0.163975
H45   H     H_    0.717247 0.208419 0.187395 0.160501
H46   H     H_    0.378353 0.022388 0.640393 0.138353
O1    O     O_R   0.302900 0.805360 0.446400 -0.503363
O2    O     O_R   0.638120 0.455970 0.034270 -0.480851
O3    O     O_R   0.667540 0.672320 0.030160 -0.481879
O4    O     O_R   0.522090 0.841370 0.450730 -0.493629
O5    O     O_R   0.814460 0.840990 0.926980 -0.522238
O6    O     O_R   0.001710 0.811400 0.930110 -0.502099
O7    O     O_R   0.023410 0.659800 0.926210 -0.522466
O8    O     O_R   0.806940 0.473170 0.931090 -0.506946
O9    O     O_R   0.633420 0.451310 0.927930 -0.529065
O10   O     O_R   0.663190 0.668000 0.931580 -0.503814
O11   O     O_3   0.826130 0.653050 0.980200 -0.261531
O12   O     O_R   0.657980 0.180990 0.549630 -0.446319
O13   O     O_R   0.693280 0.995650 0.447220 -0.497075
O14   O     O_R   0.657260 0.178740 0.451050 -0.485657
O15   O     O_R   0.502640 0.195380 0.446850 -0.491597
O16   O     O_R   0.319630 0.976590 0.450330 -0.494075
O17   O     O_R   0.303680 0.807790 0.552740 -0.497246
O18   O     O_R   0.522820 0.843620 0.549310 -0.503768
O19   O     O_R   0.694060 0.998080 0.553560 -0.471775
O20   O     O_2   0.399488 0.651840 0.153287 -0.244939
O21   O     O_2   0.503616 0.548099 0.155352 -0.287087
O22   O     O_3   0.363272 0.518641 0.225425 -0.505301
O23   O     O_R   0.503420 0.197810 0.553190 -0.446426
O24   O     O_2   0.842311 0.076679 0.156429 -0.240104
O25   O     O_2   0.968476 0.084772 0.221652 -0.268501
O26   O     O_3   0.931999 0.947789 0.148593 -0.493251
O27   O     O_2   0.860811 0.211531 0.593022 -0.298100
O28   O     O_2   0.875636 0.382701 0.558614 -0.247427
O29   O     O_3   0.982102 0.402489 0.639272 -0.460570
O30   O     O_2   0.527720 0.413831 0.564391 -0.250126
O31   O     O_2   0.368306 0.263777 0.609275 -0.262534
O32   O     O_3   0.478771 0.464747 0.648852 -0.539596
O33   O     O_2   0.225131 0.638593 0.727331 -0.201464
O34   O     O_R   0.320350 0.978840 0.548910 -0.490974
O35   O     O_2   0.389855 0.819455 0.751501 -0.338368
O36   O     O_3   0.316465 0.652529 0.811416 -0.519165
O37   O     O_2   0.885340 0.565496 0.659895 -0.263637
O38   O     O_2   0.985257 0.573458 0.734472 -0.261382
O39   O     O_3   0.890210 0.697440 0.729089 -0.547147
O40   O     O_3   0.499990 0.999990 0.500010 -0.285291
O41   O     O_R   0.819150 0.845650 0.033320 -0.473783
O42   O     O_R   0.006060 0.815720 0.028680 -0.478838
O43   O     O_R   0.028100 0.664460 0.032550 -0.496682
O44   O     O_R   0.811290 0.477490 0.029660 -0.493828
S1    S     S_3+6 0.458302 0.609320 0.185818 -0.000911
S2    S     S_3+6 0.877999 0.007840 0.185987 0.011851
S3    S     S_3+6 0.865844 0.321983 0.604877 0.045436
S4    S     S_3+6 0.485397 0.365994 0.613698 0.036759
S5    S     S_3+6 0.282645 0.718910 0.769285 0.003867
S6    S     S_3+6 0.961111 0.642616 0.699637 0.022040

loop_
_geom_bond_atom_site_label_1
_geom_bond_atom_site_label_2
_ccdc_geom_bond_type
H28   O39   S    
C25   C31   A    
C7    C10   S    
C50   S5    S    
C63   C65   A    
C6    C82   S    
Cr4   O11   S    
C81   H37   S    
C70   C78   S    
C42   H4    S    
C27   H42   S    
C41   C42   A    
C74   O10   A    
C2    C7    A    
Cr2   O13   S    
Cr4   O5    S    
C75   C76   A    
C39   C41   A    
C54   C60   A    
C3    H16   S    
C72   O7    A    
C4    O14   A    
C12   C23   A    
O38   S6    D    
C26   C27   A    
C63   C81   S    
C45   C76   A    
C62   C80   S    
C36   C37   A    
O27   S3    D    
C36   H43   S    
O39   S6    S    
C73   O8    A    
C30   C31   A    
C38   C73   S    
C60   H13   S    
C70   O44   A    
C27   C29   A    
C68   C74   S    
Cr3   O34   S    
C79   H29   S    
C10   C83   T    
C17   C20   A    
C56   C78   T    
C71   O41   A    
Cr3   O40   S    
C77   H22   S    
C75   H1    S    
C69   O42   A    
C63   C68   A    
C61   C66   A    
C58   C66   S    
C23   H14   S    
C46   C79   S    
C35   C36   A    
Cr1   O4    S    
C8    C9    S    
O33   S5    D    
C79   H30   S    
C49   H5    S    
C82   H41   S    
Cr1   O40   S    
Cr5   O8    S    
C1    O4    A    
C34   C75   A    
C80   H32   S    
C81   H36   S    
C23   C34   A    
C39   C52   S    
C59   C60   A    
C15   S1    S    
C81   H38   S    
O28   S3    D    
C28   O19   A    
C59   H11   S    
C72   O6    A    
C77   H24   S    
Cr5   O7    S    
C44   C46   A    
C50   C51   A    
C71   O3    A    
C5    H17   S    
C15   C20   A    
O32   S4    S    
O30   S4    D    
C64   C67   T    
O36   S5    S    
C19   C22   S    
C45   C56   S    
C55   H6    S    
C3    C8    A    
C28   C54   S    
C18   C19   A    
C80   H33   S    
H19   O22   S    
C25   C26   A    
C74   O5    A    
C35   C77   S    
C16   C83   S    
Cr4   O6    S    
H27   O36   S    
C18   H12   S    
C52   O34   A    
Cr6   O10   S    
C43   C44   A    
C29   C30   A    
Cr4   O41   S    
C69   O43   A    
Cr4   O42   S    
C9    C11   T    
Cr1   O18   S    
C47   C48   A    
C2    H15   S    
O37   S6    D    
C52   O17   A    
C30   H44   S    
C82   H39   S    
C79   H31   S    
C35   C38   A    
H21   O29   S    
C17   C18   A    
C32   C37   A    
O24   S2    D    
C82   H40   S    
Cr6   O11   S    
Cr3   O23   S    
Cr6   O3    S    
C65   H10   S    
C39   C46   A    
Cr1   O17   S    
C14   H18   S    
C65   C66   A    
Cr6   O2    S    
C55   C57   A    
C28   O18   A    
C1    C13   S    
C42   C43   A    
H26   O32   S    
C77   H25   S    
C16   O1    A    
C26   S3    S    
O25   S2    D    
C41   H46   S    
O20   S1    D    
Cr5   O44   S    
C80   H35   S    
C40   O23   A    
C4    C64   S    
C54   C55   A    
Cr1   O1    S    
C76   H45   S    
C32   H23   S    
C40   O12   A    
O35   S5    D    
C47   H2    S    
C14   C19   A    
C61   H8    S    
O31   S4    D    
Cr2   O12   S    
C12   C45   A    
C34   C67   S    
C5    C8    A    
C47   C51   A    
C11   C69   S    
Cr5   O43   S    
C6    C7    A    
C48   C53   A    
Cr6   O9    S    
C4    O15   A    
C44   S6    S    
C33   C38   A    
C62   C68   A    
C32   C33   A    
Cr3   O15   S    
C2    C3    A    
C58   C59   A    
C25   C40   S    
H20   O26   S    
Cr3   O16   S    
O21   S1    D    
C43   C51   S    
C57   C58   A    
C5    C6    A    
C49   C53   A    
C57   H9    S    
Cr2   O40   S    
C13   C22   T    
C16   O16   A    
C31   S4    S    
Cr2   O19   S    
O26   S2    S    
C61   C62   A    
Cr2   O14   S    
O29   S3    S    
C17   S2    S    
C20   C21   S    
C70   O2    A    
C49   C50   A    
C48   H3    S    
C21   C24   T    
C29   C37   S    
C33   H34   S    
Cr5   O11   S    
C14   C15   A    
C12   H7    S    
C1    O13   A    
C53   C72   S    
O22   S1    S    
C24   C71   S    
C73   O9    A    
