data_mof_unit_58606.cif
_audit_creation_date              2012-12-10T20:52:40-0500
_audit_creation_method            fapswitch 2.2
_symmetry_space_group_name_H-M    P1
_symmetry_Int_Tables_number       1
_space_group_crystal_system       triclinic
_cell_length_a                    8.600429
_cell_length_b                    15.814215
_cell_length_c                    15.069822
_cell_angle_alpha                 88.89317
_cell_angle_beta                  98.641915
_cell_angle_gamma                 90.253953
_cell_volume                      2025.98137167

loop_
_atom_site_label
_atom_site_type_symbol
_atom_type_description
_atom_site_fract_x
_atom_site_fract_y
_atom_site_fract_z
_atom_type_partial_charge
C1    C     C_R   0.499236 0.338802 0.500903 0.905753
C2    C     C_R   0.799089 0.501724 0.522942 0.921340
C3    C     C_2   0.038605 0.484086 0.468369 -0.242659
C4    C     C_2   0.961525 0.516605 0.531932 -0.244562
C5    C     C_R   0.485057 0.951915 0.581466 0.158797
C6    C     C_R   0.399640 0.047983 0.421800 0.163063
C7    C     C_R   0.446493 0.912555 0.498058 -0.029893
C8    C     C_R   0.446265 0.087440 0.504431 -0.027068
C9    C     C_R   0.398273 0.959688 0.418734 -0.071520
C10   C     C_R   0.482716 0.040291 0.585023 -0.066583
C11   C     C_1   0.463677 0.823710 0.494636 -0.049398
C12   C     C_R   0.498477 0.661233 0.499006 0.904918
C13   C     C_1   0.464759 0.176393 0.504562 -0.048087
C14   C     C_1   0.482331 0.250771 0.502587 -0.195261
C15   C     C_1   0.481096 0.749313 0.495556 -0.193179
C16   C     C_R   0.397973 0.445098 0.944832 -0.105433
C17   C     C_R   0.605576 0.552391 0.055097 -0.098432
C18   C     C_R   0.974691 0.415916 0.405889 0.149801
C19   C     C_R   0.944052 0.432228 0.313111 -0.084113
C20   C     C_R   0.874665 0.370138 0.255130 -0.156385
C21   C     C_R   0.837966 0.290950 0.289351 -0.099351
C22   C     C_R   0.870183 0.273835 0.381647 -0.140335
C23   C     C_R   0.499682 0.499894 0.904982 -0.064255
C24   C     C_R   0.938039 0.336097 0.439892 -0.159625
C25   C     C_R   0.025817 0.583336 0.596408 0.143967
C26   C     C_R   0.074747 0.661825 0.564793 -0.146845
C27   C     C_R   0.139955 0.722856 0.625413 -0.129355
C28   C     C_R   0.156607 0.706060 0.717774 -0.122367
C29   C     C_R   0.107030 0.628432 0.749700 -0.150049
C30   C     C_R   0.041251 0.567392 0.689285 -0.070885
C31   C     C_R   0.515131 0.081937 0.673514 0.181326
C32   C     C_R   0.649356 0.132655 0.695803 -0.156289
C33   C     C_R   0.681730 0.168176 0.780909 -0.153775
C34   C     C_R   0.502238 0.498369 0.095008 -0.068731
C35   C     C_R   0.581235 0.153120 0.844233 -0.123825
C36   C     C_R   0.447326 0.103013 0.822457 -0.146878
C37   C     C_R   0.414156 0.067551 0.737452 -0.142015
C38   C     C_R   0.346104 0.917919 0.332182 0.195717
C39   C     C_R   0.456920 0.885055 0.282683 -0.151131
C40   C     C_R   0.407685 0.851597 0.197848 -0.159098
C41   C     C_R   0.247800 0.849423 0.162752 -0.106173
C42   C     C_R   0.136936 0.881873 0.211929 -0.152031
C43   C     C_R   0.185742 0.916163 0.296396 -0.150798
C44   C     C_3   0.697024 0.890852 0.686145 -0.754232
C45   C     C_R   0.601904 0.554027 0.960021 0.171443
C46   C     C_3   0.480448 0.117424 0.291738 -0.765998
C47   C     C_3   0.180284 0.413426 0.121965 -0.803190
C48   C     C_3   0.619287 0.692368 0.891987 -0.770047
C49   C     C_R   0.282284 0.392743 0.886148 0.120466
C50   C     C_R   0.333535 0.333044 0.829006 -0.147487
C51   C     C_R   0.224680 0.289541 0.768056 -0.109112
C52   C     C_R   0.063867 0.304125 0.764720 -0.136585
C53   C     C_R   0.011493 0.361817 0.822800 -0.168341
C54   C     C_R   0.120171 0.406556 0.882822 -0.156954
C55   C     C_R   0.719786 0.605629 0.113664 0.150717
C56   C     C_R   0.400445 0.443685 0.039699 0.181216
C57   C     C_R   0.881933 0.590198 0.120792 -0.206953
C58   C     C_R   0.989048 0.636087 0.180574 -0.147012
C59   C     C_R   0.934756 0.695953 0.235506 -0.116257
C60   C     C_R   0.773745 0.711791 0.228923 -0.142970
C61   C     C_R   0.666585 0.667238 0.167891 -0.142990
C62   C     C_1   0.500118 0.500585 0.806977 0.120329
C63   C     C_1   0.501343 0.498568 0.193115 0.125914
C64   C     C_R   0.200952 0.498510 0.477124 0.919259
H1    H     H_    0.970989 0.493466 0.286299 0.146273
H2    H     H_    0.004365 0.507332 0.714590 0.142693
H3    H     H_    0.729723 0.143617 0.647894 0.119250
H4    H     H_    0.785292 0.206836 0.798259 0.132066
H5    H     H_    0.606805 0.180587 0.910070 0.124407
H6    H     H_    0.369149 0.091705 0.871418 0.134771
H7    H     H_    0.310270 0.028518 0.721505 0.121320
H8    H     H_    0.581194 0.887477 0.308834 0.113361
H9    H     H_    0.493567 0.828587 0.158677 0.127393
H10   H     H_    0.209958 0.823291 0.097165 0.125720
H11   H     H_    0.013227 0.880790 0.184428 0.135219
H12   H     H_    0.848626 0.383568 0.183754 0.130087
H13   H     H_    0.099085 0.942064 0.333529 0.117680
H14   H     H_    0.466115 0.848023 0.666206 0.228433
H15   H     H_    0.721397 0.857963 0.752465 0.231144
H16   H     H_    0.759366 0.952628 0.691132 0.243923
H17   H     H_    0.742843 0.851642 0.635413 0.238034
H18   H     H_    0.284442 0.148309 0.349412 0.234804
H19   H     H_    0.432168 0.149938 0.227615 0.238505
H20   H     H_    0.541836 0.059280 0.275895 0.241511
H21   H     H_    0.566168 0.160223 0.331094 0.235070
H22   H     H_    0.287388 0.325953 0.047656 0.231605
H23   H     H_    0.784286 0.242939 0.244391 0.124088
H24   H     H_    0.066631 0.393779 0.082661 0.221003
H25   H     H_    0.181873 0.483424 0.126280 0.230166
H26   H     H_    0.188925 0.386081 0.190878 0.262520
H27   H     H_    0.809799 0.619805 0.949271 0.224524
H28   H     H_    0.596970 0.726796 0.952427 0.232951
H29   H     H_    0.506195 0.681977 0.847136 0.247039
H30   H     H_    0.696231 0.731803 0.854978 0.234849
H31   H     H_    0.457931 0.321944 0.830155 0.129536
H32   H     H_    0.265057 0.245195 0.722716 0.146826
H33   H     H_    0.980082 0.271138 0.716631 0.116463
H34   H     H_    0.841517 0.212573 0.408160 0.122403
H35   H     H_    0.886816 0.373354 0.819858 0.133353
H36   H     H_    0.078201 0.453425 0.924981 0.133640
H37   H     H_    0.924664 0.541798 0.080845 0.117518
H38   H     H_    0.113858 0.623854 0.185915 0.133751
H39   H     H_    0.017368 0.729638 0.283603 0.135857
H40   H     H_    0.731978 0.757918 0.271838 0.126928
H41   H     H_    0.541876 0.678929 0.164399 0.119245
H42   H     H_    0.960584 0.322604 0.511420 0.110880
H43   H     H_    0.063448 0.675305 0.493359 0.108753
H44   H     H_    0.178150 0.783033 0.600776 0.123986
H45   H     H_    0.207897 0.753194 0.764577 0.120694
H46   H     H_    0.120141 0.615393 0.821225 0.126875
N1    N     N_1   0.499960 0.500020 0.270540 -0.090628
N2    N     N_1   0.500040 0.499980 0.729460 -0.089754
N3    N     N_2   0.529315 0.903159 0.661998 -0.301938
N4    N     N_2   0.353518 0.096662 0.341424 -0.293641
N5    N     N_2   0.309576 0.382385 0.080385 -0.300528
N6    N     N_2   0.695848 0.612562 0.918029 -0.306057
O1    O     O_R   0.500000 0.378020 0.573650 -0.618782
O2    O     O_R   0.500000 0.621980 0.426350 -0.617226
O3    O     O_R   0.500070 0.378020 0.426320 -0.598084
O4    O     O_R   0.499930 0.621980 0.573680 -0.599067
O5    O     O_R   0.271720 0.500000 0.556430 -0.597581
O6    O     O_R   0.728280 0.500000 0.443570 -0.596897
O7    O     O_R   0.271790 0.500000 0.409110 -0.629565
O8    O     O_R   0.728210 0.500000 0.590890 -0.628791
Zn1   Zn    Zn3+2 0.499950 0.500000 0.598370 0.976853
Zn2   Zn    Zn3+2 0.500050 0.500000 0.401630 0.975054

loop_
_geom_bond_atom_site_label_1
_geom_bond_atom_site_label_2
_ccdc_geom_bond_type
C21   H23   S    
C34   C56   A    
C8    C13   S    
C23   C45   A    
C41   C42   A    
C19   C20   A    
C6    C9    A    
C4    C25   S    
C3    C64   S    
C53   H35   S    
C47   N5    S    
C42   H11   S    
C48   H30   S    
C22   H34   S    
C21   C22   A    
C28   C29   A    
C17   C45   A    
C38   C39   A    
C50   H31   S    
C64   O5    A    
C52   H33   S    
H27   N6    S    
C20   H12   S    
C3    C18   S    
C18   C19   A    
C1    O3    A    
C6    N4    S    
C41   H10   S    
C12   O4    A    
C11   C15   T    
C10   C31   S    
C23   C62   S    
C35   C36   A    
C39   H8    S    
C58   H38   S    
C61   H41   S    
C42   C43   A    
C17   C55   S    
C51   H32   S    
C48   N6    S    
C46   H21   S    
C59   C60   A    
C13   C14   T    
C47   H25   S    
C54   H36   S    
C36   H6    S    
C7    C11   S    
C2    O6    A    
C34   C63   S    
C48   H29   S    
C46   N4    S    
C51   C52   A    
C29   H46   S    
C44   H16   S    
C16   C49   S    
H18   N4    S    
C44   H17   S    
C39   C40   A    
C5    C7    A    
O4    Zn1   S    
O7    Zn2   S    
C6    C8    A    
C25   C26   A    
C53   C54   A    
C31   C37   A    
H22   N5    S    
O6    Zn2   S    
C2    C4    S    
C16   C56   A    
O5    Zn1   S    
C29   C30   A    
C31   C32   A    
C12   C15   S    
N1    Zn2   S    
C50   C51   A    
C26   C27   A    
C1    O1    A    
N2    Zn1   S    
C30   H2    S    
C32   H3    S    
C46   H20   S    
C40   C41   A    
C44   N3    S    
C16   C23   A    
C55   C57   A    
C47   H26   S    
C18   C24   A    
H14   N3    S    
C24   H42   S    
C17   C34   A    
C3    C4    D    
C52   C53   A    
C12   O2    A    
C25   C30   A    
C7    C9    A    
C36   C37   A    
C5    N3    S    
C44   H15   S    
C26   H43   S    
C2    O8    A    
C28   H45   S    
C43   H13   S    
C64   O7    A    
C57   H37   S    
C59   H39   S    
C47   H24   S    
C37   H7    S    
C58   C59   A    
C5    C10   A    
C32   C33   A    
C45   N6    S    
C57   C58   A    
C27   H44   S    
C55   C61   A    
C9    C38   S    
C33   C35   A    
C56   N5    S    
C19   H1    S    
C22   C24   A    
C63   N1    T    
C46   H19   S    
O3    Zn2   S    
C38   C43   A    
C62   N2    T    
C20   C21   A    
C35   H5    S    
C8    C10   A    
C49   C50   A    
C48   H28   S    
C27   C28   A    
C60   C61   A    
C1    C14   S    
O2    Zn2   S    
C40   H9    S    
C60   H40   S    
O1    Zn1   S    
C49   C54   A    
C33   H4    S    
O8    Zn1   S    
