data_mof_unit_8138.cif
_audit_creation_date              2012-12-10T16:58:26-0500
_audit_creation_method            fapswitch 2.2
_symmetry_space_group_name_H-M    P1
_symmetry_Int_Tables_number       1
_space_group_crystal_system       triclinic
_cell_length_a                    7.739531
_cell_length_b                    8.575109
_cell_length_c                    23.4475
_cell_angle_alpha                 91.301664
_cell_angle_beta                  86.035165
_cell_angle_gamma                 93.052841
_cell_volume                      1549.93728826

loop_
_atom_site_label
_atom_site_type_symbol
_atom_type_description
_atom_site_fract_x
_atom_site_fract_y
_atom_site_fract_z
_atom_type_partial_charge
C1    C     C_R   0.544534 0.794552 0.498417 0.900444
C2    C     C_R   0.455466 0.205448 0.501581 0.900466
C3    C     C_R   0.647662 0.455494 0.760293 0.668375
C4    C     C_R   0.352315 0.544525 0.239708 0.668378
C5    C     C_R   0.652322 0.450253 0.700794 0.179515
C6    C     C_R   0.347638 0.549712 0.299207 0.179555
C7    C     C_R   0.507992 0.499907 0.673061 -0.213274
C8    C     C_R   0.492018 0.500149 0.326937 -0.213319
C9    C     C_R   0.363039 0.552932 0.705979 -0.173996
C10   C     C_R   0.637041 0.447283 0.294015 -0.173982
C11   C     C_R   0.360325 0.556862 0.765074 -0.135254
C12   C     C_R   0.639775 0.443414 0.234920 -0.135245
C13   C     C_R   0.502247 0.508194 0.791972 0.104102
C14   C     C_R   0.497799 0.491978 0.208025 0.104097
C15   C     C_2   0.564201 0.955820 0.507330 0.015887
C16   C     C_2   0.435801 0.044179 0.492667 0.015876
C17   C     C_R   0.502712 0.498637 0.610740 0.921362
C18   C     C_R   0.497289 0.501369 0.389259 0.921372
C19   C     C_R   0.439102 0.361974 0.119307 0.606950
C20   C     C_R   0.560932 0.638212 0.880690 0.606883
C21   C     C_R   0.566228 0.622298 0.119725 0.626171
C22   C     C_R   0.433804 0.377888 0.880273 0.626228
C23   C     C_R   0.566634 0.627870 0.060443 -0.067253
C24   C     C_R   0.433392 0.372319 0.939555 -0.067258
C25   C     C_R   0.500556 0.497041 0.029974 -0.045624
C26   C     C_R   0.499470 0.503148 0.970024 -0.045624
C27   C     C_R   0.435628 0.360650 0.059361 -0.104119
C28   C     C_R   0.564399 0.639539 0.940636 -0.104112
C29   C     C_R   0.630733 0.761938 0.031506 -0.126835
C30   C     C_R   0.369289 0.238252 0.968492 -0.126829
C31   C     C_R   0.630398 0.769698 0.972380 0.309108
C32   C     C_R   0.369623 0.230492 0.027617 0.309109
H1    H     H_    0.681481 0.862689 0.054927 0.227835
H2    H     H_    0.318538 0.137502 0.945071 0.227835
H3    H     H_    0.251208 0.592173 0.686101 0.231574
H4    H     H_    0.748916 0.408122 0.313888 0.231641
H5    H     H_    0.247867 0.597169 0.790083 0.209043
H6    H     H_    0.752288 0.403227 0.209907 0.209096
N1    N     N_R   0.502615 0.491439 0.147396 -0.342725
N2    N     N_R   0.497423 0.508744 0.852601 -0.342728
N3    N     N_2   0.950330 0.457950 0.484560 0.283904
N4    N     N_2   0.049670 0.542050 0.515440 0.283891
O1    O     O_R   0.389250 0.738570 0.503790 -0.595846
O2    O     O_R   0.610750 0.261430 0.496210 -0.595834
O3    O     O_R   0.678390 0.711620 0.493890 -0.554698
O4    O     O_R   0.321610 0.288380 0.506110 -0.554695
O5    O     O_R   0.355400 0.513520 0.588790 -0.614397
O6    O     O_R   0.644600 0.486480 0.411210 -0.614399
O7    O     O_R   0.644550 0.486570 0.578900 -0.554732
O8    O     O_R   0.355450 0.513430 0.421100 -0.554723
O9    O     O_2   0.379600 0.236897 0.149927 -0.452570
O10   O     O_2   0.620443 0.763284 0.850069 -0.452565
O11   O     O_2   0.627931 0.746767 0.149851 -0.481562
O12   O     O_2   0.372098 0.253419 0.850148 -0.481557
Zn1   Zn    Zn3+2 0.306930 0.518000 0.506610 1.199100
Zn2   Zn    Zn3+2 0.693070 0.482000 0.493390 1.199106
Br1   Br    Br    0.723975 0.963983 0.940406 -0.342787
Br2   Br    Br    0.276033 0.036210 0.059592 -0.342810
F1    F     F_    0.783671 0.407633 0.787829 -0.600230
F2    F     F_    0.216254 0.592287 0.212175 -0.600290
Br3   Br    Br    0.856525 0.368633 0.661706 -0.279850
Br4   Br    Br    0.143328 0.631131 0.338299 -0.279956
Br5   Br    Br    0.752390 0.022320 0.554587 -0.283862
Br6   Br    Br    0.247618 0.977677 0.445408 -0.283886
F3    F     F_    0.030762 0.356889 0.449113 -0.513727
F4    F     F_    0.969237 0.643106 0.550889 -0.513754

loop_
_geom_bond_atom_site_label_1
_geom_bond_atom_site_label_2
_ccdc_geom_bond_type
O4    Zn1   S    
C21   O11   S    
C5    C7    A    
N3    Zn2   S    
C3    F1    S    
C11   H5    S    
C1    C15   S    
C19   O9    S    
N4    Zn1   S    
C25   C27   A    
O7    Zn2   S    
C2    C16   S    
N3    N4    D    
O2    Zn2   S    
C26   C28   A    
O8    Zn1   S    
C21   N1    A    
C32   Br2   S    
C6    Br4   S    
C9    C11   A    
C22   N2    A    
C31   Br1   S    
C21   C23   A    
C14   N1    S    
C3    C5    A    
C5    Br3   S    
C18   O6    A    
C20   O10   S    
C2    O4    A    
C30   C32   A    
C22   O12   S    
C4    F2    S    
C10   C12   A    
C27   C32   A    
C6    C8    A    
C23   C29   A    
O5    Zn1   S    
O3    Zn2   S    
N4    F4    S    
C24   C26   A    
C8    C18   S    
C7    C9    A    
C23   C25   A    
C4    C14   A    
C16   Br6   S    
C20   N2    A    
C22   C24   A    
C4    C6    A    
C30   H2    S    
C19   N1    A    
C9    H3    S    
C15   C16   D    
C12   H6    S    
C29   H1    S    
C11   C13   A    
C19   C27   A    
C2    O2    A    
C18   O8    A    
C8    C10   A    
C1    O3    A    
O1    Zn1   S    
O6    Zn2   S    
C15   Br5   S    
C13   N2    S    
N3    F3    S    
C20   C28   A    
C7    C17   S    
C25   C26   A    
C29   C31   A    
C1    O1    A    
C28   C31   A    
C17   O7    A    
C24   C30   A    
C17   O5    A    
C12   C14   A    
C10   H4    S    
C3    C13   A    
