data_mof_unit_46713.cif
_audit_creation_date              2012-12-11T14:40:07-0500
_audit_creation_method            fapswitch 2.2
_symmetry_space_group_name_H-M    P1
_symmetry_Int_Tables_number       1
_space_group_crystal_system       triclinic
_cell_length_a                    19.570649
_cell_length_b                    10.857146
_cell_length_c                    19.463315
_cell_angle_alpha                 89.80267
_cell_angle_beta                  97.660575
_cell_angle_gamma                 89.320004
_cell_volume                      4098.34143222

loop_
_atom_site_label
_atom_site_type_symbol
_atom_type_description
_atom_site_fract_x
_atom_site_fract_y
_atom_site_fract_z
_atom_type_partial_charge
C1    C     C_R   0.706410 0.002532 0.365633 0.561506
C2    C     C_R   0.292245 0.000077 0.633112 0.556062
C3    C     C_R   0.207139 0.500165 0.366278 0.548039
C4    C     C_R   0.793208 0.502537 0.633569 0.566614
C5    C     C_3   0.726419 0.349025 0.487345 -0.119256
C6    C     C_3   0.270361 0.337229 0.512378 -0.113513
C7    C     C_3   0.190305 0.894624 0.489034 -0.135788
C8    C     C_3   0.802703 0.922521 0.519893 -0.119353
C9    C     C_3   0.753493 0.420905 0.428895 0.055070
C10   C     C_3   0.246519 0.415574 0.570318 0.059843
C11   C     C_3   0.242091 0.880044 0.437170 0.058848
C12   C     C_3   0.747513 0.914894 0.568747 0.057867
C13   C     C_3   0.731606 0.543250 0.458329 -0.136563
C14   C     C_3   0.271856 0.532936 0.539566 -0.138053
C15   C     C_3   0.270711 0.009149 0.453242 -0.112127
C16   C     C_3   0.715742 0.038707 0.543168 -0.145387
C17   C     C_3   0.804365 0.550887 0.501437 -0.147562
C18   C     C_3   0.199072 0.549983 0.497405 -0.153924
C19   C     C_3   0.324953 0.951135 0.509560 -0.127982
C20   C     C_3   0.667050 0.968923 0.487568 -0.130517
C21   C     C_3   0.825684 0.427645 0.470412 -0.114180
C22   C     C_3   0.174299 0.431356 0.529761 -0.113944
C23   C     C_3   0.296059 0.821941 0.492446 -0.114435
C24   C     C_3   0.699196 0.844699 0.513850 -0.102586
C25   C     C_3   0.798803 0.355387 0.529281 -0.113020
C26   C     C_3   0.197982 0.353384 0.471164 -0.107107
C27   C     C_3   0.244359 0.836813 0.545063 -0.111481
C28   C     C_3   0.754272 0.853529 0.464613 -0.114353
C29   C     C_3   0.777634 0.477500 0.559592 0.052183
C30   C     C_3   0.222794 0.471364 0.439617 0.051514
C31   C     C_3   0.273443 0.964850 0.561613 0.051665
C32   C     C_3   0.722005 0.976473 0.438910 0.051659
C33   C     C_3   0.547700 0.271711 0.966500 0.014903
C34   C     C_3   0.497440 0.273571 0.020167 0.029933
C35   C     C_3   0.047701 0.771707 0.966499 0.014904
C36   C     C_3   0.997441 0.773573 0.020166 0.029833
C37   C     C_3   0.593175 0.173179 0.008633 -0.145979
C38   C     C_3   0.455058 0.170556 0.982130 -0.103727
C39   C     C_3   0.093173 0.673172 0.008632 -0.146129
C40   C     C_3   0.955056 0.670562 0.982130 -0.103765
C41   C     C_3   0.542072 0.175522 0.062309 0.047317
C42   C     C_3   0.505721 0.169357 0.928026 0.055381
C43   C     C_3   0.042070 0.675521 0.062309 0.046995
C44   C     C_3   0.005719 0.669356 0.928026 0.055389
C45   C     C_R   0.534774 0.180193 0.337800 0.549435
C46   C     C_R   0.464945 0.179736 0.661984 0.536759
C47   C     C_R   0.035044 0.680137 0.337996 0.542225
C48   C     C_R   0.965105 0.679682 0.662106 0.534949
C49   C     C_3   0.500046 0.071425 0.024308 -0.118900
C50   C     C_3   0.550245 0.069470 0.969000 -0.139240
C51   C     C_3   0.000041 0.571428 0.024309 -0.118922
C52   C     C_3   0.050240 0.569465 0.969001 -0.139125
C53   C     C_1   0.777073 0.460289 0.912067 -0.011402
C54   C     C_1   0.237080 0.425649 0.095729 -0.009901
C55   C     C_1   0.277060 0.960249 0.912061 -0.011431
C56   C     C_1   0.737083 0.925641 0.095731 -0.009751
C57   C     C_1   0.747161 0.399314 0.033553 -0.049532
C58   C     C_1   0.252262 0.408273 0.965280 -0.053733
C59   C     C_1   0.247145 0.899255 0.033543 -0.049154
C60   C     C_1   0.752264 0.908263 0.965283 -0.053829
C61   C     C_1   0.762918 0.432990 0.968094 -0.052106
C62   C     C_1   0.245576 0.415673 0.036052 -0.053392
C63   C     C_1   0.262902 0.932936 0.968085 -0.051867
C64   C     C_1   0.745579 0.915663 0.036054 -0.053410
C65   C     C_1   0.735295 0.366283 0.089471 -0.008502
C66   C     C_1   0.257150 0.394905 0.904939 -0.008684
C67   C     C_1   0.235282 0.866233 0.089464 -0.009637
C68   C     C_1   0.757152 0.894899 0.904941 -0.008950
C69   C     C_R   0.740857 0.368860 0.359834 0.551122
C70   C     C_R   0.259079 0.367448 0.639934 0.538652
C71   C     C_R   0.228420 0.823397 0.369542 0.534487
C72   C     C_R   0.759749 0.865546 0.638707 0.542224
C73   C     C_R   0.721929 0.952733 0.163694 0.541922
C74   C     C_R   0.293926 0.993984 0.845781 0.556688
C75   C     C_R   0.221927 0.452737 0.163693 0.544452
C76   C     C_R   0.793932 0.494001 0.845781 0.556998
C77   C     C_R   0.563234 0.182563 0.136766 0.546452
C78   C     C_R   0.473482 0.177905 0.856860 0.540770
C79   C     C_R   0.063234 0.682563 0.136766 0.546284
C80   C     C_R   0.973482 0.677905 0.856860 0.540660
C81   C     C_R   0.724671 0.319764 0.155496 0.531546
C82   C     C_R   0.264038 0.360270 0.835645 0.538477
C83   C     C_R   0.224664 0.819738 0.155496 0.534890
C84   C     C_R   0.764038 0.860269 0.835645 0.540301
C85   C     C_1   0.485590 0.171896 0.594584 -0.014325
C86   C     C_1   0.513168 0.172530 0.404786 -0.016414
C87   C     C_1   0.986347 0.671544 0.594976 -0.016640
C88   C     C_1   0.014140 0.672070 0.405271 -0.018463
C89   C     C_1   0.503050 0.169230 0.464273 -0.063082
C90   C     C_1   0.495132 0.168866 0.534931 -0.061789
C91   C     C_1   0.004372 0.668354 0.464846 -0.063897
C92   C     C_1   0.996312 0.668119 0.535459 -0.063664
C93   C     C_3   0.705198 0.471603 0.518189 -0.105153
C94   C     C_3   0.295220 0.455459 0.480154 -0.105272
C95   C     C_3   0.219314 0.024200 0.506900 -0.125489
C96   C     C_3   0.770706 0.046911 0.492653 -0.132015
Cr1   Cr    Cr6+3 0.765830 0.160660 0.268180 1.018474
Cr2   Cr    Cr6+3 0.234170 0.160660 0.731820 1.021474
Cr3   Cr    Cr6+3 0.265830 0.660660 0.268180 1.018439
Cr4   Cr    Cr6+3 0.734170 0.660660 0.731820 1.020465
Cr5   Cr    Cr6+3 0.612110 0.009150 0.248770 1.020322
Cr6   Cr    Cr6+3 0.387890 0.009150 0.751230 1.017921
Cr7   Cr    Cr6+3 0.112110 0.509150 0.248770 1.018023
Cr8   Cr    Cr6+3 0.887890 0.509150 0.751230 1.018073
Cr9   Cr    Cr6+3 0.615930 0.324050 0.248450 1.017084
Cr10  Cr    Cr6+3 0.384070 0.324050 0.751550 1.015146
Cr11  Cr    Cr6+3 0.115930 0.824050 0.248450 1.018322
Cr12  Cr    Cr6+3 0.884070 0.824050 0.751550 1.014268
H1    H     H_    0.692235 0.268246 0.478972 0.108225
H2    H     H_    0.300791 0.250274 0.520686 0.102689
H3    H     H_    0.134926 0.870444 0.478833 0.119523
H4    H     H_    0.858538 0.902938 0.534821 0.128602
H5    H     H_    0.655982 0.489631 0.539107 0.129430
H6    H     H_    0.344475 0.465375 0.458333 0.130972
H7    H     H_    0.187817 0.106317 0.516320 0.124153
H8    H     H_    0.801317 0.125815 0.478593 0.129490
H9    H     H_    0.701783 0.615006 0.426162 0.120397
H10   H     H_    0.304016 0.599832 0.571869 0.118459
H11   H     H_    0.280680 0.078588 0.413890 0.131798
H12   H     H_    0.700738 0.113289 0.577258 0.119834
H13   H     H_    0.380325 0.975220 0.519725 0.121140
H14   H     H_    0.611205 0.986870 0.472374 0.124312
H15   H     H_    0.837206 0.633504 0.509760 0.106848
H16   H     H_    0.167983 0.635833 0.488304 0.098572
H17   H     H_    0.874911 0.409838 0.449452 0.130859
H18   H     H_    0.125128 0.421739 0.551792 0.128798
H19   H     H_    0.328208 0.739892 0.484136 0.125504
H20   H     H_    0.669503 0.761034 0.522934 0.131640
H21   H     H_    0.826731 0.279513 0.559914 0.133326
H22   H     H_    0.167524 0.280458 0.441829 0.131619
H23   H     H_    0.232835 0.770641 0.585412 0.130680
H24   H     H_    0.771355 0.783572 0.429048 0.123873
H25   H     H_    0.650199 0.173577 0.020724 0.101546
H26   H     H_    0.397914 0.169295 0.970392 0.107391
H27   H     H_    0.150198 0.673561 0.020722 0.101064
H28   H     H_    0.897913 0.669306 0.970393 0.107156
H29   H     H_    0.480131 0.989470 0.049120 0.138622
H30   H     H_    0.571813 0.986249 0.946359 0.128397
H31   H     H_    0.980124 0.489475 0.049121 0.138361
H32   H     H_    0.071806 0.486243 0.946360 0.128255
O1    O     O_R   0.783230 0.287800 0.346510 -0.524708
O2    O     O_R   0.216770 0.287800 0.653490 -0.529438
O3    O     O_R   0.283230 0.787800 0.346510 -0.507964
O4    O     O_R   0.716770 0.787800 0.653490 -0.528546
O5    O     O_R   0.554500 0.081650 0.170370 -0.493492
O6    O     O_R   0.445500 0.081650 0.829630 -0.515548
O7    O     O_R   0.054500 0.581650 0.170370 -0.493095
O8    O     O_R   0.945500 0.581650 0.829630 -0.515948
O9    O     O_R   0.545430 0.285140 0.163100 -0.518626
O10   O     O_R   0.454570 0.285140 0.836900 -0.517211
O11   O     O_R   0.045430 0.785140 0.163100 -0.518222
O12   O     O_R   0.954570 0.785140 0.836900 -0.516775
O13   O     O_R   0.677850 0.374730 0.185500 -0.502244
O14   O     O_R   0.322150 0.374730 0.814500 -0.493896
O15   O     O_R   0.177850 0.874730 0.185500 -0.493966
O16   O     O_R   0.822150 0.874730 0.814500 -0.492518
O17   O     O_3   0.664630 0.164620 0.255130 -0.311121
O18   O     O_3   0.335370 0.164620 0.744870 -0.288315
O19   O     O_3   0.164630 0.664620 0.255130 -0.323220
O20   O     O_3   0.835370 0.664620 0.744870 -0.289964
O21   O     O_R   0.760130 0.037060 0.338610 -0.496005
O22   O     O_R   0.239870 0.037060 0.661390 -0.490408
O23   O     O_R   0.260130 0.537060 0.338610 -0.509566
O24   O     O_R   0.739870 0.537060 0.661390 -0.496698
O25   O     O_R   0.666620 0.921370 0.332440 -0.510626
O26   O     O_R   0.333380 0.921370 0.667560 -0.507605
O27   O     O_R   0.166620 0.421370 0.332440 -0.507292
O28   O     O_R   0.833380 0.421370 0.667560 -0.510101
O29   O     O_R   0.557170 0.082420 0.312350 -0.506651
O30   O     O_R   0.442830 0.082420 0.687650 -0.515324
O31   O     O_R   0.057170 0.582420 0.312350 -0.503877
O32   O     O_R   0.942830 0.582420 0.687650 -0.514005
O33   O     O_R   0.548310 0.285980 0.316250 -0.500245
O34   O     O_R   0.451690 0.285980 0.683750 -0.503542
O35   O     O_R   0.048310 0.785980 0.316250 -0.509098
O36   O     O_R   0.951690 0.785980 0.683750 -0.507891
O37   O     O_R   0.680520 0.375500 0.327470 -0.495197
O38   O     O_R   0.319480 0.375500 0.672530 -0.498189
O39   O     O_R   0.180520 0.875500 0.327470 -0.486271
O40   O     O_R   0.819480 0.875500 0.672530 -0.500316
O41   O     O_R   0.780350 0.286970 0.193350 -0.495369
O42   O     O_R   0.219650 0.286970 0.806650 -0.515953
O43   O     O_R   0.280350 0.786970 0.193350 -0.487738
O44   O     O_R   0.719650 0.786970 0.806650 -0.514903
O45   O     O_R   0.757460 0.036290 0.196640 -0.505889
O46   O     O_R   0.242540 0.036290 0.803360 -0.486058
O47   O     O_R   0.257460 0.536290 0.196640 -0.505893
O48   O     O_R   0.742540 0.536290 0.803360 -0.485861
O49   O     O_R   0.663740 0.920540 0.179290 -0.506800
O50   O     O_R   0.336260 0.920540 0.820710 -0.496522
O51   O     O_R   0.163740 0.420540 0.179290 -0.504638
O52   O     O_R   0.836260 0.420540 0.820710 -0.495718
C97   C     C_3   0.576446 0.385075 0.934672 -0.378303
H33   H     H_    0.605745 0.440353 0.976167 0.134446
H34   H     H_    0.611124 0.356341 0.896791 0.145360
H35   H     H_    0.533751 0.443006 0.908194 0.159168
C98   C     C_3   0.463770 0.390131 0.044354 -0.362799
H36   H     H_    0.432872 0.436220 0.999338 0.131244
H37   H     H_    0.429148 0.366163 0.083016 0.157591
H38   H     H_    0.503988 0.454293 0.067722 0.152815
C99   C     C_3   0.076448 0.885067 0.934669 -0.378325
H39   H     H_    0.105746 0.940349 0.976162 0.134489
H40   H     H_    0.111127 0.856329 0.896790 0.145191
H41   H     H_    0.033755 0.942996 0.908188 0.159296
C100  C     C_3   0.963774 0.890137 0.044353 -0.362808
H42   H     H_    0.932878 0.936227 0.999337 0.131308
H43   H     H_    0.929152 0.866172 0.083015 0.157431
H44   H     H_    0.003994 0.954295 0.067721 0.152995

loop_
_geom_bond_atom_site_label_1
_geom_bond_atom_site_label_2
_ccdc_geom_bond_type
C58   C62   S    
Cr9   O13   S    
C67   C83   S    
Cr10  O10   S    
C49   H29   S    
C98   H38   S    
C17   C29   S    
C99   H39   S    
C14   C18   S    
C7    C27   S    
C35   C39   S    
C35   C36   S    
C8    C96   S    
C81   O41   A    
C44   C80   S    
C19   C31   S    
C69   O37   A    
Cr3   O47   S    
C94   H6    S    
C3    O27   A    
C38   C49   S    
C39   H27   S    
C100  H42   S    
C10   C22   S    
C15   C19   S    
C97   H33   S    
C40   H28   S    
Cr5   O5    S    
Cr11  O35   S    
C33   C42   S    
C79   O11   A    
C16   C20   S    
Cr4   O48   S    
C9    C69   S    
C38   C42   S    
Cr3   O19   S    
C16   H12   S    
C15   C95   S    
C73   O49   A    
C11   C71   S    
C13   H9    S    
C22   H18   S    
C83   O15   A    
Cr1   O45   S    
C69   O1    A    
Cr8   O52   S    
C81   O13   A    
Cr12  O40   S    
C80   O12   A    
C46   O34   A    
C71   O39   A    
C57   C61   S    
C98   H37   S    
C9    C13   S    
C59   C67   T    
Cr12  O12   S    
C55   C74   S    
C11   C15   S    
C17   H15   S    
Cr9   O17   S    
Cr2   O18   S    
C95   H7    S    
Cr10  O14   S    
C55   C63   T    
C4    O24   A    
Cr5   O29   S    
C18   C30   S    
C23   C27   S    
C2    O26   A    
C40   C44   S    
C20   H14   S    
C4    C29   S    
C76   O48   A    
C3    O23   A    
Cr8   O32   S    
C46   C85   S    
Cr11  O11   S    
C44   C52   S    
C39   C52   S    
C12   C72   S    
C33   C97   S    
Cr6   O26   S    
Cr9   O33   S    
C87   C92   T    
Cr2   O2    S    
Cr7   O31   S    
C99   H40   S    
Cr6   O18   S    
C98   H36   S    
C34   C41   S    
C53   C61   T    
Cr8   O20   S    
C28   C32   S    
C41   C49   S    
C73   O45   A    
Cr2   O22   S    
C58   C66   T    
C7    C11   S    
C100  H43   S    
C25   C29   S    
C70   O2    A    
C16   C96   S    
C29   C93   S    
C27   C31   S    
C51   C52   S    
C68   C84   S    
C12   C16   S    
C84   O44   A    
C10   C14   S    
C77   O9    A    
C91   C92   S    
C97   H34   S    
C19   C23   S    
C35   C99   S    
C39   C43   S    
C54   C62   T    
C6    C94   S    
Cr10  O18   S    
C1    C32   S    
C33   C37   S    
C27   H23   S    
C4    O28   A    
C82   O14   A    
C13   C93   S    
C2    C31   S    
C28   H24   S    
Cr1   O17   S    
C6    H2    S    
C3    C30   S    
C75   O51   A    
C5    C9    S    
C76   O52   A    
C45   O33   A    
Cr8   O28   S    
Cr4   O20   S    
C47   O31   A    
Cr12  O16   S    
C88   C91   T    
C36   C40   S    
C8    C12   S    
C97   H35   S    
C57   C65   T    
Cr11  O19   S    
C74   O50   A    
C56   C64   T    
C33   C34   S    
Cr10  O34   S    
C48   C87   S    
C83   O43   A    
Cr4   O24   S    
C78   O10   A    
C93   H5    S    
Cr7   O27   S    
Cr5   O25   S    
C35   C44   S    
Cr1   O1    S    
C42   C50   S    
Cr3   O23   S    
C10   C70   S    
C14   C94   S    
C32   C96   S    
C14   H10   S    
Cr1   O21   S    
C1    O21   A    
Cr4   O4    S    
C8    C28   S    
C99   H41   S    
C5    C25   S    
C59   C63   S    
C53   C76   S    
Cr7   O51   S    
C72   O40   A    
C21   H17   S    
C9    C21   S    
C77   O5    A    
C7    C95   S    
C48   O32   A    
C42   C78   S    
C23   H19   S    
C20   C32   S    
C100  H44   S    
Cr3   O3    S    
C72   O4    A    
C21   C25   S    
C19   H13   S    
C56   C73   S    
Cr11  O39   S    
C1    O25   A    
C34   C38   S    
Cr3   O43   S    
C75   O47   A    
C24   C28   S    
Cr9   O37   S    
C86   C89   T    
C26   H22   S    
C6    C10   S    
C5    C93   S    
C85   C90   T    
C50   H30   S    
Cr1   O41   S    
Cr12  O20   S    
Cr7   O7    S    
Cr2   O42   S    
C7    H3    S    
C40   C51   S    
Cr9   O9    S    
C82   O42   A    
Cr5   O49   S    
C13   C17   S    
C60   C64   S    
C47   C88   S    
C20   C24   S    
C18   C22   S    
C45   C86   S    
Cr8   O8    S    
Cr2   O46   S    
C70   O38   A    
Cr6   O6    S    
C41   C77   S    
C37   C50   S    
C84   O16   A    
C34   C98   S    
Cr7   O19   S    
C6    C26   S    
C71   O3    A    
C5    H1    S    
Cr6   O30   S    
C43   C51   S    
C31   C95   S    
Cr12  O36   S    
C11   C23   S    
Cr6   O50   S    
C8    H4    S    
C15   H11   S    
C79   O7    A    
C37   H25   S    
C36   C100  S    
C38   H26   S    
C37   C41   S    
C12   C24   S    
Cr4   O44   S    
C17   C21   S    
C78   O6    A    
C47   O35   A    
Cr5   O17   S    
C54   C75   S    
C52   H32   S    
C46   O30   A    
C80   O8    A    
C60   C68   T    
C30   C94   S    
C49   C50   S    
C22   C26   S    
C24   H20   S    
C65   C81   S    
C96   H8    S    
C36   C43   S    
C25   H21   S    
C74   O46   A    
C89   C90   S    
C43   C79   S    
Cr10  O38   S    
Cr11  O15   S    
C45   O29   A    
C66   C82   S    
C18   H16   S    
C2    O22   A    
C48   O36   A    
C26   C30   S    
C51   H31   S    
