data_mof_unit_18133.cif
_audit_creation_date              2012-12-10T19:04:15-0500
_audit_creation_method            fapswitch 2.2
_symmetry_space_group_name_H-M    P1
_symmetry_Int_Tables_number       1
_space_group_crystal_system       triclinic
_cell_length_a                    10.790537
_cell_length_b                    12.999755
_cell_length_c                    13.574386
_cell_angle_alpha                 85.264152
_cell_angle_beta                  89.287122
_cell_angle_gamma                 93.56454
_cell_volume                      1893.67028566

loop_
_atom_site_label
_atom_site_type_symbol
_atom_type_description
_atom_site_fract_x
_atom_site_fract_y
_atom_site_fract_z
_atom_type_partial_charge
C1    C     C_R   0.498562 0.480685 0.685360 0.951333
C2    C     C_1   0.496335 0.464456 0.788709 -0.161063
C3    C     C_2   0.463476 0.031356 0.472474 0.395163
C4    C     C_R   0.742954 0.500156 0.498557 1.091576
C5    C     C_2   0.536916 0.968515 0.527993 0.306193
C6    C     C_1   0.526198 0.854940 0.519714 0.036697
C7    C     C_1   0.473961 0.145022 0.480332 0.039968
C8    C     C_R   0.501302 0.519346 0.314679 0.873174
C9    C     C_R   0.256864 0.499354 0.501385 1.036262
C10   C     C_3   0.917485 0.387466 0.542034 0.825869
C11   C     C_3   0.063751 0.390399 0.548779 0.105763
C12   C     C_3   0.120112 0.497203 0.498122 -0.365582
C13   C     C_3   0.929337 0.524174 0.385295 0.653142
C14   C     C_3   0.931660 0.586485 0.561645 0.110546
C15   C     C_3   0.880067 0.499434 0.496784 -0.313971
C16   C     C_3   0.867374 0.211689 0.502888 0.153132
C17   C     C_3   0.834226 0.150675 0.414983 -0.776693
C18   C     C_3   0.135020 0.749074 0.477015 -0.152506
C19   C     C_3   0.806213 0.652374 0.299514 0.125957
C20   C     C_3   0.766953 0.759275 0.319263 -0.841403
C21   C     C_3   0.136882 0.621657 0.236888 0.104902
C22   C     C_3   0.236981 0.705375 0.203842 -0.873432
C23   C     C_3   0.075529 0.508042 0.385268 0.679029
C24   C     C_3   0.504191 0.273802 0.996480 0.103760
C25   C     C_3   0.506217 0.181342 0.072699 -0.836153
C26   C     C_3   0.536574 0.726745 0.002828 0.105541
C27   C     C_3   0.551408 0.819222 0.926397 -0.825569
C28   C     C_3   0.686868 0.941785 0.649594 0.109079
C29   C     C_3   0.771104 0.997610 0.719674 -0.882085
C30   C     C_3   0.303722 0.055415 0.358752 -0.354992
C31   C     C_3   0.880057 0.292367 0.706473 -0.186675
C32   C     C_3   0.175589 0.289837 0.667404 -0.331057
C33   C     C_3   0.889761 0.446450 0.227658 0.174616
C34   C     C_3   0.073355 0.583127 0.564322 0.233672
C35   C     C_3   0.773749 0.430393 0.167154 -0.879888
C36   C     C_3   0.209740 0.392519 0.305661 0.120874
C37   C     C_3   0.200274 0.342420 0.208135 -0.923340
C38   C     C_3   0.869008 0.663639 0.702354 0.121960
C39   C     C_3   0.824713 0.640841 0.809162 -0.798443
C40   C     C_1   0.497671 0.535836 0.211484 -0.207659
C41   C     C_2   0.496324 0.546935 0.018686 0.403785
C42   C     C_2   0.493471 0.454279 0.981688 0.404164
C43   C     C_1   0.494636 0.455154 0.876406 -0.108735
C44   C     C_1   0.495334 0.545825 0.123899 -0.108033
H1    H     H_    0.095911 0.328534 0.504303 0.151912
H2    H     H_    0.220183 0.745916 0.431209 0.243792
H3    H     H_    0.134608 0.829206 0.499377 0.150764
H4    H     H_    0.727704 0.595844 0.317277 0.186762
H5    H     H_    0.828839 0.654006 0.219510 0.126417
H6    H     H_    0.842264 0.818592 0.295485 0.236849
H7    H     H_    0.681880 0.776504 0.277379 0.217460
H8    H     H_    0.747487 0.763014 0.399293 0.261539
H9    H     H_    0.048372 0.656513 0.219719 0.181282
H10   H     H_    0.148276 0.555533 0.192521 0.149478
H11   H     H_    0.329663 0.680723 0.225986 0.270540
H12   H     H_    0.905793 0.662344 0.526572 0.150671
H13   H     H_    0.235901 0.721351 0.122226 0.214134
H14   H     H_    0.219953 0.777722 0.238644 0.253314
H15   H     H_    0.593591 0.280111 0.953814 0.144073
H16   H     H_    0.425099 0.260066 0.946303 0.148458
H17   H     H_    0.417340 0.171798 0.115604 0.249512
H18   H     H_    0.518789 0.109997 0.034957 0.205477
H19   H     H_    0.584084 0.192927 0.124232 0.258443
H20   H     H_    0.627621 0.717412 0.039325 0.131662
H21   H     H_    0.465105 0.742869 0.058315 0.154276
H22   H     H_    0.461973 0.831178 0.888808 0.262908
H23   H     H_    0.091743 0.552882 0.641207 0.236475
H24   H     H_    0.580350 0.889903 0.963071 0.201577
H25   H     H_    0.623244 0.805891 0.870433 0.249363
H26   H     H_    0.746020 0.898568 0.601704 0.125984
H27   H     H_    0.621595 0.886925 0.695073 0.155121
H28   H     H_    0.715710 0.045046 0.766005 0.260632
H29   H     H_    0.818321 0.940149 0.768668 0.208684
H30   H     H_    0.842752 0.048341 0.677011 0.233206
H31   H     H_    0.360014 0.113456 0.309321 0.177448
H32   H     H_    0.246148 0.093849 0.411674 0.161280
H33   H     H_    0.239314 0.012181 0.311592 0.189578
H34   H     H_    0.790856 0.194825 0.558381 0.207230
H35   H     H_    0.926817 0.329755 0.767833 0.215138
H36   H     H_    0.938007 0.233428 0.680058 0.117205
H37   H     H_    0.793569 0.251240 0.738011 0.145951
H38   H     H_    0.274536 0.309371 0.648633 0.225162
H39   H     H_    0.141484 0.221461 0.629103 0.125485
H40   H     H_    0.170258 0.266546 0.747885 0.175209
H41   H     H_    0.941907 0.376474 0.221434 0.219654
H42   H     H_    0.943102 0.514590 0.193270 0.091716
H43   H     H_    0.731533 0.505150 0.151867 0.226727
H44   H     H_    0.798477 0.401707 0.095062 0.215292
H45   H     H_    0.957040 0.185150 0.531038 0.082578
H46   H     H_    0.706025 0.373342 0.207102 0.299976
H47   H     H_    0.247846 0.333130 0.357881 0.191557
H48   H     H_    0.273997 0.461569 0.296034 0.181256
H49   H     H_    0.160500 0.394349 0.149591 0.240557
H50   H     H_    0.294198 0.323941 0.183447 0.270886
H51   H     H_    0.140574 0.269440 0.218259 0.247869
H52   H     H_    0.799685 0.710650 0.662414 0.132589
H53   H     H_    0.960155 0.708808 0.701662 0.163213
H54   H     H_    0.890710 0.592083 0.850667 0.251923
H55   H     H_    0.819068 0.714365 0.844680 0.193211
H56   H     H_    0.907962 0.165208 0.356756 0.243113
H57   H     H_    0.731375 0.599535 0.812008 0.273802
H58   H     H_    0.825348 0.066670 0.438748 0.205085
H59   H     H_    0.744560 0.174301 0.383887 0.261364
H60   H     H_    0.052245 0.737337 0.432542 0.196160
N1    N     N_1   0.479840 0.234530 0.484780 -0.110022
N2    N     N_1   0.520150 0.765470 0.515220 -0.100952
O1    O     O_R   0.492620 0.402510 0.634760 -0.633511
O2    O     O_3   0.140557 0.681605 0.563450 -0.617556
O3    O     O_3   0.912357 0.630587 0.355441 -0.704383
O4    O     O_3   0.148991 0.595673 0.339415 -0.646841
O5    O     O_3   0.489545 0.363851 0.045827 -0.635894
O6    O     O_3   0.499153 0.637646 0.955086 -0.626233
O7    O     O_3   0.620913 0.014691 0.591570 -0.645544
O8    O     O_3   0.379925 0.984629 0.408981 -0.632979
O9    O     O_3   0.846878 0.369275 0.633646 -0.577587
O10   O     O_3   0.104417 0.377185 0.648489 -0.615993
O11   O     O_3   0.856367 0.453771 0.328069 -0.597912
O12   O     O_R   0.505570 0.572960 0.644530 -0.594619
O13   O     O_3   0.090382 0.413565 0.339368 -0.676163
O14   O     O_3   0.879616 0.569324 0.659041 -0.561538
O15   O     O_R   0.678730 0.414780 0.495130 -0.538232
O16   O     O_R   0.691680 0.585220 0.504900 -0.657046
O17   O     O_R   0.494430 0.427040 0.355470 -0.612134
O18   O     O_R   0.507380 0.597490 0.365240 -0.628028
O19   O     O_R   0.308320 0.414780 0.495100 -0.689488
O20   O     O_R   0.321270 0.585220 0.504870 -0.547006
O21   O     O_3   0.876974 0.317667 0.470734 -0.596482
Zn1   Zn    Zn3+2 0.491360 0.386190 0.493470 0.971409
Zn2   Zn    Zn3+2 0.508640 0.613810 0.506530 0.986877

loop_
_geom_bond_atom_site_label_1
_geom_bond_atom_site_label_2
_ccdc_geom_bond_type
N2    Zn2   S    
C14   H12   S    
C33   O11   S    
C41   C42   D    
C19   C20   S    
C33   H42   S    
C18   H3    S    
C22   H13   S    
C21   O4    S    
C31   H36   S    
C12   C23   S    
C13   C23   S    
C26   C27   S    
O18   Zn2   S    
C36   C37   S    
O1    Zn1   S    
C20   H7    S    
C3    C7    S    
C10   C15   S    
C23   O13   S    
C38   C39   S    
C29   H29   S    
C37   H51   S    
C1    C2    S    
C25   H19   S    
C32   H39   S    
C36   O13   S    
C33   H41   S    
C20   H6    S    
C27   H24   S    
C30   H33   S    
C35   H43   S    
C16   C17   S    
C41   O6    S    
C37   H50   S    
O19   Zn1   S    
C13   O3    S    
C7    N1    T    
O16   Zn2   S    
C27   H25   S    
C25   H18   S    
C29   H28   S    
C38   O14   S    
C36   H48   S    
C16   H45   S    
C21   C22   S    
C24   O5    S    
C38   H53   S    
C18   H2    S    
C31   O9    S    
C16   O21   S    
C39   H57   S    
C19   O3    S    
C32   H40   S    
C4    O16   A    
C24   C25   S    
O15   Zn1   S    
C28   O7    S    
C19   H4    S    
C8    O18   A    
C39   H54   S    
C25   H17   S    
C29   H30   S    
O20   Zn2   S    
C9    O19   A    
C17   H58   S    
C22   H14   S    
C30   H32   S    
C35   H44   S    
C19   H5    S    
C39   H55   S    
C2    C43   T    
C24   H16   S    
C6    N2    T    
C37   H49   S    
C18   H60   S    
C32   O10   S    
C11   O10   S    
C1    O1    A    
C36   H47   S    
C14   O14   S    
C13   C15   S    
C41   C44   S    
C11   H1    S    
C28   H27   S    
C42   C43   S    
C12   C34   S    
C10   O21   S    
C26   O6    S    
C30   O8    S    
C23   O4    S    
C28   C29   S    
N1    Zn1   S    
C5    O7    S    
C9    C12   S    
C26   H21   S    
C42   O5    S    
C28   H26   S    
C3    C5    D    
C3    O8    S    
C34   H23   S    
C14   C34   S    
C13   O11   S    
C11   C12   S    
C8    O17   A    
C31   H35   S    
C22   H11   S    
C26   H20   S    
C32   H38   S    
C9    O20   A    
C31   H37   S    
C21   H10   S    
C34   O2    S    
C4    C15   S    
C17   H59   S    
C20   H8    S    
O12   Zn2   S    
C21   H9    S    
C30   H31   S    
O17   Zn1   S    
C5    C6    S    
C24   H15   S    
C33   C35   S    
C4    O15   A    
C16   H34   S    
C1    O12   A    
C17   H56   S    
C18   O2    S    
C10   C11   S    
C35   H46   S    
C40   C44   T    
C38   H52   S    
C27   H22   S    
C14   C15   S    
C8    C40   S    
C10   O9    S    
