data_mof_unit_11236.cif
_audit_creation_date              2012-12-10T19:29:28-0500
_audit_creation_method            fapswitch 2.2
_symmetry_space_group_name_H-M    P1
_symmetry_Int_Tables_number       1
_space_group_crystal_system       triclinic
_cell_length_a                    22.281567
_cell_length_b                    22.266355
_cell_length_c                    14.948373
_cell_angle_alpha                 90.001178
_cell_angle_beta                  90.425315
_cell_angle_gamma                 89.999869
_cell_volume                      7416.12121334

loop_
_atom_site_label
_atom_site_type_symbol
_atom_type_description
_atom_site_fract_x
_atom_site_fract_y
_atom_site_fract_z
_atom_type_partial_charge
C1    C     C_R   0.418882 0.918720 0.499772 0.895036
C2    C     C_R   0.581121 0.081277 0.500227 0.895029
C3    C     C_R   0.581121 0.918723 0.500226 0.894999
C4    C     C_R   0.418882 0.081280 0.499774 0.895047
C5    C     C_R   0.918876 0.418726 0.499773 0.895021
C6    C     C_R   0.081115 0.581283 0.500228 0.895047
C7    C     C_R   0.081121 0.418722 0.500227 0.895042
C8    C     C_R   0.918882 0.581280 0.499774 0.895007
C9    C     C_1   0.337531 0.163654 0.499124 0.110111
C10   C     C_1   0.662513 0.836388 0.500879 0.110148
C11   C     C_1   0.662487 0.163636 0.500875 0.110097
C12   C     C_1   0.337500 0.836375 0.499105 0.110100
C13   C     C_1   0.837538 0.663660 0.499127 0.110114
C14   C     C_1   0.162506 0.336381 0.500882 0.110140
C15   C     C_1   0.162448 0.663675 0.500889 0.110068
C16   C     C_1   0.837472 0.336403 0.499121 0.110119
C17   C     C_1   0.499985 0.000001 0.189827 0.063035
C18   C     C_1   0.500014 0.000000 0.810173 0.063099
C19   C     C_1   0.999984 0.500000 0.189827 0.063088
C20   C     C_1   0.000016 0.500001 0.810173 0.063032
C21   C     C_3   0.471769 0.950849 0.969906 0.126636
C22   C     C_3   0.528228 0.049154 0.030094 0.126687
C23   C     C_3   0.528606 0.951068 0.030096 0.126767
C24   C     C_3   0.471391 0.048933 0.969903 0.126721
C25   C     C_3   0.971785 0.450840 0.969905 0.126653
C26   C     C_3   0.028216 0.549161 0.030096 0.126634
C27   C     C_3   0.028622 0.451076 0.030097 0.126712
C28   C     C_3   0.971379 0.548926 0.969904 0.126764
C29   C     C_3   0.698093 0.724651 0.525355 -0.103850
C30   C     C_3   0.301876 0.275317 0.474059 -0.103817
C31   C     C_3   0.301619 0.724904 0.472877 -0.103909
C32   C     C_3   0.698247 0.275174 0.526774 -0.103853
C33   C     C_3   0.198177 0.224730 0.525954 -0.103856
C34   C     C_3   0.801977 0.775413 0.474656 -0.103804
C35   C     C_3   0.801697 0.224877 0.473218 -0.103889
C36   C     C_3   0.198309 0.775163 0.527111 -0.103863
C37   C     C_3   0.234411 0.206359 0.442669 0.351464
C38   C     C_3   0.765454 0.793496 0.557799 0.351592
C39   C     C_3   0.765871 0.206085 0.556687 0.351513
C40   C     C_3   0.233980 0.794093 0.443560 0.351590
C41   C     C_3   0.734615 0.706570 0.442213 0.351472
C42   C     C_3   0.265641 0.293690 0.557344 0.351581
C43   C     C_3   0.265949 0.705975 0.556429 0.351494
C44   C     C_3   0.734074 0.293968 0.443304 0.351572
C45   C     C_1   0.374857 0.125899 0.499299 -0.137938
C46   C     C_1   0.625168 0.874124 0.500702 -0.137943
C47   C     C_1   0.625156 0.125887 0.500702 -0.137998
C48   C     C_1   0.374842 0.874114 0.499290 -0.138002
C49   C     C_1   0.874860 0.625903 0.499300 -0.137907
C50   C     C_1   0.125164 0.374120 0.500703 -0.137969
C51   C     C_1   0.125129 0.625914 0.500708 -0.137965
C52   C     C_1   0.874821 0.374135 0.499297 -0.138030
C53   C     C_3   0.256388 0.227228 0.582527 0.352865
C54   C     C_3   0.743959 0.773117 0.417620 0.352738
C55   C     C_3   0.743219 0.227635 0.417291 0.352910
C56   C     C_3   0.256899 0.772264 0.582762 0.352860
C57   C     C_3   0.756110 0.726948 0.582393 0.352815
C58   C     C_3   0.243663 0.272820 0.417486 0.352784
C59   C     C_3   0.243030 0.727803 0.417226 0.352914
C60   C     C_3   0.756726 0.272417 0.582700 0.352880
C61   C     C_3   0.292249 0.209041 0.499296 -0.145477
C62   C     C_3   0.707809 0.791015 0.500709 -0.145437
C63   C     C_3   0.707765 0.209027 0.500706 -0.145499
C64   C     C_3   0.292198 0.791007 0.499268 -0.145483
C65   C     C_3   0.792258 0.709049 0.499302 -0.145464
C66   C     C_3   0.207801 0.291007 0.500715 -0.145450
C67   C     C_3   0.207732 0.709059 0.500721 -0.145508
C68   C     C_3   0.792180 0.291025 0.499286 -0.145478
C69   C     C_3   0.442801 0.999780 0.029680 -0.232943
C70   C     C_3   0.557197 0.000222 0.970320 -0.232842
C71   C     C_3   0.942802 0.499763 0.029678 -0.232830
C72   C     C_3   0.057199 0.500238 0.970323 -0.232899
C73   C     C_3   0.500124 0.000002 0.089550 -0.021186
C74   C     C_3   0.499874 0.000000 0.910450 -0.021238
C75   C     C_3   0.000124 0.500001 0.089550 -0.021240
C76   C     C_3   0.999877 0.500000 0.910450 -0.021186
H1    H     H_    0.604080 0.000403 0.945711 0.157761
H2    H     H_    0.395918 0.999600 0.054288 0.157722
H3    H     H_    0.104082 0.500433 0.945714 0.157700
H4    H     H_    0.895919 0.499569 0.054287 0.157755
N1    N     N_1   0.500020 0.000000 0.268010 -0.080867
N2    N     N_1   0.499980 0.000000 0.731990 -0.080847
N3    N     N_1   0.000020 0.500000 0.268010 -0.080847
N4    N     N_1   0.999980 0.500000 0.731990 -0.080867
O1    O     O_R   0.438390 0.938390 0.574460 -0.604936
O2    O     O_R   0.561610 0.061610 0.425540 -0.604944
O3    O     O_R   0.561610 0.938390 0.425540 -0.605130
O4    O     O_R   0.438390 0.061610 0.574460 -0.605105
O5    O     O_R   0.938390 0.438390 0.574460 -0.604943
O6    O     O_R   0.061610 0.561610 0.425540 -0.604940
O7    O     O_R   0.061610 0.438390 0.425540 -0.605106
O8    O     O_R   0.938390 0.561610 0.574460 -0.605133
O9    O     O_R   0.438400 0.938390 0.425520 -0.605030
O10   O     O_R   0.561600 0.061610 0.574480 -0.604979
O11   O     O_R   0.561600 0.938390 0.574480 -0.604714
O12   O     O_R   0.438400 0.061610 0.425520 -0.604798
O13   O     O_R   0.938400 0.438390 0.425520 -0.604978
O14   O     O_R   0.061600 0.561610 0.574480 -0.605028
O15   O     O_R   0.061600 0.438390 0.574480 -0.604796
O16   O     O_R   0.938400 0.561610 0.425520 -0.604715
Zn1   Zn    Zn3+2 0.500000 0.000000 0.599450 1.007484
Zn2   Zn    Zn3+2 0.500000 0.000000 0.400550 1.007400
Zn3   Zn    Zn3+2 0.000000 0.500000 0.599450 1.007401
Zn4   Zn    Zn3+2 0.000000 0.500000 0.400550 1.007481
Cl1   Cl    Cl    0.216532 0.148577 0.364281 -0.548571
Cl2   Cl    Cl    0.783051 0.851002 0.636774 -0.548890
Cl3   Cl    Cl    0.784138 0.147919 0.634239 -0.548766
Cl4   Cl    Cl    0.215606 0.852414 0.366323 -0.548533
Cl5   Cl    Cl    0.717006 0.649066 0.363239 -0.548844
Cl6   Cl    Cl    0.283506 0.351474 0.635734 -0.548645
Cl7   Cl    Cl    0.284333 0.647656 0.633665 -0.548503
Cl8   Cl    Cl    0.715814 0.352136 0.365752 -0.548780
C77   C     C_3   0.637159 0.699429 0.553496 -0.338970
C78   C     C_3   0.640061 0.632081 0.574468 -0.292208
C79   C     C_3   0.578677 0.608200 0.601690 -0.844299
H5    H     H_    0.562681 0.631745 0.662539 0.272159
H6    H     H_    0.545650 0.614776 0.546572 0.260351
H7    H     H_    0.582008 0.559440 0.616451 0.255970
H8    H     H_    0.655350 0.606802 0.514879 0.268241
H9    H     H_    0.672324 0.623663 0.629945 0.266579
H10   H     H_    0.621870 0.724310 0.613615 0.218440
H11   H     H_    0.604375 0.707444 0.498384 0.214876
C80   C     C_3   0.362703 0.300419 0.445189 -0.338891
C81   C     C_3   0.359775 0.367723 0.423913 -0.292467
C82   C     C_3   0.420990 0.391416 0.395527 -0.844292
H12   H     H_    0.454443 0.384847 0.450078 0.260382
H13   H     H_    0.436440 0.367740 0.334471 0.272126
H14   H     H_    0.417656 0.440162 0.380652 0.255988
H15   H     H_    0.327106 0.376083 0.368945 0.266580
H16   H     H_    0.344998 0.393165 0.483640 0.268198
H17   H     H_    0.395732 0.292499 0.500006 0.214646
H18   H     H_    0.377690 0.275383 0.385039 0.218610
C83   C     C_3   0.362230 0.699952 0.442764 -0.338787
C84   C     C_3   0.359062 0.632828 0.420320 -0.292381
C85   C     C_3   0.420122 0.609212 0.391090 -0.845233
H19   H     H_    0.435482 0.633387 0.330419 0.271999
H20   H     H_    0.453734 0.615196 0.445571 0.260365
H21   H     H_    0.416598 0.560614 0.375269 0.256080
H22   H     H_    0.344400 0.606943 0.479687 0.267940
H23   H     H_    0.326207 0.624991 0.365428 0.266631
H24   H     H_    0.376910 0.725443 0.382869 0.218339
H25   H     H_    0.395583 0.707387 0.497297 0.214858
C86   C     C_3   0.637549 0.300110 0.556538 -0.338767
C87   C     C_3   0.640568 0.367294 0.578610 -0.292658
C88   C     C_3   0.579455 0.390842 0.607724 -0.844706
H26   H     H_    0.545842 0.384637 0.553297 0.260337
H27   H     H_    0.564166 0.366792 0.668545 0.272161
H28   H     H_    0.582867 0.439488 0.623265 0.255977
H29   H     H_    0.673414 0.375342 0.633449 0.266721
H30   H     H_    0.655163 0.393062 0.519092 0.267886
H31   H     H_    0.604287 0.292485 0.501940 0.214704
H32   H     H_    0.622822 0.274745 0.616525 0.218483
C89   C     C_3   0.137343 0.199605 0.554751 -0.338917
C90   C     C_3   0.140324 0.132334 0.576249 -0.292305
C91   C     C_3   0.079022 0.108532 0.604019 -0.844460
H33   H     H_    0.063174 0.132298 0.664766 0.272036
H34   H     H_    0.045848 0.114887 0.549036 0.260470
H35   H     H_    0.082412 0.059828 0.619169 0.256011
H36   H     H_    0.155469 0.106843 0.516776 0.268234
H37   H     H_    0.172734 0.124132 0.631608 0.266522
H38   H     H_    0.122250 0.224701 0.614783 0.218366
H39   H     H_    0.104377 0.207417 0.499816 0.214906
C92   C     C_3   0.862908 0.800610 0.446450 -0.338953
C93   C     C_3   0.860058 0.867988 0.425680 -0.292382
C94   C     C_3   0.921365 0.891766 0.397893 -0.844101
H40   H     H_    0.954649 0.884993 0.452615 0.260267
H41   H     H_    0.936995 0.868303 0.336759 0.272246
H42   H     H_    0.918089 0.940564 0.383384 0.255945
H43   H     H_    0.827556 0.876550 0.370562 0.266638
H44   H     H_    0.845105 0.893222 0.485504 0.268205
H45   H     H_    0.895748 0.792495 0.501454 0.214633
H46   H     H_    0.878100 0.775785 0.386224 0.218666
C95   C     C_3   0.862395 0.199928 0.443481 -0.338774
C96   C     C_3   0.859348 0.132759 0.421312 -0.292526
C97   C     C_3   0.920493 0.109161 0.392439 -0.844854
H47   H     H_    0.935945 0.133249 0.331743 0.272122
H48   H     H_    0.953996 0.115274 0.447040 0.260364
H49   H     H_    0.917054 0.060533 0.376783 0.255995
H50   H     H_    0.844603 0.106970 0.480727 0.267894
H51   H     H_    0.826603 0.124781 0.366316 0.266698
H52   H     H_    0.877168 0.225319 0.383543 0.218379
H53   H     H_    0.895633 0.207503 0.498127 0.214825
C98   C     C_3   0.137700 0.800092 0.557274 -0.338772
C99   C     C_3   0.140822 0.867242 0.579558 -0.292546
C100  C     C_3   0.079824 0.890771 0.609220 -0.845042
H54   H     H_    0.046017 0.884631 0.555047 0.260302
H55   H     H_    0.064750 0.866657 0.670107 0.272066
H56   H     H_    0.083302 0.939402 0.624847 0.256056
H57   H     H_    0.173859 0.875196 0.634173 0.266674
H58   H     H_    0.155221 0.893094 0.520014 0.267918
H59   H     H_    0.104305 0.792577 0.502823 0.214661
H60   H     H_    0.123098 0.774644 0.617252 0.218517
Cl9   Cl    Cl    0.732608 0.803232 0.308223 -0.585267
Cl10  Cl    Cl    0.268137 0.197499 0.692071 -0.585670
Cl11  Cl    Cl    0.269394 0.801242 0.692579 -0.585634
Cl12  Cl    Cl    0.730954 0.198440 0.307547 -0.585482
Cl13  Cl    Cl    0.231930 0.302553 0.307942 -0.585609
Cl14  Cl    Cl    0.767477 0.696837 0.691789 -0.585378
Cl15  Cl    Cl    0.768983 0.301615 0.692444 -0.585441
Cl16  Cl    Cl    0.230521 0.698830 0.307409 -0.585715
C101  C     C_3   0.563898 0.898172 0.069311 -0.417469
C102  C     C_3   0.590051 0.857750 0.996421 -0.381180
C103  C     C_3   0.628452 0.807892 0.037197 -0.731452
H61   H     H_    0.666643 0.827336 0.075627 0.283824
H62   H     H_    0.601023 0.779528 0.082356 0.265549
H63   H     H_    0.646621 0.779135 0.983084 0.256483
H64   H     H_    0.553267 0.836847 0.956951 0.228612
H65   H     H_    0.618272 0.884787 0.950509 0.240074
H66   H     H_    0.601068 0.916615 0.111020 0.222617
H67   H     H_    0.534221 0.871703 0.113713 0.201393
C104  C     C_3   0.436091 0.101824 0.930691 -0.417286
C105  C     C_3   0.409983 0.142274 0.003584 -0.381500
C106  C     C_3   0.371496 0.192075 0.962826 -0.731342
H68   H     H_    0.398846 0.220414 0.917524 0.265811
H69   H     H_    0.333261 0.172572 0.924559 0.283741
H70   H     H_    0.353386 0.220872 0.016937 0.256282
H71   H     H_    0.381834 0.115248 0.049610 0.240005
H72   H     H_    0.446796 0.163237 0.042928 0.228579
H73   H     H_    0.465748 0.128277 0.886240 0.201447
H74   H     H_    0.398896 0.083374 0.889038 0.222568
C107  C     C_3   0.436882 0.897684 0.930693 -0.416902
C108  C     C_3   0.411042 0.857063 0.003586 -0.381846
C109  C     C_3   0.373000 0.806929 0.962816 -0.731732
H75   H     H_    0.334655 0.826096 0.924415 0.284001
H76   H     H_    0.400625 0.778775 0.917631 0.265773
H77   H     H_    0.355057 0.778031 0.016930 0.255973
H78   H     H_    0.447989 0.836425 0.043032 0.228489
H79   H     H_    0.382634 0.883885 0.049519 0.239855
H80   H     H_    0.399570 0.915843 0.888989 0.222543
H81   H     H_    0.466758 0.871443 0.886287 0.201539
C110  C     C_3   0.563110 0.102323 0.069300 -0.417026
C111  C     C_3   0.588938 0.142946 0.996399 -0.381713
C112  C     C_3   0.626949 0.193107 0.037161 -0.731753
H82   H     H_    0.599299 0.221258 0.082317 0.265627
H83   H     H_    0.665294 0.173966 0.075588 0.284034
H84   H     H_    0.644888 0.222002 0.983040 0.256088
H85   H     H_    0.617367 0.116129 0.950485 0.239911
H86   H     H_    0.551986 0.163557 0.956933 0.228506
H87   H     H_    0.533231 0.128560 0.113707 0.201487
H88   H     H_    0.600428 0.084172 0.111001 0.222610
C113  C     C_3   0.063927 0.398191 0.069317 -0.417294
C114  C     C_3   0.090117 0.357789 0.996432 -0.381400
C115  C     C_3   0.128532 0.307945 0.037220 -0.731401
H89   H     H_    0.166701 0.327402 0.075684 0.283822
H90   H     H_    0.101103 0.279558 0.082348 0.265725
H91   H     H_    0.146734 0.279206 0.983110 0.256314
H92   H     H_    0.053351 0.336873 0.956937 0.228581
H93   H     H_    0.118337 0.384844 0.950543 0.239992
H94   H     H_    0.101081 0.416647 0.111049 0.222531
H95   H     H_    0.034252 0.371704 0.113698 0.201460
C116  C     C_3   0.936072 0.601811 0.930689 -0.417459
C117  C     C_3   0.909909 0.642226 0.003580 -0.381217
C118  C     C_3   0.871489 0.692070 0.962806 -0.731383
H96   H     H_    0.898907 0.720444 0.917645 0.265578
H97   H     H_    0.833304 0.672612 0.924378 0.283811
H98   H     H_    0.853311 0.720820 0.016919 0.256486
H99   H     H_    0.881700 0.615181 0.049498 0.240075
H100  H     H_    0.946689 0.663143 0.043044 0.228618
H101  H     H_    0.965740 0.628288 0.886285 0.201401
H102  H     H_    0.898906 0.583357 0.888983 0.222612
C119  C     C_3   0.936919 0.397664 0.930688 -0.417008
C120  C     C_3   0.911076 0.357042 0.003576 -0.381680
C121  C     C_3   0.873063 0.306889 0.962796 -0.731770
H103  H     H_    0.834724 0.326038 0.924361 0.284033
H104  H     H_    0.900712 0.278738 0.917641 0.265627
H105  H     H_    0.855112 0.277993 0.016907 0.256086
H106  H     H_    0.948019 0.336423 0.043049 0.228507
H107  H     H_    0.882645 0.383859 0.049485 0.239898
H108  H     H_    0.899610 0.415810 0.888965 0.222605
H109  H     H_    0.966811 0.371427 0.886300 0.201472
C122  C     C_3   0.063084 0.602336 0.069312 -0.416898
C123  C     C_3   0.088908 0.642971 0.996423 -0.381861
C124  C     C_3   0.126923 0.693123 0.037199 -0.731741
H110  H     H_    0.099280 0.721263 0.082378 0.265767
H111  H     H_    0.165272 0.673975 0.075607 0.284015
H112  H     H_    0.144855 0.722029 0.983087 0.255972
H113  H     H_    0.117331 0.616163 0.950493 0.239859
H114  H     H_    0.051953 0.663590 0.956973 0.228493
H115  H     H_    0.033200 0.628563 0.113722 0.201545
H116  H     H_    0.100404 0.584188 0.111013 0.222543

loop_
_geom_bond_atom_site_label_1
_geom_bond_atom_site_label_2
_ccdc_geom_bond_type
C121  H105  S    
O15   Zn3   S    
C103  H61   S    
C58   Cl13  S    
C9    C45   T    
C123  H113  S    
O12   Zn2   S    
C57   Cl14  S    
C91   H34   S    
C33   C53   S    
C26   C72   S    
C101  C102  S    
C37   C58   S    
C93   H44   S    
C92   C93   S    
O7    Zn4   S    
C72   C76   S    
C98   H60   S    
C88   H28   S    
C78   C79   S    
C93   H43   S    
C109  H77   S    
C117  H100  S    
C121  H103  S    
C97   H48   S    
C71   C75   S    
C13   C65   S    
C95   C96   S    
C39   Cl3   S    
C104  H74   S    
C103  H62   S    
C83   H25   S    
C94   H40   S    
C31   C43   S    
C23   C101  S    
C9    C61   S    
C18   N2    T    
C6    O14   A    
C93   C94   S    
C104  H73   S    
C72   H3    S    
C11   C63   S    
C42   C53   S    
C84   H23   S    
C118  H96   S    
C12   C64   S    
C33   C89   S    
C100  H55   S    
C105  H71   S    
O14   Zn3   S    
C56   Cl11  S    
O16   Zn4   S    
C124  H112  S    
C99   C100  S    
C20   C76   S    
C110  H87   S    
C113  C114  S    
C117  C118  S    
C31   C59   S    
C96   C97   S    
C32   C86   S    
C87   H30   S    
O8    Zn3   S    
C59   C67   S    
C4    O12   A    
C121  H104  S    
C11   C47   T    
C58   C66   S    
C22   C110  S    
C109  H75   S    
O10   Zn1   S    
C123  C124  S    
C115  H90   S    
C55   C63   S    
C107  H81   S    
C10   C46   T    
C82   H14   S    
C56   C64   S    
C5    C52   S    
C69   C73   S    
C8    O8    A    
C15   C51   T    
C6    C51   S    
C17   N1    T    
C92   H45   S    
C112  H82   S    
C31   C83   S    
C119  H108  S    
C78   H8    S    
C60   Cl15  S    
C12   C48   T    
C40   Cl4   S    
C80   C81   S    
C116  H101  S    
C122  C123  S    
C79   H7    S    
C122  H115  S    
C55   Cl12  S    
C60   C68   S    
C95   H52   S    
C19   N3    T    
C18   C74   S    
C40   C59   S    
C102  H65   S    
C86   H31   S    
O5    Zn3   S    
C70   H1    S    
C111  H86   S    
C53   Cl10  S    
C5    O5    A    
C23   C70   S    
C69   H2    S    
C10   C62   S    
C43   Cl7   S    
C23   C73   S    
C14   C50   T    
C27   C75   S    
C27   C113  S    
C34   C65   S    
C101  H66   S    
C71   H4    S    
C88   H27   S    
C24   C104  S    
C24   C69   S    
C26   C75   S    
C97   H49   S    
N1    Zn2   S    
C106  H69   S    
C1    O1    A    
C103  H63   S    
C36   C67   S    
C107  H80   S    
N3    Zn4   S    
C77   H11   S    
C3    O3    A    
C4    C45   S    
C35   C95   S    
C2    O10   A    
C113  H94   S    
C32   C63   S    
C88   H26   S    
C116  C117  S    
C34   C92   S    
C102  C103  S    
C120  H106  S    
C118  H97   S    
C100  H56   S    
C41   C65   S    
C54   C62   S    
C79   H6    S    
C37   Cl1   S    
C106  H68   S    
C38   C62   S    
C35   C55   S    
C21   C74   S    
C33   C37   S    
C21   C69   S    
C110  H88   S    
O4    Zn1   S    
C38   Cl2   S    
C35   C39   S    
C98   C99   S    
C104  C105  S    
C70   C74   S    
C107  C108  S    
C36   C56   S    
C116  H102  S    
C38   C57   S    
C25   C119  S    
C96   H50   S    
C43   C56   S    
C97   H47   S    
C108  H79   S    
C59   Cl16  S    
C115  H91   S    
C15   C67   S    
C33   C66   S    
C124  H110  S    
C14   C66   S    
C81   H16   S    
C36   C98   S    
C105  C106  S    
C92   H46   S    
C112  H83   S    
O6    Zn4   S    
C119  H109  S    
C120  C121  S    
C85   H21   S    
C7    O15   A    
C25   C71   S    
C44   Cl8   S    
C1    O9    A    
C122  H116  S    
C5    O13   A    
C95   H53   S    
C34   C54   S    
C94   H42   S    
C102  H64   S    
C21   C23   S    
C82   H12   S    
C13   C49   T    
C44   C68   S    
C28   C71   S    
C32   C60   S    
C53   C61   S    
O2    Zn2   S    
C96   H51   S    
C101  H67   S    
C84   H22   S    
C36   C40   S    
O1    Zn1   S    
C82   H13   S    
C77   C78   S    
C29   C57   S    
C106  H70   S    
C85   H20   S    
C29   C77   S    
C29   C62   S    
C86   H32   S    
C99   H58   S    
C123  H114  S    
C21   C107  S    
C87   H29   S    
C80   H17   S    
C34   C38   S    
C108  H78   S    
C83   H24   S    
C31   C64   S    
C80   H18   S    
C42   C66   S    
C113  H95   S    
C16   C52   T    
C7    C50   S    
C57   C65   S    
C87   C88   S    
C94   H41   S    
C98   H59   S    
O9    Zn2   S    
C118  H98   S    
C37   C61   S    
C109  H76   S    
C1    C48   S    
C84   C85   S    
C4    O4    A    
C2    C47   S    
C25   C27   S    
C114  C115  S    
C39   C63   S    
C3    C46   S    
C26   C28   S    
C114  H92   S    
C40   C64   S    
C89   H39   S    
C16   C68   S    
C25   C76   S    
C20   N4    T    
C86   C87   S    
C42   Cl6   S    
O3    Zn2   S    
C3    O11   A    
C90   H36   S    
C6    O6    A    
C7    O7    A    
C120  H107  S    
C17   C73   S    
C44   C55   S    
C24   C74   S    
C100  H54   S    
C83   C84   S    
C105  H72   S    
C35   C68   S    
C39   C60   S    
C30   C58   S    
C19   C75   S    
C111  C112  S    
C124  H111  S    
N2    Zn1   S    
C22   C70   S    
C81   H15   S    
C2    O2    A    
C22   C24   S    
C8    O16   A    
C108  C109  S    
C112  H84   S    
C114  H93   S    
C41   C54   S    
C28   C116  S    
O13   Zn4   S    
C85   H19   S    
C111  H85   S    
C90   H37   S    
C26   C122  S    
O11   Zn1   S    
C90   C91   S    
C77   H10   S    
C30   C80   S    
C32   C44   S    
C43   C67   S    
C30   C61   S    
C89   H38   S    
C110  C111  S    
C54   Cl9   S    
N4    Zn3   S    
C119  C120  S    
C29   C41   S    
C30   C42   S    
C41   Cl5   S    
C117  H99   S    
C22   C73   S    
C79   H5    S    
C89   C90   S    
C91   H33   S    
C8    C49   S    
C99   H57   S    
C78   H9    S    
C27   C72   S    
C115  H89   S    
C81   C82   S    
C91   H35   S    
C28   C76   S    
