data_mof_unit_31133.cif
_audit_creation_date              2012-12-10T17:01:35-0500
_audit_creation_method            fapswitch 2.2
_symmetry_space_group_name_H-M    P1
_symmetry_Int_Tables_number       1
_space_group_crystal_system       triclinic
_cell_length_a                    12.764786
_cell_length_b                    10.706773
_cell_length_c                    10.126159
_cell_angle_alpha                 90.206106
_cell_angle_beta                  97.515166
_cell_angle_gamma                 90.439932
_cell_volume                      1371.99589478

loop_
_atom_site_label
_atom_site_type_symbol
_atom_type_description
_atom_site_fract_x
_atom_site_fract_y
_atom_site_fract_z
_atom_type_partial_charge
C1    C     C_R   0.500218 0.262728 0.499657 0.933067
C2    C     C_2   0.504419 0.130124 0.498968 -0.133988
C3    C     C_2   0.579187 0.527449 0.945260 0.517529
C4    C     C_R   0.298421 0.503406 0.472915 0.912390
C5    C     C_2   0.581002 0.481858 0.084866 0.077067
C6    C     C_R   0.492304 0.736665 0.499002 0.832621
C7    C     C_R   0.701426 0.494590 0.527036 0.985273
C8    C     C_R   0.814265 0.485802 0.546843 -0.225618
C9    C     C_R   0.185403 0.513759 0.454804 -0.142533
C10   C     C_R   0.028617 0.635930 0.397301 -0.094502
C11   C     C_R   0.135592 0.618276 0.390275 0.115331
C12   C     C_R   0.028582 0.458101 0.548113 -0.146537
C13   C     C_R   0.128790 0.426282 0.519570 0.340275
C14   C     C_3   0.420829 0.411760 0.881913 -0.562949
C15   C     C_3   0.673804 0.407048 0.145835 -0.627720
C16   C     C_3   0.194013 0.709054 0.312283 -0.721840
C17   C     C_R   0.975565 0.556955 0.476154 0.039461
C18   C     C_R   0.868943 0.572262 0.479617 -0.262486
C19   C     C_R   0.867530 0.392848 0.628414 0.372516
C20   C     C_R   0.977990 0.391463 0.641921 0.395865
C21   C     C_2   0.482031 0.932882 0.390333 -0.284900
C22   C     C_2   0.458824 0.863982 0.493302 0.240670
C23   C     C_2   0.471310 0.066343 0.388244 -0.126748
H1    H     H_    0.826734 0.645880 0.421941 0.187388
H2    H     H_    0.358844 0.458603 0.930648 0.213865
H3    H     H_    0.703500 0.348638 0.068073 0.238492
H4    H     H_    0.738544 0.470395 0.189405 0.263218
H5    H     H_    0.650626 0.342651 0.222743 0.249924
H6    H     H_    0.831657 0.080891 0.770313 0.389404
H7    H     H_    0.021311 0.351214 0.003043 0.388530
H8    H     H_    0.142849 0.787335 0.272416 0.248771
H9    H     H_    0.262648 0.749397 0.376923 0.250982
H10   H     H_    0.222103 0.660191 0.226819 0.242356
H11   H     H_    0.292464 0.243210 0.394103 0.350386
H12   H     H_    0.537853 0.084246 0.589976 0.210296
H13   H     H_    0.247196 0.817430 0.699696 0.402860
H14   H     H_    0.444696 0.560672 0.101913 0.165227
H15   H     H_    0.987235 0.712355 0.343833 0.164757
H16   H     H_    0.522278 0.893093 0.312020 0.191391
H17   H     H_    0.444960 0.111988 0.294206 0.189594
H18   H     H_    0.794125 0.747330 0.038509 0.389794
H19   H     H_    0.381111 0.370772 0.788721 0.299215
H20   H     H_    0.455486 0.331427 0.941276 0.194510
N1    N     N_2   0.501130 0.501330 0.852280 -0.143087
N2    N     N_2   0.501160 0.501360 0.147950 -0.205337
O1    O     O_R   0.499980 0.319060 0.613040 -0.578557
O2    O     O_2   0.653760 0.717121 0.807187 -0.263623
O3    O     O_3   0.728927 0.703586 0.056800 -0.574953
O4    O     O_2   0.729962 0.302507 0.786843 -0.257910
O5    O     O_2   0.728730 0.209570 0.565330 -0.379090
O6    O     O_3   0.878991 0.149178 0.747930 -0.447058
O7    O     O_2   0.084313 0.215612 0.797957 -0.151876
O8    O     O_2   0.147515 0.431698 0.824468 -0.326480
O9    O     O_3   0.975129 0.371596 0.919657 -0.479499
O10   O     O_2   0.252311 0.243054 0.633112 -0.250965
O11   O     O_2   0.075935 0.180683 0.527177 -0.188321
O12   O     O_R   0.500020 0.319100 0.386900 -0.641883
O13   O     O_3   0.214817 0.236829 0.373859 -0.523584
O14   O     O_2   0.426186 0.968760 0.727703 -0.259544
O15   O     O_2   0.290176 0.001115 0.535796 -0.208663
O16   O     O_3   0.301714 0.783934 0.648301 -0.553564
O17   O     O_R   0.346340 0.499960 0.594380 -0.582610
O18   O     O_R   0.346380 0.500000 0.368250 -0.625819
O19   O     O_R   0.499980 0.680900 0.613100 -0.507998
O20   O     O_R   0.500020 0.680940 0.386960 -0.644060
O21   O     O_R   0.653620 0.500000 0.631750 -0.522898
O22   O     O_R   0.653660 0.500040 0.405620 -0.626522
O23   O     O_2   0.775182 0.546667 0.878867 -0.251650
S1    S     S_3+6 0.686176 0.624889 0.915684 0.067405
S2    S     S_3+6 0.797717 0.262618 0.683886 0.083476
S3    S     S_3+6 0.050830 0.349818 0.797589 0.125946
S4    S     S_3+6 0.167990 0.267243 0.518348 0.102788
S5    S     S_3+6 0.368047 0.910158 0.603961 0.060010
Zn1   Zn    Zn3+2 0.499980 0.499970 0.650990 1.122423
Zn2   Zn    Zn3+2 0.500020 0.500030 0.349010 0.970297

loop_
_geom_bond_atom_site_label_1
_geom_bond_atom_site_label_2
_ccdc_geom_bond_type
C2    H12   S    
C12   C17   A    
O11   S4    D    
C20   S3    S    
O6    S2    S    
C1    O12   A    
C16   H10   S    
C16   H9    S    
O8    S3    D    
H7    O9    S    
C11   C16   S    
O14   S5    D    
C15   H4    S    
O10   S4    D    
O20   Zn2   S    
C10   H15   S    
O3    S1    S    
C14   H19   S    
C14   H20   S    
O13   S4    S    
C12   C20   A    
C19   C20   A    
C17   C18   A    
O5    S2    D    
C7    C8    S    
O7    S3    D    
C21   C22   D    
C16   H8    S    
N1    Zn1   S    
C9    C11   A    
C4    O18   A    
O12   Zn2   S    
N2    Zn2   S    
O18   Zn2   S    
C18   H1    S    
C3    S1    S    
C13   S4    S    
O4    S2    D    
C21   C23   S    
C14   H2    S    
C1    O1    A    
H11   O13   S    
C8    C18   A    
C3    N1    D    
C5    C15   S    
C8    C19   A    
O22   Zn2   S    
C10   C11   A    
C10   C17   A    
C15   H5    S    
H13   O16   S    
C6    C22   S    
C4    O17   A    
O15   S5    D    
O1    Zn1   S    
C12   C13   A    
C7    O22   A    
C14   N1    S    
C1    C2    S    
H6    O6    S    
C6    O19   A    
C2    C23   D    
H14   N2    S    
C9    C13   A    
O2    S1    D    
C15   H3    S    
O19   Zn1   S    
C7    O21   A    
C22   S5    S    
O16   S5    S    
C4    C9    S    
C19   S2    S    
C5    N2    D    
C21   H16   S    
H18   O3    S    
C6    O20   A    
O17   Zn1   S    
O9    S3    S    
C23   H17   S    
O23   S1    D    
C3    C5    S    
O21   Zn1   S    
