data_mof_unit_35258.cif
_audit_creation_date              2012-12-11T14:33:04-0500
_audit_creation_method            fapswitch 2.2
_symmetry_space_group_name_H-M    P1
_symmetry_Int_Tables_number       1
_space_group_crystal_system       triclinic
_cell_length_a                    6.940486
_cell_length_b                    14.067843
_cell_length_c                    17.937404
_cell_angle_alpha                 113.587699
_cell_angle_beta                  95.202912
_cell_angle_gamma                 90.574774
_cell_volume                      1596.36440714

loop_
_atom_site_label
_atom_site_type_symbol
_atom_type_description
_atom_site_fract_x
_atom_site_fract_y
_atom_site_fract_z
_atom_type_partial_charge
O1    O     O_R   0.484560 0.544530 0.414330 -0.549286
O2    O     O_R   0.197040 0.638810 0.585080 -0.542651
O3    O     O_R   0.026800 0.455470 0.585670 -0.546987
C1    C     C_R   0.372684 0.683419 0.597596 0.676377
O4    O     O_R   0.155000 0.556150 0.414940 -0.538807
O5    O     O_R   0.984450 0.372220 0.414320 -0.536352
C2    C     C_R   0.318418 0.565294 0.386623 0.713865
O6    O     O_R   0.526900 0.627780 0.585680 -0.534493
O7    O     O_3   0.339170 0.439750 0.499990 -0.379693
V1    V     V_3+5 0.064350 0.511180 0.500000 1.371356
O8    O     O_R   0.654880 0.361190 0.414920 -0.541408
C3    C     C_R   0.816936 0.324434 0.386471 0.762216
O9    O     O_R   0.696930 0.443850 0.585060 -0.537500
C4    C     C_R   0.872873 0.429768 0.610185 0.693255
V2    V     V_3+5 0.564340 0.488820 0.500000 1.374596
O10   O     O_3   0.839390 0.560250 0.500010 -0.372956
C5    C     C_R   0.047997 0.871421 0.828209 -0.073926
C6    C     C_R   0.907039 0.394039 0.677739 -0.050260
C7    C     C_R   0.948102 0.832342 0.686212 -0.125804
C8    C     C_R   0.990699 0.799954 0.748947 -0.179584
C9    C     C_R   0.058381 0.980163 0.845580 0.038271
C10   C     C_R   0.025761 0.015139 0.779197 0.068286
C11   C     C_R   0.966439 0.937307 0.699836 0.104603
C12   C     C_R   0.040527 0.121864 0.786278 0.070244
C13   C     C_R   0.977269 0.147571 0.717821 0.056366
C14   C     C_R   0.923939 0.065598 0.641795 -0.175147
C15   C     C_R   0.922018 0.963271 0.633045 -0.201717
C16   C     C_R   0.126783 0.203497 0.857020 -0.146328
C17   C     C_R   0.118723 0.306603 0.867574 -0.215635
C18   C     C_R   0.039011 0.333182 0.804850 0.114311
C19   C     C_R   0.973676 0.254591 0.727359 0.094862
C20   C     C_R   0.034096 0.438412 0.818429 -0.137287
C21   C     C_R   0.968776 0.468324 0.755780 -0.134012
C22   C     C_R   0.909345 0.287399 0.663392 -0.215716
H1    H     H_    0.880062 0.903070 0.572782 0.118839
H2    H     H_    0.863115 0.232680 0.602010 0.100218
H3    H     H_    0.971817 0.550180 0.767710 0.092347
H4    H     H_    0.183627 0.366248 0.924619 0.128064
H5    H     H_    0.900542 0.774075 0.625774 0.138830
H6    H     H_    0.975841 0.717818 0.735620 0.104689
H7    H     H_    0.883307 0.077974 0.587124 0.134023
H8    H     H_    0.216962 0.189629 0.902737 0.177186
H9    H     H_    0.085151 0.498124 0.877698 0.139195
H10   H     H_    0.114386 0.223690 0.308926 0.154228
H11   H     H_    0.834164 0.034396 0.193791 0.158874
C23   C     C_2   0.135884 0.037410 0.184149 -0.286195
C24   C     C_2   0.972720 0.077654 0.217176 -0.097249
H12   H     H_    0.674353 0.177380 0.294676 0.133589
C25   C     C_2   0.812615 0.220800 0.318508 -0.337795
C26   C     C_2   0.975815 0.180448 0.285554 -0.117116
H13   H     H_    0.274145 0.080819 0.207974 0.129111
C27   C     C_R   0.408097 0.794603 0.659880 -0.079575
C28   C     C_R   0.536619 0.474631 0.819202 -0.060700
C29   C     C_R   0.521574 0.904209 0.800667 0.098636
C30   C     C_R   0.459363 0.809106 0.739645 -0.132545
C31   C     C_R   0.406926 0.884554 0.642168 -0.234727
C32   C     C_R   0.470178 0.987024 0.704000 0.076335
C33   C     C_R   0.527652 0.993042 0.784168 0.128407
C34   C     C_R   0.473688 0.084422 0.692874 0.055233
C35   C     C_R   0.525325 0.181584 0.763845 0.033162
C36   C     C_R   0.588373 0.178380 0.838663 -0.183910
C37   C     C_R   0.587737 0.087623 0.848568 -0.189405
C38   C     C_R   0.431198 0.092059 0.615999 0.151100
C39   C     C_R   0.403635 0.189326 0.614209 -0.211309
C40   C     C_R   0.439839 0.281237 0.683858 0.036602
C41   C     C_R   0.511669 0.280599 0.759281 0.103459
C42   C     C_R   0.409745 0.374553 0.676772 -0.106591
C43   C     C_R   0.455065 0.469339 0.742959 0.140899
C44   C     C_R   0.562332 0.379542 0.827080 -0.234305
H14   H     H_    0.631811 0.094537 0.909902 0.170658
H15   H     H_    0.619815 0.386634 0.886871 0.101562
H16   H     H_    0.359512 0.193780 0.556095 0.128343
H17   H     H_    0.445036 0.746120 0.756266 0.111434
H18   H     H_    0.348223 0.870753 0.581476 0.127378
H19   H     H_    0.635731 0.245789 0.893006 0.140670
H20   H     H_    0.351863 0.373336 0.618273 0.145634
H21   H     H_    0.620932 0.608993 0.319138 0.120474
C45   C     C_2   0.315470 0.604802 0.320157 0.002847
C46   C     C_2   0.483950 0.627506 0.294964 -0.157490
H22   H     H_    0.726322 0.594004 0.179347 0.112823
C47   C     C_2   0.627803 0.654525 0.182041 -0.360530
C48   C     C_2   0.497208 0.681758 0.238466 0.202507
O11   O     O_R   0.421600 0.630430 0.917010 -0.544188
O12   O     O_R   0.793840 0.702190 0.087630 -0.537903
O13   O     O_R   0.964010 0.886170 0.088190 -0.532963
C49   C     C_R   0.630870 0.696106 0.117479 0.799691
O14   O     O_R   0.751460 0.619510 0.917500 -0.543704
O15   O     O_R   0.921330 0.802900 0.916840 -0.546813
C50   C     C_R   0.573930 0.579253 0.891017 0.676809
O16   O     O_R   0.464290 0.713700 0.088350 -0.520899
O17   O     O_3   0.609200 0.818520 0.002630 -0.378153
V3    V     V_3+5 0.884140 0.747190 0.002530 1.415295
O18   O     O_R   0.251150 0.814630 0.917340 -0.548390
C51   C     C_R   0.075911 0.829085 0.892517 0.727122
O19   O     O_R   0.293530 0.897310 0.087470 -0.529097
C52   C     C_R   0.131515 0.933928 0.116046 0.840896
V4    V     V_3+5 0.384070 0.769710 0.002370 1.417294
O20   O     O_3   0.109180 0.698190 0.002460 -0.372677
C53   C     C_3   0.423543 0.564686 0.729699 -0.759790
H23   H     H_    0.324611 0.613385 0.773286 0.185412
H24   H     H_    0.568670 0.603539 0.737714 0.183353
H25   H     H_    0.354843 0.547408 0.667578 0.243565
C54   C     C_3   0.578723 0.907936 0.883998 -0.647198
H26   H     H_    0.580642 0.827952 0.880103 0.237218
H27   H     H_    0.725565 0.943338 0.906920 0.210036
H28   H     H_    0.477528 0.954396 0.927463 0.220834
C55   C     C_3   0.432538 0.003627 0.533232 -0.770936
H29   H     H_    0.547235 0.949717 0.534092 0.207463
H30   H     H_    0.286377 0.964116 0.512080 0.217652
H31   H     H_    0.469379 0.032040 0.486414 0.218424
I1    I     I_    0.345590 0.821797 0.265640 -0.465958
C56   C     C_3   0.118996 0.614298 0.280464 -0.710518
H32   H     H_    0.025967 0.543470 0.266903 0.187896
H33   H     H_    0.048274 0.682642 0.322659 0.221589
H34   H     H_    0.127470 0.620805 0.221238 0.232709
I2    I     I_    0.078686 0.077948 0.974666 -0.545034

loop_
_geom_bond_atom_site_label_1
_geom_bond_atom_site_label_2
_ccdc_geom_bond_type
C33   C37   A    
C13   C19   A    
O18   C51   A    
C4    C6    S    
O2    C1    A    
O19   C52   A    
C1    O6    A    
C28   C44   A    
C56   H33   S    
V4    O20   S    
V3    O20   S    
C36   H19   S    
C14   C15   A    
C1    C27   S    
C16   C17   A    
O12   C49   A    
O5    C3    A    
C18   C19   A    
C8    H6    S    
O13   C52   A    
C32   C34   A    
C41   C44   A    
V2    O10   S    
C5    C8    A    
C31   C32   A    
C37   H14   S    
C44   H15   S    
C28   C43   A    
C23   C24   D    
O8    V2    S    
O15   V3    S    
C40   C42   A    
C17   H4    S    
C55   H29   S    
O1    V2    S    
C11   C15   A    
O7    V1    S    
O16   V4    S    
C47   C49   S    
C27   C30   A    
H11   C24   S    
C35   C41   A    
C34   C35   A    
C9    C10   A    
C55   H30   S    
C9    I2    S    
C56   H32   S    
O13   V3    S    
C3    C25   S    
C24   C26   S    
H21   C46   S    
O11   C50   A    
O15   C51   A    
C31   H18   S    
C42   C43   A    
C29   C54   S    
C12   C13   A    
C49   O16   A    
O17   V3    S    
O4    C2    A    
C45   C46   D    
C15   H1    S    
C13   C14   A    
C23   H13   S    
C47   C48   D    
C35   C36   A    
C7    C11   A    
C17   C18   A    
C53   H23   S    
C19   C22   A    
C54   H27   S    
O17   V4    S    
C6    C22   A    
O3    C4    A    
C7    H5    S    
C2    C45   S    
H12   C25   S    
C53   H24   S    
C40   C41   A    
O6    V2    S    
O14   C50   A    
C28   C50   S    
C55   H31   S    
C10   C12   A    
C38   C55   S    
O2    V1    S    
O18   V4    S    
O14   V3    S    
C29   C33   A    
H10   C26   S    
C29   C30   A    
O1    C2    A    
C12   C16   A    
H22   C47   S    
O5    V1    S    
C46   C48   S    
O8    C3    A    
O19   V4    S    
C42   H20   S    
C34   C38   A    
C48   I1    S    
C7    C8    A    
O9    V2    S    
O7    V2    S    
C43   C53   S    
O4    V1    S    
O3    V1    S    
V1    O10   S    
C20   C21   A    
C18   C20   A    
C32   C33   A    
C39   C40   A    
C16   H8    S    
C20   H9    S    
C54   H28   S    
C22   H2    S    
C39   H16   S    
C36   C37   A    
C6    C21   A    
C21   H3    S    
C38   C39   A    
C30   H17   S    
C53   H25   S    
C23   C52   S    
C25   C26   D    
O11   V4    S    
C54   H26   S    
C10   C11   A    
C45   C56   S    
C5    C51   S    
O12   V3    S    
O9    C4    A    
C56   H34   S    
C27   C31   A    
C14   H7    S    
C5    C9    A    
