data_mof_unit_60097.cif
_audit_creation_date              2012-12-10T17:08:38-0500
_audit_creation_method            fapswitch 2.2
_symmetry_space_group_name_H-M    P1
_symmetry_Int_Tables_number       1
_space_group_crystal_system       triclinic
_cell_length_a                    15.741253
_cell_length_b                    10.715697
_cell_length_c                    10.028241
_cell_angle_alpha                 89.743055
_cell_angle_beta                  89.970359
_cell_angle_gamma                 90.051545
_cell_volume                      1691.53070113

loop_
_atom_site_label
_atom_site_type_symbol
_atom_type_description
_atom_site_fract_x
_atom_site_fract_y
_atom_site_fract_z
_atom_type_partial_charge
C1    C     C_R   0.505159 0.262734 0.500180 0.887308
C2    C     C_2   0.489818 0.869291 0.497435 -0.277406
C3    C     C_2   0.506777 0.066674 0.391483 -0.212492
C4    C     C_R   0.338330 0.499904 0.500058 0.904038
C5    C     C_2   0.526445 0.133291 0.499790 0.014876
C6    C     C_2   0.543749 0.578521 0.924555 -0.103368
C7    C     C_2   0.547141 0.574211 0.074612 -0.113008
C8    C     C_R   0.497715 0.737419 0.499551 0.927518
C9    C     C_R   0.661678 0.500020 0.499926 0.910583
C10   C     C_3   0.049577 0.433366 0.623427 -0.502180
C11   C     C_3   0.048074 0.429187 0.374169 0.051563
C12   C     C_3   0.951384 0.433266 0.623880 -0.385644
C13   C     C_3   0.950110 0.435374 0.371590 -0.413546
C14   C     C_1   0.750582 0.500471 0.499772 -0.154613
C15   C     C_3   0.082720 0.502327 0.497182 0.209674
C16   C     C_3   0.917311 0.501662 0.498268 0.250724
C17   C     C_3   0.950165 0.637774 0.496783 -0.415810
C18   C     C_3   0.048125 0.638769 0.504280 0.050133
C19   C     C_1   0.825895 0.501006 0.499257 -0.070827
C20   C     C_1   0.174140 0.501324 0.498911 -0.027650
C21   C     C_1   0.249447 0.500515 0.499893 -0.117880
C22   C     C_2   0.514910 0.933462 0.390585 -0.131012
H1    H     H_    0.073363 0.479531 0.715441 0.207507
H2    H     H_    0.456843 0.445228 0.102482 0.173625
H3    H     H_    0.928016 0.486620 0.281359 0.206471
H4    H     H_    0.066350 0.678052 0.602874 0.140171
H5    H     H_    0.923595 0.690192 0.582872 0.171160
H6    H     H_    0.927774 0.335309 0.626134 0.194280
H7    H     H_    0.927935 0.480156 0.715638 0.194590
H8    H     H_    0.066452 0.329409 0.386237 0.140585
H9    H     H_    0.923662 0.339115 0.365969 0.172587
H10   H     H_    0.928263 0.685741 0.404413 0.207532
H11   H     H_    0.536484 0.888335 0.299833 0.177481
H12   H     H_    0.463200 0.914505 0.584769 0.178344
H13   H     H_    0.477717 0.109173 0.304102 0.173302
H14   H     H_    0.580808 0.650180 0.874574 0.170092
H15   H     H_    0.469094 0.429506 0.898164 0.173692
H16   H     H_    0.590395 0.637936 0.123898 0.160218
H17   H     H_    0.073203 0.335451 0.625928 0.197613
I1    I     I_    0.605014 0.069558 0.661316 -0.370077
I2    I     I_    0.101589 0.476011 0.182052 -0.339859
I3    I     I_    0.101995 0.772578 0.366605 -0.332744
N1    N     N_2   0.500900 0.501330 0.852150 -0.185583
N2    N     N_2   0.500920 0.501360 0.147810 -0.186734
O1    O     O_R   0.499990 0.319060 0.613040 -0.590051
O2    O     O_R   0.500010 0.319100 0.386900 -0.627275
O3    O     O_R   0.377130 0.499990 0.613120 -0.611886
O4    O     O_R   0.377160 0.500030 0.386980 -0.592576
O5    O     O_R   0.499990 0.680900 0.613100 -0.609170
O6    O     O_R   0.500010 0.680940 0.386960 -0.615716
O7    O     O_R   0.622840 0.499970 0.613020 -0.601414
O8    O     O_R   0.622870 0.500010 0.386880 -0.611769
Zn1   Zn    Zn3+2 0.499980 0.499970 0.650990 0.983542
Zn2   Zn    Zn3+2 0.500020 0.500030 0.349010 0.971078

loop_
_geom_bond_atom_site_label_1
_geom_bond_atom_site_label_2
_ccdc_geom_bond_type
C2    C22   D    
C15   C18   S    
C9    C14   S    
H15   N1    S    
C6    C7    S    
C8    O6    A    
C12   H7    S    
O2    Zn2   S    
C18   H4    S    
C3    H13   S    
O3    Zn1   S    
C1    O1    A    
C2    H12   S    
C17   C18   S    
O1    Zn1   S    
C7    N2    D    
O4    Zn2   S    
C4    C21   S    
C11   C13   S    
C13   H3    S    
O6    Zn2   S    
C9    O8    A    
C10   C12   S    
C12   H6    S    
C16   C19   S    
O5    Zn1   S    
C14   C19   T    
C7    H16   S    
C6    H14   S    
C11   I2    S    
C10   H1    S    
C10   C15   S    
C18   I3    S    
C15   C20   S    
H2    N2    S    
C1    C5    S    
C1    O2    A    
C5    I1    S    
C17   H5    S    
N2    Zn2   S    
C20   C21   T    
C4    O4    A    
C13   C16   S    
C17   H10   S    
C22   H11   S    
C13   H9    S    
C6    N1    D    
C10   H17   S    
C3    C22   S    
O7    Zn1   S    
C11   C15   S    
C8    O5    A    
N1    Zn1   S    
C2    C8    S    
C12   C16   S    
C11   H8    S    
O8    Zn2   S    
C16   C17   S    
C3    C5    D    
C4    O3    A    
C9    O7    A    
