data_mof_unit_24866.cif
_audit_creation_date              2012-12-11T15:54:38-0500
_audit_creation_method            fapswitch 2.2
_symmetry_space_group_name_H-M    P1
_symmetry_Int_Tables_number       1
_space_group_crystal_system       triclinic
_cell_length_a                    6.989597
_cell_length_b                    14.745921
_cell_length_c                    16.039702
_cell_angle_alpha                 89.972348
_cell_angle_beta                  89.603097
_cell_angle_gamma                 90.364885
_cell_volume                      1653.10731252

loop_
_atom_site_label
_atom_site_type_symbol
_atom_type_description
_atom_site_fract_x
_atom_site_fract_y
_atom_site_fract_z
_atom_type_partial_charge
O1    O     O_R   0.638180 0.333920 0.163320 -0.553616
O2    O     O_R   0.361820 0.666080 0.836680 -0.556362
O3    O     O_R   0.308470 0.344960 0.336080 -0.529849
O4    O     O_R   0.691530 0.655040 0.663920 -0.553541
O5    O     O_R   0.138140 0.166110 0.336680 -0.544028
O6    O     O_R   0.861860 0.833890 0.663320 -0.530130
C1    C     C_R   0.477076 0.367010 0.365012 0.806191
C2    C     C_R   0.522626 0.631741 0.636213 0.773035
O7    O     O_R   0.308460 0.344950 0.163930 -0.550571
O8    O     O_R   0.691540 0.655050 0.836070 -0.526819
O9    O     O_R   0.138140 0.166100 0.163310 -0.547058
O10   O     O_R   0.861860 0.833900 0.836690 -0.529674
C3    C     C_R   0.477435 0.367902 0.135916 0.676365
C4    C     C_R   0.522821 0.633543 0.865429 0.667465
O11   O     O_R   0.638180 0.333930 0.336700 -0.526889
O12   O     O_R   0.361820 0.666070 0.663300 -0.518954
O13   O     O_3   0.471670 0.191340 0.250000 -0.375135
O14   O     O_3   0.528330 0.808660 0.750000 -0.364272
V1    V     V_3+5 0.196830 0.260900 0.250000 1.454805
V2    V     V_3+5 0.803170 0.739100 0.750000 1.493316
O15   O     O_R   0.808420 0.155070 0.163920 -0.549062
O16   O     O_R   0.191580 0.844930 0.836080 -0.554617
C5    C     C_R   0.978854 0.134211 0.134180 0.787175
C6    C     C_R   0.021239 0.868001 0.864124 0.789647
O17   O     O_R   0.808420 0.155080 0.336070 -0.487967
O18   O     O_R   0.191580 0.844920 0.663930 -0.497629
C7    C     C_R   0.974515 0.135551 0.366887 0.918168
C8    C     C_R   0.024671 0.865172 0.633866 0.916778
V3    V     V_3+5 0.696830 0.239130 0.250000 1.506694
V4    V     V_3+5 0.303170 0.760870 0.750000 1.531375
O19   O     O_3   0.971850 0.308690 0.250010 -0.388501
O20   O     O_3   0.028150 0.691310 0.749990 -0.386719
C9    C     C_R   0.782067 0.160191 0.531836 0.391296
C10   C     C_R   0.194040 0.836522 0.465953 0.384692
C11   C     C_R   0.704103 0.175857 0.610446 0.452041
C12   C     C_R   0.241522 0.814325 0.384062 0.460216
C13   C     C_R   0.748499 0.119832 0.676548 0.476293
C14   C     C_R   0.178397 0.867427 0.318804 0.455858
C15   C     C_R   0.861211 0.043799 0.663647 0.416756
C16   C     C_R   0.084115 0.948359 0.334999 0.381060
C17   C     C_R   0.925774 0.019804 0.582157 -0.200904
C18   C     C_R   0.052737 0.978141 0.418102 -0.186812
C19   C     C_R   0.896036 0.082586 0.515392 -0.193460
C20   C     C_R   0.090367 0.916786 0.484885 -0.194096
C21   C     C_R   0.019650 0.935941 0.566793 0.008676
C22   C     C_R   0.974598 0.064865 0.434546 0.017685
C23   C     C_R   0.173773 0.977206 0.962978 -0.201751
C24   C     C_R   0.827832 0.036754 0.025752 -0.187552
H1    H     H_    0.308321 0.960597 0.934948 0.186892
H2    H     H_    0.693356 0.064489 0.044251 0.173238
C25   C     C_R   0.171608 0.035180 0.032149 0.309607
C26   C     C_R   0.830100 0.969057 0.964807 0.364577
C27   C     C_R   0.994630 0.067978 0.063730 -0.142759
C28   C     C_R   0.006526 0.938934 0.930816 -0.135610
C29   C     C_R   0.350894 0.504481 0.443409 0.281369
C30   C     C_R   0.646745 0.490467 0.561110 0.250950
C31   C     C_R   0.362668 0.565536 0.510654 -0.141824
C32   C     C_R   0.630972 0.428295 0.495094 -0.125434
H3    H     H_    0.255487 0.617640 0.515771 0.210186
H4    H     H_    0.737118 0.376009 0.490208 0.219244
C33   C     C_R   0.511727 0.561435 0.569099 -0.158791
C34   C     C_R   0.485788 0.434227 0.435104 -0.149964
C35   C     C_R   0.328799 0.493188 0.046923 0.282982
C36   C     C_R   0.678312 0.523166 0.966783 0.306447
C37   C     C_R   0.344624 0.553666 0.979600 -0.248473
C38   C     C_R   0.660968 0.454379 0.027069 -0.231955
H5    H     H_    0.228493 0.596438 0.963763 0.163711
H6    H     H_    0.787551 0.418350 0.045786 0.131624
C39   C     C_R   0.514692 0.566885 0.936106 -0.122692
C40   C     C_R   0.486698 0.437855 0.068366 -0.120434
F1    F     F_    0.205945 0.839385 0.239161 -0.648383
F2    F     F_    0.680796 0.138926 0.754030 -0.606765
F3    F     F_    0.733577 0.219574 0.471960 -0.688222
F4    F     F_    0.255744 0.779252 0.525412 -0.686975
F5    F     F_    0.583055 0.246166 0.622217 -0.635611
F6    F     F_    0.345104 0.738906 0.367797 -0.647619
F7    F     F_    0.910165 0.996232 0.732422 -0.672767
F8    F     F_    0.008174 0.992704 0.269114 -0.694033
N1    N     N_2   0.350221 0.056882 0.068804 -0.549328
H7    H     H_    0.383991 0.124890 0.072009 0.255619
C41   C     C_3   0.397561 0.003833 0.141823 -0.341166
H8    H     H_    0.386213 0.930410 0.128035 0.234065
H9    H     H_    0.545733 0.018644 0.161948 0.182748
H10   H     H_    0.301950 0.020621 0.194482 0.246163
N2    N     N_2   0.651884 0.930376 0.942376 -0.508011
H11   H     H_    0.615652 0.933929 0.880293 0.303248
C42   C     C_3   0.600289 0.847323 0.985657 -0.537855
H12   H     H_    0.612295 0.789438 0.942537 0.188284
H13   H     H_    0.449916 0.849720 0.007201 0.196076
H14   H     H_    0.691795 0.835685 0.041084 0.203721
N3    N     N_2   0.211131 0.518312 0.380914 -0.535030
H15   H     H_    0.209518 0.583850 0.358744 0.314805
C43   C     C_3   0.021805 0.487519 0.403717 -0.487501
H16   H     H_    0.963451 0.530865 0.454271 0.183725
H17   H     H_    0.025825 0.415712 0.424465 0.218954
H18   H     H_    0.926237 0.492206 0.348920 0.193216
N4    N     N_2   0.803873 0.480786 0.616387 -0.530211
H19   H     H_    0.899282 0.534343 0.615811 0.262699
C44   C     C_3   0.757897 0.447151 0.698968 -0.393651
H20   H     H_    0.892235 0.434078 0.733365 0.187757
H21   H     H_    0.675942 0.382886 0.695096 0.270477
H22   H     H_    0.672424 0.497106 0.734651 0.152947
N5    N     N_2   0.157387 0.494829 0.094868 -0.554807
H23   H     H_    0.083876 0.434376 0.098667 0.266500
C45   C     C_3   0.170131 0.544558 0.172368 -0.447829
H24   H     H_    0.026779 0.547131 0.202455 0.194693
H25   H     H_    0.219708 0.615169 0.160464 0.223328
H26   H     H_    0.271579 0.511262 0.215317 0.206133
N6    N     N_2   0.861018 0.560642 0.950591 -0.504253
H27   H     H_    0.970325 0.514443 0.952810 0.257162
C46   C     C_3   0.894428 0.646384 0.993486 -0.470432
H28   H     H_    0.966866 0.694816 0.950623 0.179092
H29   H     H_    0.983409 0.636643 0.049223 0.213177
H30   H     H_    0.759948 0.677393 0.016364 0.173345

loop_
_geom_bond_atom_site_label_1
_geom_bond_atom_site_label_2
_ccdc_geom_bond_type
C32   C34   A    
C38   H6    S    
C42   H12   S    
C35   C37   A    
C43   H16   S    
O13   V3    S    
C46   H28   S    
O4    C2    A    
V1    O19   S    
C41   H8    S    
C23   H1    S    
N2    H11   S    
C45   H25   S    
C11   F5    S    
C15   F7    S    
O16   C6    A    
C26   N2    S    
C11   C13   A    
O3    C1    A    
N6    C46   S    
C9    C11   A    
C31   H3    S    
C3    C40   S    
C6    C28   S    
C29   C34   A    
N4    H19   S    
C18   C22   A    
O9    C5    A    
O7    C3    A    
C29   N3    S    
C12   F6    S    
N4    C44   S    
O5    C7    A    
O7    V1    S    
O6    C8    A    
O8    V2    S    
C37   H5    S    
O3    V1    S    
O14   V4    S    
C10   C12   A    
C2    C33   S    
C16   C18   A    
C43   H17   S    
C14   C16   A    
C17   C19   A    
C18   C20   A    
C30   N4    S    
C41   H9    S    
C26   C28   A    
O11   V3    S    
N2    C42   S    
O17   V3    S    
C24   C27   A    
C13   C15   A    
C45   H26   S    
C8    C21   S    
C9    C19   A    
C10   C20   A    
C35   N5    S    
O8    C4    A    
N3    H15   S    
N1    C41   S    
C23   C25   A    
C1    O11   A    
O15   V3    S    
C25   C27   A    
C36   C38   A    
C1    C34   S    
N3    C43   S    
C44   H20   S    
C35   C40   A    
O9    V1    S    
O10   V2    S    
O1    V3    S    
C46   H29   S    
C36   C39   A    
C10   F4    S    
C23   C28   A    
C7    C22   S    
C9    F3    S    
C4    C39   S    
C44   H21   S    
O18   V4    S    
C43   H18   S    
C29   C31   A    
N5    C45   S    
C16   F8    S    
C42   H14   S    
O1    C3    A    
O12   V4    S    
C12   C14   A    
C41   H10   S    
C20   C21   A    
V2    O20   S    
C14   F1    S    
O16   V4    S    
C31   C33   A    
O5    V1    S    
O17   C7    A    
O6    V2    S    
C45   H24   S    
O10   C6    A    
O18   C8    A    
O2    V4    S    
O15   C5    A    
V3    O19   S    
N6    H27   S    
V4    O20   S    
C36   N6    S    
C38   C40   A    
C37   C39   A    
C5    C27   S    
C24   H2    S    
O13   V1    S    
C30   C32   A    
C46   H30   S    
O14   V2    S    
O2    C4    A    
C19   C22   A    
C25   N1    S    
N1    H7    S    
O4    V2    S    
C24   C26   A    
C44   H22   S    
C15   C17   A    
C2    O12   A    
C13   F2    S    
N5    H23   S    
C42   H13   S    
C17   C21   A    
C30   C33   A    
C32   H4    S    
