data_mof_unit_56365.cif
_audit_creation_date              2012-10-26T19:03:00-0400
_audit_creation_method            fapswitch 2.2
_symmetry_space_group_name_H-M    P1
_symmetry_Int_Tables_number       1
_space_group_crystal_system       triclinic
_cell_length_a                    15.032945
_cell_length_b                    10.998145
_cell_length_c                    9.827502
_cell_angle_alpha                 111.607428
_cell_angle_beta                  97.62367
_cell_angle_gamma                 91.198786
_cell_volume                      1492.99553729

loop_
_atom_site_label
_atom_site_type_symbol
_atom_type_description
_atom_site_fract_x
_atom_site_fract_y
_atom_site_fract_z
_atom_type_partial_charge
C1    C     C_R   0.493867 0.253134 0.439579 0.525175
C2    C     C_2   0.492716 0.488788 0.918601 0.015395
C3    C     C_R   0.329008 0.496883 0.501172 0.573571
C4    C     C_R   0.671029 0.502842 0.498753 0.569872
C5    C     C_R   0.810889 0.588306 0.442110 0.062933
C6    C     C_R   0.189258 0.410433 0.556904 0.059653
C7    C     C_R   0.767248 0.503992 0.495344 0.012405
C8    C     C_R   0.232847 0.495364 0.504432 0.007402
C9    C     C_R   0.815614 0.420955 0.550689 -0.144167
C10   C     C_R   0.184497 0.578562 0.449429 -0.139872
C11   C     C_R   0.908056 0.418472 0.552405 0.010130
C12   C     C_R   0.506843 0.746894 0.560389 0.528536
C13   C     C_R   0.092068 0.580707 0.447361 0.009597
C14   C     C_R   0.953146 0.500805 0.498409 0.044859
C15   C     C_R   0.046984 0.498187 0.501131 0.044656
C16   C     C_R   0.904682 0.586099 0.442507 0.033668
C17   C     C_R   0.095463 0.412717 0.556756 0.029706
C18   C     C_R   0.955900 0.334676 0.607626 -0.124266
C19   C     C_R   0.044254 0.664400 0.392012 -0.122155
C20   C     C_2   0.490337 0.974958 0.745298 0.226095
C21   C     C_2   0.438759 0.023978 0.257365 0.231223
C22   C     C_R   0.048503 0.331621 0.609759 -0.104333
C23   C     C_R   0.951655 0.667183 0.389489 -0.103983
C24   C     C_2   0.489385 0.111421 0.403811 0.000306
C25   C     C_2   0.509810 0.888614 0.596196 0.002816
C26   C     C_2   0.528567 0.069257 0.508007 -0.077347
C27   C     C_2   0.526504 0.931637 0.489703 -0.066602
C28   C     C_2   0.507187 0.511332 0.081417 0.015205
Cu1   Cu    Cu3+1 0.515770 0.521810 0.644910 0.992193
Cu2   Cu    Cu3+1 0.484230 0.478190 0.355090 1.002056
H1    H     H_    0.780643 0.357395 0.591896 0.120975
H2    H     H_    0.558545 0.585565 0.154612 0.174169
H3    H     H_    0.587828 0.624602 0.934861 0.219347
H4    H     H_    0.412284 0.375225 0.065102 0.231852
H5    H     H_    0.491422 0.936134 0.832224 0.132136
H6    H     H_    0.421784 0.062458 0.170929 0.138220
H7    H     H_    0.219469 0.642427 0.408608 0.137716
H8    H     H_    0.921578 0.271195 0.649450 0.125747
H9    H     H_    0.078592 0.727976 0.350324 0.133621
H10   H     H_    0.082224 0.265540 0.654129 0.159463
H11   H     H_    0.918007 0.733204 0.344967 0.161829
H12   H     H_    0.539516 0.862421 0.383613 0.188475
H13   H     H_    0.564134 0.139177 0.612027 0.177392
H14   H     H_    0.441263 0.414683 0.845430 0.193111
I1    I     I_    0.735609 0.725672 0.374932 -0.456497
I2    I     I_    0.264729 0.271923 0.621923 -0.343120
N1    N     N_2   0.460520 0.445420 0.137370 -0.340530
N2    N     N_2   0.539480 0.554580 0.862630 -0.351498
O1    O     O_R   0.508410 0.332340 0.577400 -0.483007
O2    O     O_2   0.412586 0.910954 0.232471 -0.501948
O3    O     O_R   0.491590 0.667660 0.422600 -0.479521
O4    O     O_R   0.481780 0.295500 0.332650 -0.507800
O5    O     O_R   0.518220 0.704500 0.667350 -0.507326
O6    O     O_R   0.383570 0.518390 0.622380 -0.472768
O7    O     O_R   0.616430 0.481610 0.377620 -0.474971
O8    O     O_R   0.356940 0.481550 0.377630 -0.488183
O9    O     O_R   0.643060 0.518450 0.622370 -0.494174
O10   O     O_2   0.469784 0.087325 0.772036 -0.507440

loop_
_geom_bond_atom_site_label_1
_geom_bond_atom_site_label_2
_ccdc_geom_bond_type
C4    O9    A    
C19   C23   A    
Cu2   O3    S    
C11   C18   A    
Cu2   O8    S    
Cu1   Cu2   S    
C10   H7    S    
C25   C27   D    
C3    O8    A    
C12   O5    A    
C23   H11   S    
C12   C25   S    
C22   H10   S    
C18   H8    S    
C28   N1    D    
C21   H6    S    
Cu1   O1    S    
H3    N2    S    
C9    C11   A    
C27   H12   S    
C26   C27   S    
C19   H9    S    
C3    O6    A    
C4    C7    S    
C6    C8    A    
C8    C10   A    
C21   O2    D    
C11   C14   A    
Cu1   O9    S    
C26   H13   S    
C16   C23   A    
C5    C7    A    
C13   C15   A    
C4    O7    A    
C1    O4    A    
C14   C16   A    
Cu1   O6    S    
C9    H1    S    
Cu1   N2    S    
C20   O10   D    
Cu2   N1    S    
C28   H2    S    
C12   O3    A    
C1    C24   S    
C7    C9    A    
C3    C8    S    
Cu2   O7    S    
C21   C24   S    
C2    H14   S    
C15   C17   A    
C6    C17   A    
C13   C19   A    
C14   C15   A    
C5    C16   A    
C2    C28   S    
H4    N1    S    
C6    I2    S    
C2    N2    D    
C18   C22   A    
C20   H5    S    
C5    I1    S    
C10   C13   A    
C17   C22   A    
C24   C26   D    
Cu2   O4    S    
Cu1   O5    S    
C20   C25   S    
C1    O1    A    
