data_mof_unit_60224.cif
_audit_creation_date              2012-12-10T16:55:30-0500
_audit_creation_method            fapswitch 2.2
_symmetry_space_group_name_H-M    P1
_symmetry_Int_Tables_number       1
_space_group_crystal_system       triclinic
_cell_length_a                    21.734487
_cell_length_b                    21.782242
_cell_length_c                    22.052905
_cell_angle_alpha                 118.899058
_cell_angle_beta                  120.170038
_cell_angle_gamma                 88.974414
_cell_volume                      7544.97231749

loop_
_atom_site_label
_atom_site_type_symbol
_atom_type_description
_atom_site_fract_x
_atom_site_fract_y
_atom_site_fract_z
_atom_type_partial_charge
C1    C     C_R   0.004409 0.384363 0.507073 0.816931
C2    C     C_1   0.837477 0.335545 0.173826 0.029372
C3    C     C_1   0.125542 0.626305 0.751199 -0.169154
C4    C     C_1   0.874431 0.373746 0.248792 -0.160135
C5    C     C_2   0.980696 0.240987 0.549508 0.444110
C6    C     C_2   0.019669 0.759245 0.450925 0.447343
C7    C     C_2   0.984100 0.181341 0.491438 0.311060
C8    C     C_2   0.015637 0.818667 0.508574 0.318965
C9    C     C_2   0.973711 0.304826 0.542137 -0.272979
C10   C     C_2   0.026641 0.695415 0.458305 -0.271396
C11   C     C_2   0.018493 0.329368 0.528341 0.333744
C12   C     C_R   0.995557 0.615588 0.492843 0.818712
C13   C     C_2   0.981461 0.670498 0.471431 0.331572
C14   C     C_R   0.617028 0.997716 0.496027 0.994622
C15   C     C_R   0.383073 0.002586 0.504104 0.997027
C16   C     C_R   0.081198 0.581157 0.662338 0.917357
C17   C     C_R   0.918800 0.418836 0.337661 0.912387
C18   C     C_R   0.418643 0.919579 0.337690 0.896827
C19   C     C_R   0.581358 0.080419 0.662310 0.899036
C20   C     C_R   0.880914 0.997059 0.500272 1.001093
C21   C     C_R   0.119344 0.997169 0.499994 0.998927
C22   C     C_R   0.996248 0.118473 0.498346 0.819200
C23   C     C_3   0.287356 0.840570 0.045988 -0.473174
C24   C     C_R   0.003676 0.881530 0.501656 0.833159
C25   C     C_2   0.754479 0.931344 0.440490 0.348369
C26   C     C_2   0.249205 0.995537 0.563782 0.349672
C27   C     C_2   0.816784 0.988290 0.502945 -0.399539
C28   C     C_2   0.184472 0.986958 0.498426 -0.390662
C29   C     C_2   0.692448 0.929174 0.450770 0.348007
C30   C     C_2   0.311822 0.983544 0.554328 0.348302
C31   C     C_2   0.676226 0.992147 0.482952 -0.403810
C32   C     C_2   0.324228 0.011691 0.517721 -0.404398
C33   C     C_3   0.274117 0.683303 0.953520 -0.602076
C34   C     C_3   0.719950 0.158104 0.954100 -0.468606
C35   C     C_3   0.720492 0.310732 0.046666 -0.625220
C36   C     C_3   0.159670 0.708274 0.951594 0.280690
C37   C     C_3   0.836689 0.299728 0.048201 0.273797
C38   C     C_3   0.208960 0.757904 0.049562 0.310573
C39   C     C_3   0.788032 0.249092 0.950185 0.240079
C40   C     C_1   0.373866 0.876677 0.248759 -0.149522
C41   C     C_1   0.626102 0.123322 0.751242 -0.150790
C42   C     C_3   0.206822 0.711342 0.917622 0.189475
C43   C     C_3   0.792878 0.288928 0.082349 0.227292
C44   C     C_3   0.322725 0.732024 0.050595 -0.498478
C45   C     C_3   0.237852 0.792004 0.948561 0.326958
C46   C     C_3   0.672373 0.262494 0.949558 -0.498754
C47   C     C_3   0.289482 0.794211 0.082310 0.130349
C48   C     C_3   0.710370 0.205920 0.917687 0.160785
C49   C     C_3   0.770092 0.206733 0.051522 0.313559
C50   C     C_1   0.335934 0.839851 0.173739 0.001862
C51   C     C_1   0.663989 0.160184 0.826262 0.005554
C52   C     C_1   0.162401 0.664587 0.826157 -0.027610
H1    H     H_    0.325798 0.697602 0.075802 0.195352
H2    H     H_    0.292561 0.046829 0.501644 0.116379
H3    H     H_    0.142275 0.650602 0.932855 0.031488
H4    H     H_    0.847225 0.358169 0.067044 0.036019
H5    H     H_    0.267426 0.888372 0.070167 0.199225
H6    H     H_    0.743097 0.113672 0.929342 0.201116
H7    H     H_    0.978855 0.290088 0.648462 0.335699
H8    H     H_    0.022723 0.710591 0.352767 0.337451
H9    H     H_    0.979935 0.133621 0.387587 0.349683
H10   H     H_    0.018759 0.866143 0.611780 0.350868
H11   H     H_    0.106623 0.324846 0.523837 0.355496
H12   H     H_    0.664487 0.298113 0.924819 0.193709
H13   H     H_    0.892497 0.674059 0.474346 0.356377
H14   H     H_    0.697234 0.843529 0.328142 0.337108
H15   H     H_    0.309371 0.023771 0.679428 0.336148
H16   H     H_    0.822926 0.028091 0.561435 0.122337
H17   H     H_    0.177561 0.967071 0.438998 0.120372
H18   H     H_    0.676266 0.826353 0.412254 0.341441
H19   H     H_    0.334894 0.923667 0.600791 0.339460
H20   H     H_    0.254139 0.625437 0.932175 0.205241
H21   H     H_    0.734432 0.369620 0.068485 0.207161
H22   H     H_    0.056780 0.685877 0.862375 0.340334
H23   H     H_    0.308700 0.683952 0.929847 0.214599
H24   H     H_    0.937144 0.308794 0.074585 0.348192
H25   H     H_    0.213091 0.721599 0.072850 0.098839
H26   H     H_    0.778622 0.285421 0.926131 0.106962
H27   H     H_    0.169615 0.841779 0.060234 0.390201
H28   H     H_    0.837418 0.171857 0.942655 0.390703
H29   H     H_    0.272916 0.792259 0.925097 0.084523
H30   H     H_    0.737547 0.200996 0.075722 0.079177
H31   H     H_    0.201541 0.865132 0.925173 0.331960
H32   H     H_    0.816758 0.136944 0.074412 0.331240
H33   H     H_    0.344904 0.863995 0.067643 0.157370
H34   H     H_    0.687738 0.303925 0.070005 0.213495
H35   H     H_    0.664358 0.130000 0.933135 0.157938
H36   H     H_    0.380608 0.755816 0.073402 0.217022
H37   H     H_    0.616113 0.233659 0.926361 0.215847
H38   H     H_    0.929913 0.328623 0.544212 0.122449
H39   H     H_    0.070790 0.671966 0.456855 0.125512
H40   H     H_    0.704805 0.041463 0.495361 0.116983
O1    O     O_R   0.051090 0.409550 0.500010 -0.623596
O2    O     O_R   0.051070 0.590460 0.499970 -0.630460
O3    O     O_R   0.112510 0.561440 0.622850 -0.613026
O4    O     O_R   0.887490 0.438560 0.377150 -0.617514
O5    O     O_R   0.010350 0.561430 0.622870 -0.610229
O6    O     O_R   0.989650 0.438570 0.377130 -0.598735
O7    O     O_R   0.590290 0.948920 0.499990 -0.551734
O8    O     O_R   0.409710 0.051080 0.500010 -0.639041
O9    O     O_R   0.590320 0.051050 0.499970 -0.640126
O10   O     O_R   0.409680 0.948950 0.500030 -0.553008
O11   O     O_R   0.438380 0.887500 0.377150 -0.611188
O12   O     O_R   0.948910 0.590450 0.499990 -0.623402
O13   O     O_R   0.561620 0.112500 0.622850 -0.621686
O14   O     O_R   0.438400 0.989630 0.377130 -0.620795
O15   O     O_R   0.561600 0.010370 0.622870 -0.608902
O16   O     O_R   0.944190 0.034670 0.569380 -0.628676
O17   O     O_R   0.055810 0.965330 0.430620 -0.629190
O18   O     O_3   0.981760 0.241498 0.612947 -0.782212
O19   O     O_3   0.019388 0.759026 0.388007 -0.778284
O20   O     O_3   0.968246 0.176863 0.419787 -0.761286
O21   O     O_3   0.030760 0.822996 0.579909 -0.757074
O22   O     O_3   0.080258 0.304459 0.538886 -0.744234
O23   O     O_R   0.874830 0.965310 0.430660 -0.556690
O24   O     O_3   0.919369 0.694987 0.460143 -0.739096
O25   O     O_3   0.749259 0.876246 0.369550 -0.727012
O26   O     O_3   0.256237 0.013467 0.636751 -0.731400
O27   O     O_3   0.651441 0.864431 0.426747 -0.732547
O28   O     O_3   0.357151 0.945566 0.583340 -0.734963
O29   O     O_3   0.095383 0.729632 0.918285 -0.664927
O30   O     O_3   0.905844 0.286280 0.083628 -0.673888
O31   O     O_3   0.176678 0.810033 0.082190 -0.708991
O32   O     O_3   0.824185 0.202084 0.918395 -0.734389
O33   O     O_3   0.179222 0.820095 0.916890 -0.695243
O34   O     O_R   0.125170 0.034690 0.569340 -0.554697
O35   O     O_3   0.833643 0.183888 0.082393 -0.687316
O36   O     O_R   0.034670 0.125130 0.569340 -0.570986
O37   O     O_R   0.965330 0.874870 0.430660 -0.562933
O38   O     O_R   0.965310 0.055770 0.430620 -0.647718
O39   O     O_R   0.034690 0.944230 0.569380 -0.640347
O40   O     O_R   0.948930 0.409540 0.500030 -0.631711
Zn1   Zn    Zn3+2 0.068220 0.500010 0.499990 0.993241
Zn2   Zn    Zn3+2 0.931780 0.499990 0.500010 0.984536
Zn3   Zn    Zn3+2 0.499800 0.931810 0.500010 1.054771
Zn4   Zn    Zn3+2 0.500200 0.068190 0.499990 0.978333
Zn5   Zn    Zn3+2 0.046310 0.046310 0.592620 1.054013
Zn6   Zn    Zn3+2 0.953690 0.953690 0.407380 1.052415

loop_
_geom_bond_atom_site_label_1
_geom_bond_atom_site_label_2
_ccdc_geom_bond_type
O34   Zn5   S    
C23   C45   S    
C6    O19   S    
C36   C42   S    
C28   H17   S    
C1    C11   S    
C15   O8    A    
C1    O40   A    
H7    O18   S    
C14   O7    A    
C46   H37   S    
C29   O27   S    
O6    Zn1   S    
O12   Zn2   S    
H19   O28   S    
C33   C42   S    
C12   O12   A    
O1    Zn1   S    
C36   H3    S    
O16   Zn5   S    
C35   H34   S    
C16   O5    A    
C5    O18   S    
O3    Zn1   S    
O2    Zn1   S    
C7    O20   S    
C11   O22   S    
C18   C40   S    
O10   Zn3   S    
O15   Zn3   S    
C27   H16   S    
C33   H20   S    
H11   O22   S    
C44   H1    S    
C33   H23   S    
C48   C51   S    
O37   Zn6   S    
C45   O33   S    
C16   O3    A    
H14   O25   S    
C35   C43   S    
C17   O6    A    
H18   O27   S    
C38   O31   S    
C44   C47   S    
C34   H35   S    
H32   O35   S    
O14   Zn4   S    
C22   O38   A    
C37   H4    S    
C12   O2    A    
O5    Zn2   S    
H31   O33   S    
C24   O37   A    
C32   H2    S    
C47   C50   S    
C25   C29   S    
C49   O35   S    
C46   C48   S    
C23   C47   S    
C39   H26   S    
C15   C32   S    
H10   O21   S    
C5    C7    D    
C43   C49   S    
C14   O9    A    
O4    Zn2   S    
H27   O31   S    
C39   O32   S    
C46   H12   S    
O17   Zn6   S    
C42   C45   S    
C49   H30   S    
C37   C43   S    
C2    C4    T    
O36   Zn5   S    
C18   O14   A    
C5    C9    S    
O39   Zn5   S    
C22   O36   A    
O23   Zn6   S    
C2    C43   S    
O7    Zn3   S    
C17   O4    A    
C9    C11   D    
C38   C47   S    
C8    O21   S    
O13   Zn4   S    
C4    C17   S    
C19   O13   A    
C1    O1    A    
C38   H25   S    
C21   C28   S    
C10   H39   S    
C26   C30   S    
H13   O24   S    
C34   C48   S    
O38   Zn6   S    
H28   O32   S    
O9    Zn4   S    
C23   H5    S    
C35   H21   S    
C34   C49   S    
C33   C44   S    
C45   H29   S    
C26   O26   S    
C10   C13   D    
C25   O25   S    
C9    H38   S    
C6    C10   S    
C20   O23   A    
C6    C8    D    
C3    C52   T    
C20   C27   S    
C25   C27   D    
C7    C22   S    
C26   C28   D    
H24   O30   S    
C14   C31   S    
C36   C38   S    
C36   O29   S    
C29   C31   D    
H8    O19   S    
C30   C32   D    
H9    O20   S    
C24   O39   A    
C30   O28   S    
C40   C50   T    
C8    C24   S    
C18   O11   A    
C15   O10   A    
H15   O26   S    
O11   Zn3   S    
C13   O24   S    
C37   O30   S    
C19   C41   S    
C37   C39   S    
H22   O29   S    
C12   C13   S    
O40   Zn2   S    
C31   H40   S    
C23   H33   S    
C34   H6    S    
C39   C48   S    
C21   O34   A    
C44   H36   S    
C35   C46   S    
C41   C51   T    
C3    C16   S    
O8    Zn4   S    
C42   C52   S    
C21   O17   A    
C20   O16   A    
C19   O15   A    
