data_mof_unit_34479.cif
_audit_creation_date              2012-12-11T15:53:40-0500
_audit_creation_method            fapswitch 2.2
_symmetry_space_group_name_H-M    P1
_symmetry_Int_Tables_number       1
_space_group_crystal_system       triclinic
_cell_length_a                    6.921911
_cell_length_b                    14.571783
_cell_length_c                    15.973467
_cell_angle_alpha                 90.60525
_cell_angle_beta                  89.569161
_cell_angle_gamma                 90.39123
_cell_volume                      1610.98498512

loop_
_atom_site_label
_atom_site_type_symbol
_atom_type_description
_atom_site_fract_x
_atom_site_fract_y
_atom_site_fract_z
_atom_type_partial_charge
O1    O     O_R   0.361600 0.167310 0.164620 -0.540839
O2    O     O_R   0.638400 0.832690 0.835380 -0.540837
O3    O     O_R   0.691080 0.157570 0.338750 -0.545670
O4    O     O_R   0.308920 0.842430 0.661250 -0.545659
O5    O     O_R   0.861410 0.336420 0.339360 -0.535704
O6    O     O_R   0.138590 0.663580 0.660640 -0.535705
C1    C     C_R   0.520309 0.133863 0.366216 0.707657
C2    C     C_R   0.479691 0.866132 0.633776 0.707642
O7    O     O_R   0.691320 0.156280 0.165240 -0.543475
O8    O     O_R   0.308680 0.843720 0.834760 -0.543472
O9    O     O_R   0.861640 0.335130 0.164600 -0.541185
O10   O     O_R   0.138360 0.664870 0.835400 -0.541185
C3    C     C_R   0.522327 0.133783 0.136070 0.683140
C4    C     C_R   0.477673 0.866217 0.863931 0.683152
O11   O     O_R   0.361370 0.168600 0.339370 -0.536628
O12   O     O_R   0.638630 0.831400 0.660630 -0.536634
O13   O     O_3   0.527990 0.310540 0.251980 -0.367099
O14   O     O_3   0.472010 0.689460 0.748020 -0.367098
V1    V     V_3+5 0.802830 0.240980 0.251990 1.391632
V2    V     V_3+5 0.197170 0.759020 0.748010 1.391634
O15   O     O_R   0.191360 0.346160 0.165220 -0.539049
O16   O     O_R   0.808640 0.653840 0.834780 -0.539049
C5    C     C_R   0.023663 0.369338 0.136908 0.706075
C6    C     C_R   0.976337 0.630662 0.863092 0.706076
O17   O     O_R   0.191130 0.347440 0.338740 -0.543650
O18   O     O_R   0.808870 0.652560 0.661260 -0.543651
C7    C     C_R   0.022225 0.369590 0.367580 0.700646
C8    C     C_R   0.977774 0.630410 0.632420 0.700637
V3    V     V_3+5 0.302840 0.262750 0.251990 1.392362
V4    V     V_3+5 0.697160 0.737250 0.748010 1.392356
O19   O     O_3   0.027820 0.193180 0.251990 -0.371458
O20   O     O_3   0.972180 0.806820 0.748010 -0.371456
C9    C     C_3   0.927670 0.418732 0.525516 -0.181936
C10   C     C_3   0.072330 0.581268 0.474484 -0.181938
C11   C     C_3   0.100919 0.470661 0.564520 0.207790
C12   C     C_3   0.899080 0.529339 0.435480 0.207789
H1    H     H_    0.869704 0.351538 0.546582 0.111884
H2    H     H_    0.130296 0.648462 0.453418 0.111881
C13   C     C_3   0.988262 0.560984 0.562300 -0.050674
C14   C     C_3   0.011738 0.439016 0.437700 -0.050677
C15   C     C_3   0.813473 0.510243 0.523203 -0.156984
C16   C     C_3   0.186527 0.489757 0.476797 -0.156983
H3    H     H_    0.659809 0.519117 0.541851 0.120637
H4    H     H_    0.340191 0.480883 0.458149 0.120637
C17   C     C_R   0.835067 0.497442 0.948264 0.154548
C18   C     C_R   0.164933 0.502558 0.051736 0.154548
C19   C     C_R   0.853286 0.436350 0.015257 -0.189597
C20   C     C_R   0.146714 0.563650 0.984743 -0.189597
H5    H     H_    0.739694 0.386230 0.026102 0.127121
H6    H     H_    0.260306 0.613770 0.973898 0.127121
C21   C     C_R   0.015814 0.437344 0.067535 -0.097632
C22   C     C_R   0.984186 0.562656 0.932465 -0.097632
C23   C     C_R   0.661597 0.056402 0.489123 -0.195454
C24   C     C_R   0.338409 0.943581 0.510855 -0.195471
H7    H     H_    0.786322 0.100999 0.481614 0.125505
H8    H     H_    0.213690 0.898984 0.518367 0.125506
C25   C     C_R   0.658113 0.993353 0.554991 0.151682
C26   C     C_R   0.341907 0.006619 0.444977 0.151725
C27   C     C_R   0.493789 0.935571 0.566158 -0.095593
C28   C     C_R   0.506213 0.064416 0.433823 -0.095585
C29   C     C_R   0.679693 0.025857 0.032396 -0.157376
C30   C     C_R   0.320307 0.974142 0.967604 -0.157377
H9    H     H_    0.820611 0.044765 0.056252 0.116679
H10   H     H_    0.179389 0.955234 0.943749 0.116679
C31   C     C_R   0.668619 0.961815 0.966620 -0.153395
C32   C     C_R   0.331381 0.038185 0.033381 -0.153395
H11   H     H_    0.801571 0.933178 0.941976 0.118939
H12   H     H_    0.198429 0.066821 0.058024 0.118939
C33   C     C_R   0.488771 0.935077 0.933288 -0.046603
C34   C     C_R   0.511228 0.064922 0.066712 -0.046600
C35   C     C_3   0.217145 0.436930 0.638346 -0.804602
H13   H     H_    0.280299 0.368995 0.622834 0.206881
H14   H     H_    0.335419 0.486416 0.652440 0.215866
H15   H     H_    0.121561 0.430514 0.694110 0.201859
C36   C     C_3   0.782855 0.563071 0.361654 -0.804603
H16   H     H_    0.719702 0.631005 0.377166 0.206881
H17   H     H_    0.878439 0.569486 0.305890 0.201859
H18   H     H_    0.664580 0.513584 0.347560 0.215866
C37   C     C_3   0.657787 0.489230 0.894161 -0.736675
H19   H     H_    0.566398 0.429303 0.911496 0.192777
H20   H     H_    0.567271 0.551330 0.901851 0.219114
H21   H     H_    0.700924 0.480206 0.827489 0.199256
C38   C     C_3   0.342213 0.510770 0.105839 -0.736675
H22   H     H_    0.433602 0.570697 0.088504 0.192778
H23   H     H_    0.299076 0.519794 0.172511 0.199256
H24   H     H_    0.432729 0.448670 0.098149 0.219114
C39   C     C_3   0.829191 0.991644 0.612993 -0.728602
H25   H     H_    0.780021 0.000042 0.678951 0.198689
H26   H     H_    0.907937 0.926047 0.605049 0.220055
H27   H     H_    0.933692 0.047922 0.599645 0.189102
C40   C     C_3   0.170877 0.008289 0.386945 -0.728635
H28   H     H_    0.220107 0.999934 0.320994 0.198675
H29   H     H_    0.066460 0.951966 0.400254 0.189098
H30   H     H_    0.092006 0.073852 0.394888 0.220047

loop_
_geom_bond_atom_site_label_1
_geom_bond_atom_site_label_2
_ccdc_geom_bond_type
C29   C34   A    
C6    C22   S    
C32   H12   S    
C39   H25   S    
O13   V3    S    
C10   C16   S    
O4    C2    A    
V1    O19   S    
C37   H21   S    
C19   H5    S    
O9    V1    S    
O3    C1    A    
C2    C27   S    
C24   C26   A    
C25   C27   A    
C3    C34   S    
O12   V4    S    
C17   C19   A    
C29   H9    S    
C11   C16   S    
O7    C3    A    
C30   H10   S    
C9    C11   S    
O5    C7    A    
O7    V1    S    
O6    C8    A    
O8    V2    S    
C31   H11   S    
O3    V1    S    
O14   V4    S    
C26   C40   S    
C10   C12   S    
C20   H6    S    
C11   C35   S    
C2    O12   A    
C15   H3    S    
C12   C15   S    
C16   H4    S    
C23   C28   A    
O11   V3    S    
C18   C20   A    
C24   C27   A    
C23   H7    S    
O17   V3    S    
C24   H8    S    
C9    C14   S    
C30   C32   A    
C10   C13   S    
C12   C14   S    
C37   H19   S    
C13   C15   S    
O8    C4    A    
C40   H28   S    
C37   H20   S    
C23   C25   A    
C19   C21   A    
C1    O11   A    
C8    C13   S    
O15   V3    S    
C18   C21   A    
C9    H1    S    
C25   C39   S    
C30   C33   A    
C11   C13   S    
C36   H16   S    
C12   C36   S    
C40   H29   S    
C5    C21   S    
C38   H22   S    
C7    C14   S    
O10   V2    S    
O1    V3    S    
C17   C37   S    
C36   H17   S    
C38   H23   S    
O18   V4    S    
C39   H26   S    
C4    C33   S    
O16   C6    A    
O1    C3    A    
C1    C28   S    
C35   H14   S    
V2    O20   S    
O16   V4    S    
C10   H2    S    
C14   C16   S    
C35   H15   S    
O5    V1    S    
O17   C7    A    
O6    V2    S    
O10   C6    A    
O18   C8    A    
C17   C22   A    
O2    V4    S    
C9    C15   S    
O15   C5    A    
C35   H13   S    
V3    O19   S    
C40   H30   S    
V4    O20   S    
C32   C34   A    
C31   C33   A    
O9    C5    A    
O13   V1    S    
O14   V2    S    
O2    C4    A    
C36   H18   S    
C18   C38   S    
O4    V2    S    
C29   C31   A    
C20   C22   A    
C38   H24   S    
C39   H27   S    
C26   C28   A    
