data_mof_unit_11302.cif
_audit_creation_date              2013-03-05T15:45:31-0500
_audit_creation_method            fapswitch 2.2
_symmetry_space_group_name_H-M    P1
_symmetry_Int_Tables_number       1
_space_group_crystal_system       triclinic
_cell_length_a                    27.704937
_cell_length_b                    10.629216
_cell_length_c                    10.021834
_cell_angle_alpha                 89.2429
_cell_angle_beta                  89.991982
_cell_angle_gamma                 90.261209
_cell_volume                      2950.95893501

loop_
_atom_site_label
_atom_site_type_symbol
_atom_site_description
_atom_site_fract_x
_atom_site_fract_y
_atom_site_fract_z
_atom_type_partial_charge
O1    O     O_R   0.499990 0.319060 0.613040 -0.627490
O2    O     O_R   0.500010 0.319100 0.386900 -0.614762
C1    C     C_R   0.495521 0.262835 0.500834 0.962376
O3    O     O_R   0.428750 0.500000 0.613050 -0.566066
O4    O     O_R   0.428760 0.500040 0.386920 -0.629548
C2    C     C_R   0.405899 0.500278 0.500090 0.921580
Zn1   Zn    Zn3+2 0.499990 0.499970 0.650990 0.977714
Zn2   Zn    Zn3+2 0.500010 0.500030 0.349010 0.987610
O5    O     O_R   0.499990 0.680900 0.613100 -0.622525
O6    O     O_R   0.500010 0.680940 0.386960 -0.568273
O7    O     O_R   0.571240 0.499960 0.613080 -0.604240
O8    O     O_R   0.571250 0.500000 0.386950 -0.609300
C3    C     C_R   0.499521 0.737678 0.498931 0.971614
C4    C     C_R   0.593980 0.501907 0.500029 0.887545
C5    C     C_R   0.175416 0.417847 0.516353 0.558025
O9    O     O_2   0.199002 0.310071 0.545545 -0.555809
N1    N     N_R   0.200789 0.523685 0.481305 -0.321680
C6    C     C_R   0.178345 0.633825 0.447787 0.579317
C7    C     C_R   0.278738 0.514615 0.368565 0.583754
C8    C     C_R   0.328968 0.504112 0.375530 -0.421841
C9    C     C_R   0.325857 0.510505 0.618627 0.456423
C10   C     C_R   0.275564 0.521813 0.611607 -0.150651
C11   C     C_R   0.252261 0.520292 0.487160 0.117610
C12   C     C_R   0.101122 0.534266 0.490633 -0.058746
C13   C     C_R   0.125126 0.421619 0.524014 -0.029524
C14   C     C_R   0.098544 0.315796 0.564564 -0.157942
C15   C     C_R   0.127910 0.640818 0.450224 -0.054359
C16   C     C_R   0.352888 0.504188 0.499091 -0.234727
H1    H     H_    0.116052 0.226935 0.586337 0.197427
C17   C     C_R   0.646907 0.513219 0.499703 -0.198612
C18   C     C_R   0.974220 0.449367 0.576241 -0.091528
C19   C     C_R   0.975128 0.642131 0.437163 0.070564
C20   C     C_R   0.949399 0.546102 0.506690 0.023084
C21   C     C_R   0.947747 0.369188 0.664755 0.496989
C22   C     C_R   0.897483 0.372667 0.665201 -0.207677
C23   C     C_R   0.872648 0.457763 0.583253 -0.124499
C24   C     C_R   0.898504 0.545362 0.504395 -0.056648
C25   C     C_R   0.873485 0.630791 0.421364 -0.001623
C26   C     C_R   0.823054 0.625531 0.417419 0.506595
N2    N     N_R   0.798756 0.541877 0.497596 -0.330172
C27   C     C_R   0.822241 0.458795 0.579584 0.607334
C28   C     C_R   0.724306 0.465831 0.399351 -0.216218
C29   C     C_R   0.674400 0.452132 0.400927 -0.039059
C30   C     C_R   0.670627 0.588161 0.596164 -0.167877
C31   C     C_R   0.720948 0.602349 0.591839 0.532098
C32   C     C_R   0.747387 0.539017 0.494523 0.189369
O10   O     O_2   0.796753 0.376948 0.656281 -0.546011
C33   C     C_R   0.024302 0.437007 0.553768 0.050203
C34   C     C_R   0.050361 0.540315 0.498520 0.064012
C35   C     C_R   0.025996 0.649333 0.451532 -0.009649
C36   C     C_R   0.048868 0.323343 0.579442 -0.150368
H2    H     H_    0.745754 0.416845 0.326072 0.169280
H3    H     H_    0.878115 0.308491 0.731117 0.211508
H4    H     H_    0.030032 0.237385 0.605542 0.213583
O11   O     O_2   0.204841 0.736257 0.414019 -0.569252
C37   C     C_R   0.104080 0.753159 0.419470 -0.170840
H5    H     H_    0.349282 0.495382 0.283912 0.206411
H6    H     H_    0.124675 0.837692 0.396150 0.197063
C38   C     C_R   0.949369 0.722445 0.349827 -0.201533
C39   C     C_R   0.899319 0.717038 0.342314 -0.139383
O12   O     O_2   0.798416 0.703159 0.334665 -0.568446
C40   C     C_R   0.053791 0.759316 0.421689 -0.024555
H7    H     H_    0.967495 0.785618 0.280917 0.160563
H8    H     H_    0.880991 0.780608 0.274039 0.193756
C41   C     C_2   0.465131 0.929001 0.414075 0.511403
C42   C     C_2   0.496990 0.870577 0.494700 -0.437449
H9    H     H_    0.522832 0.919488 0.556808 0.117628
C43   C     C_2   0.467352 0.065830 0.401243 -0.092032
C44   C     C_2   0.483191 0.131995 0.506075 -0.481471
H10   H     H_    0.486109 0.088305 0.604334 0.160819
C45   C     C_2   0.508322 0.403292 0.926145 -0.133955
N3    N     N_2   0.500520 0.501330 0.852150 -0.185261
H11   H     H_    0.511336 0.312162 0.879606 0.172486
H12   H     H_    0.506273 0.587982 0.893945 0.189519
C46   C     C_2   0.516356 0.411248 0.073928 -0.117519
N4    N     N_2   0.500540 0.501360 0.147810 -0.154979
H13   H     H_    0.536675 0.336021 0.121332 0.176094
O13   O     O_3   0.348529 0.514263 0.741671 -0.586656
C47   C     C_3   0.350266 0.390928 0.795369 -0.219322
H14   H     H_    0.369444 0.325618 0.727665 0.153176
H15   H     H_    0.313477 0.354143 0.817902 0.163134
H16   H     H_    0.370638 0.393158 0.890629 0.188767
O14   O     O_3   0.254098 0.511060 0.248090 -0.594550
C48   C     C_3   0.272243 0.603624 0.158692 -0.211368
H17   H     H_    0.303926 0.567205 0.103591 0.168552
H18   H     H_    0.281539 0.693528 0.208953 0.164068
H19   H     H_    0.243800 0.625724 0.084383 0.211808
C49   C     C_1   0.644181 0.652943 0.699140 0.279134
N5    N     N_1   0.623107 0.704813 0.781429 -0.188456
O15   O     O_3   0.745016 0.667680 0.690428 -0.595031
C50   C     C_3   0.748082 0.795560 0.651875 -0.266170
H20   H     H_    0.711726 0.838389 0.640128 0.156365
H21   H     H_    0.769195 0.808334 0.558373 0.191720
H22   H     H_    0.767234 0.847542 0.731413 0.208771
C51   C     C_1   0.033034 0.883708 0.411877 0.159878
N6    N     N_1   0.016647 0.983550 0.404476 -0.195722
O16   O     O_3   0.435026 0.860911 0.330830 -0.586613
C52   C     C_3   0.388820 0.855061 0.389394 -0.261881
H23   H     H_    0.372732 0.950412 0.397596 0.164318
H24   H     H_    0.389950 0.807481 0.489029 0.153227
H25   H     H_    0.364883 0.798402 0.324591 0.194651
C53   C     C_1   0.453291 0.122877 0.274968 0.304660
N7    N     N_1   0.441935 0.168082 0.174136 -0.219988
C54   C     C_1   0.247669 0.536382 0.732316 0.269754
N8    N     N_1   0.225151 0.547850 0.828577 -0.206938
C55   C     C_1   0.460569 0.569105 0.103019 0.361472
N9    N     N_1   0.427276 0.625344 0.066589 -0.214243
C56   C     C_1   0.652793 0.369697 0.303857 0.239610
N10   N     N_1   0.635571 0.303581 0.226153 -0.200560
O17   O     O_3   0.970066 0.289952 0.755860 -0.622336
C57   C     C_3   0.982394 0.360199 0.869391 -0.282522
H26   H     H_    0.949745 0.400259 0.917428 0.169124
H27   H     H_    0.008727 0.436328 0.844385 0.168908
H28   H     H_    0.999825 0.296422 0.943240 0.203997

loop_
_geom_bond_atom_site_label_1
_geom_bond_atom_site_label_2
_geom_bond_distance
_ccdc_geom_bond_type
C22   H3    1.083654 S    
C51   N6    1.157650 T    
C48   H19   1.108123 S    
O16   C52   1.408970 S    
C31   C32   1.400892 A    
Zn1   O7    2.010155 S    
N1    C11   1.427843 S    
C23   C24   1.406774 A    
C1    C44   1.430844 S    
C43   C53   1.450158 S    
O4    C2    1.298990 A    
O7    C4    1.296165 A    
C5    C13   1.396169 A    
C55   N9    1.157922 T    
C5    O9    1.350172 S    
Zn2   N4    2.016308 S    
C10   C54   1.445840 S    
C56   N10   1.157355 T    
C5    N1    1.365790 A    
C21   C22   1.393212 A    
C28   C32   1.392496 A    
O5    C3    1.286613 A    
O17   C57   1.410303 S    
C33   C36   1.410106 A    
C2    C16   1.469489 S    
C57   H26   1.113576 S    
C43   C44   1.344543 D    
C9    O13   1.384925 S    
C12   C15   1.406291 A    
C42   H9    1.084234 S    
C38   C39   1.389651 A    
O1    Zn1   1.965107 S    
C9    C10   1.400777 A    
C17   C30   1.420104 A    
C23   C27   1.397073 A    
C44   H10   1.086360 S    
C4    C17   1.470706 S    
O3    Zn1   2.010044 S    
C7    O14   1.387940 S    
C54   N8    1.156875 T    
C3    C42   1.414738 S    
C26   O12   1.349741 S    
C12   C13   1.408744 A    
O3    C2    1.297115 A    
C26   N2    1.365627 A    
C47   H15   1.112063 S    
O13   C47   1.411549 S    
C8    C16   1.404569 A    
C13   C14   1.397513 A    
C20   C24   1.410221 A    
O1    C1    1.286127 A    
C22   C23   1.397234 A    
C7    C11   1.398706 A    
C46   N4    1.296207 D    
C24   C25   1.408308 A    
C50   H21   1.111041 S    
O14   C48   1.412616 S    
Zn1   N3    2.016290 S    
Zn2   O8    2.010047 S    
C41   C43   1.459380 S    
C18   C20   1.415495 A    
N1    C6    1.366139 A    
C27   O10   1.350153 S    
C18   C21   1.423122 A    
C57   H27   1.113142 S    
C48   H17   1.110810 S    
C31   O15   1.384615 S    
C46   H13   1.084472 S    
C19   C35   1.418475 A    
C6    O11   1.349719 S    
C25   C39   1.398208 A    
N3    H12   1.028607 S    
N2    C27   1.365499 A    
C9    C16   1.415206 A    
O8    C4    1.296901 A    
C34   C35   1.418796 A    
C52   H24   1.113823 S    
C18   C33   1.412625 A    
C21   O17   1.382003 S    
C37   C40   1.395292 A    
C17   C29   1.415288 A    
O4    Zn2   2.010152 S    
C28   C29   1.389681 A    
N2    C32   1.423701 S    
C50   H20   1.112861 S    
C30   C31   1.402205 A    
C45   H11   1.084171 S    
C12   C34   1.410340 A    
Zn1   O5    1.955346 S    
C33   C34   1.417808 A    
N4    C55   1.394697 S    
C15   C37   1.397941 A    
O2    Zn2   1.955347 S    
C6    C15   1.399834 A    
C48   H18   1.115247 S    
O6    C3    1.281046 A    
C47   H16   1.109577 S    
C52   H25   1.109540 S    
C38   H7    1.079155 S    
C39   H8    1.083322 S    
C36   H4    1.079262 S    
C19   C20   1.417721 A    
C7    C8    1.398291 A    
O2    C1    1.287690 A    
C41   O16   1.387851 S    
C45   N3    1.290049 D    
C30   C49   1.448841 S    
C14   C36   1.387099 A    
C50   H22   1.109642 S    
C45   C46   1.501158 S    
O15   C50   1.410375 S    
C25   C26   1.398642 A    
C35   C40   1.425323 A    
C37   H6    1.085005 S    
C57   H28   1.109208 S    
C29   C56   1.445821 S    
C41   C42   1.345187 D    
C53   N7    1.157433 T    
C47   H14   1.113690 S    
C49   N5    1.157503 T    
C14   H1    1.083408 S    
Zn2   O6    1.965106 S    
C52   H23   1.113081 S    
C10   C11   1.404711 A    
C19   C38   1.410724 A    
C8    H5    1.082109 S    
C40   C51   1.446402 S    
C28   H2    1.084597 S    
