data_mof_unit_12499.cif
_audit_creation_date              2012-12-10T20:29:21-0500
_audit_creation_method            fapswitch 2.2
_symmetry_space_group_name_H-M    P1
_symmetry_Int_Tables_number       1
_space_group_crystal_system       triclinic
_cell_length_a                    18.508054
_cell_length_b                    18.829748
_cell_length_c                    19.180794
_cell_angle_alpha                 110.72719
_cell_angle_beta                  109.779476
_cell_angle_gamma                 109.248172
_cell_volume                      5058.15509354

loop_
_atom_site_label
_atom_site_type_symbol
_atom_type_description
_atom_site_fract_x
_atom_site_fract_y
_atom_site_fract_z
_atom_type_partial_charge
C1    C     C_R   0.382738 0.502995 0.380564 0.875956
C2    C     C_R   0.803708 0.875421 0.842839 -0.165458
C3    C     C_R   0.326470 0.330579 0.754059 -0.111164
C4    C     C_R   0.075058 0.331956 0.809018 -0.240594
C5    C     C_R   0.995562 0.311459 0.810063 -0.096070
C6    C     C_R   0.917862 0.227154 0.748190 0.007804
C7    C     C_R   0.921461 0.165938 0.685155 -0.252825
C8    C     C_R   0.000964 0.186934 0.685229 -0.063115
C9    C     C_R   0.079029 0.269381 0.747819 -0.003484
C10   C     C_R   0.805977 0.137153 0.771663 -0.138274
C11   C     C_R   0.725900 0.110149 0.772141 0.260861
C12   C     C_R   0.672020 0.144585 0.747153 -0.128899
C13   C     C_R   0.818140 0.833147 0.576344 -0.284423
C14   C     C_R   0.697782 0.204976 0.721667 -0.156740
C15   C     C_R   0.777732 0.231870 0.721660 -0.124640
C16   C     C_R   0.833105 0.199398 0.748158 0.095776
C17   C     C_R   0.809111 0.815432 0.496352 -0.053743
C18   C     C_R   0.734259 0.739991 0.418394 0.050222
C19   C     C_R   0.674732 0.677022 0.423145 -0.250624
C20   C     C_R   0.686478 0.691505 0.503945 -0.025892
C21   C     C_R   0.757212 0.772886 0.582385 0.045065
C22   C     C_R   0.650972 0.751408 0.295358 -0.344540
C23   C     C_R   0.629477 0.745815 0.215500 0.453674
C24   C     C_R   0.672219 0.718297 0.171811 0.117879
C25   C     C_R   0.621334 0.621661 0.502010 0.991445
C26   C     C_R   0.733529 0.695247 0.208592 -0.201975
C27   C     C_R   0.753286 0.699222 0.287752 0.176781
C28   C     C_R   0.712749 0.729179 0.332200 0.057808
C29   C     C_R   0.482015 0.801134 0.545940 -0.152611
C30   C     C_R   0.410443 0.716813 0.477888 -0.017462
C31   C     C_R   0.412551 0.672615 0.402886 0.191324
C32   C     C_R   0.488475 0.711931 0.398399 -0.128731
C33   C     C_R   0.559966 0.796189 0.466790 -0.100262
C34   C     C_R   0.555955 0.841390 0.539637 -0.117942
C35   C     C_R   0.267732 0.589499 0.261230 0.393217
C36   C     C_R   0.623505 0.502189 0.620038 0.962932
C37   C     C_R   0.192494 0.506548 0.188023 -0.224607
C38   C     C_R   0.184525 0.425915 0.178221 -0.056514
C39   C     C_R   0.249143 0.427671 0.242276 -0.248994
C40   C     C_R   0.320641 0.507423 0.315610 -0.133306
C41   C     C_R   0.332123 0.588952 0.326059 -0.161921
C42   C     C_R   0.054433 0.275924 0.109933 -0.134782
C43   C     C_R   0.990873 0.190218 0.038769 -0.124074
C44   C     C_R   0.984663 0.165535 0.958263 -0.117237
C45   C     C_R   0.040929 0.226973 0.948335 -0.131044
C46   C     C_R   0.104110 0.313088 0.019171 -0.127826
C47   C     C_R   0.377932 0.379480 0.497749 0.857207
C48   C     C_R   0.111646 0.337932 0.100670 0.156245
C49   C     C_R   0.186179 0.503932 0.540169 -0.100089
C50   C     C_R   0.204450 0.439872 0.548020 -0.170496
C51   C     C_R   0.216656 0.385912 0.485938 0.137526
C52   C     C_R   0.207571 0.395505 0.414509 -0.121187
C53   C     C_R   0.187999 0.458900 0.406357 -0.137682
C54   C     C_R   0.178437 0.513742 0.469616 -0.046551
C55   C     C_R   0.175687 0.253790 0.498164 -0.231247
C56   C     C_R   0.189714 0.186769 0.503269 -0.044214
C57   C     C_R   0.264887 0.182654 0.505267 0.062086
C58   C     C_R   0.723538 0.850320 0.774102 -0.163527
C59   C     C_R   0.324917 0.246337 0.501530 -0.159214
C60   C     C_R   0.310533 0.312806 0.495960 -0.088389
C61   C     C_R   0.235613 0.317556 0.494305 -0.006539
C62   C     C_R   0.334630 0.128550 0.592795 -0.180484
C63   C     C_R   0.361891 0.069654 0.601009 -0.158381
C64   C     C_R   0.338666 0.995287 0.526953 -0.204717
C65   C     C_R   0.286464 0.978540 0.444363 -0.196267
C66   C     C_R   0.258158 0.036966 0.435005 0.482893
C67   C     C_R   0.283065 0.113190 0.510287 -0.024844
C68   C     C_R   0.776289 0.480986 0.604448 0.399452
C69   C     C_R   0.708688 0.815415 0.689904 -0.165288
C70   C     C_R   0.820302 0.437081 0.581961 -0.140251
C71   C     C_R   0.862634 0.412390 0.635519 -0.218649
C72   C     C_R   0.862890 0.433409 0.712615 -0.184327
C73   C     C_R   0.810471 0.468566 0.731257 0.061626
C74   C     C_R   0.758335 0.483834 0.671798 -0.056762
C75   C     C_R   0.694223 0.504009 0.685439 -0.124999
C76   C     C_R   0.690079 0.516259 0.760033 -0.227905
C77   C     C_R   0.748478 0.510450 0.821949 -0.199209
C78   C     C_R   0.809906 0.489746 0.808836 -0.057348
C79   C     C_R   0.999458 0.878347 0.380120 0.901481
C80   C     C_R   0.771760 0.800824 0.671746 0.170912
C81   C     C_R   0.878490 0.878901 0.497426 0.868265
C82   C     C_R   0.000902 0.120890 0.619710 0.870932
C83   C     C_R   0.121455 0.119669 0.500668 0.916850
C84   C     C_R   0.997698 0.378890 0.878005 0.840841
C85   C     C_R   0.121880 0.502868 0.121673 0.964174
C86   C     C_R   0.995952 0.620074 0.115334 0.911701
C87   C     C_R   0.878597 0.498554 0.880049 0.840592
C88   C     C_R   0.170513 0.812012 0.558371 -0.251083
C89   C     C_R   0.139246 0.818749 0.485046 -0.057583
C90   C     C_R   0.056846 0.750793 0.409457 0.060940
C91   C     C_R   0.854569 0.828371 0.742821 0.198714
C92   C     C_R   0.009124 0.673427 0.406997 -0.286609
C93   C     C_R   0.040557 0.666041 0.480019 0.528953
C94   C     C_R   0.121229 0.735944 0.556073 -0.207825
C95   C     C_R   0.023084 0.689796 0.259757 -0.196346
C96   C     C_R   0.997588 0.686973 0.181460 -0.086697
C97   C     C_R   0.972697 0.745622 0.167488 0.007814
C98   C     C_R   0.973733 0.807267 0.234452 -0.119451
C99   C     C_R   0.001478 0.812351 0.314655 -0.105380
C100  C     C_R   0.027565 0.753133 0.328240 0.000850
C101  C     C_R   0.995425 0.758834 0.049545 -0.040412
C102  C     C_R   0.869210 0.865578 0.827509 -0.186321
C103  C     C_R   0.962425 0.752631 0.968724 0.213939
C104  C     C_R   0.873901 0.731629 0.923006 -0.111803
C105  C     C_R   0.818779 0.716413 0.957283 -0.170104
C106  C     C_R   0.850855 0.719593 0.036164 -0.208104
C107  C     C_R   0.939196 0.740247 0.082661 0.034927
C108  C     C_R   0.296859 0.277078 0.785498 0.262930
C109  C     C_R   0.216527 0.258499 0.784573 -0.102054
C110  C     C_R   0.164892 0.291303 0.750639 0.055650
C111  C     C_R   0.195441 0.345140 0.719883 -0.175100
C112  C     C_R   0.276211 0.364875 0.722017 -0.180359
H1    H     H_    0.815644 0.903617 0.908333 0.151701
H2    H     H_    0.765809 0.673672 0.174869 0.155802
H3    H     H_    0.611015 0.906961 0.591987 0.139056
H4    H     H_    0.479624 0.835773 0.602983 0.117869
H5    H     H_    0.352194 0.687211 0.482082 0.112917
H6    H     H_    0.490999 0.678434 0.341061 0.113299
H7    H     H_    0.618154 0.827045 0.463136 0.139059
H8    H     H_    0.243014 0.365877 0.235487 0.166398
H9    H     H_    0.673422 0.859703 0.786283 0.144143
H10   H     H_    0.059948 0.293763 0.172531 0.133959
H11   H     H_    0.947314 0.142533 0.046340 0.138671
H12   H     H_    0.936722 0.098542 0.903856 0.126377
H13   H     H_    0.036395 0.207450 0.886042 0.139523
H14   H     H_    0.148490 0.359613 0.011113 0.115653
H15   H     H_    0.164235 0.563308 0.463529 0.152294
H16   H     H_    0.177651 0.545743 0.588617 0.161695
H17   H     H_    0.209430 0.432756 0.602688 0.119771
H18   H     H_    0.214685 0.353387 0.364834 0.111324
H19   H     H_    0.179743 0.465473 0.350867 0.145751
H20   H     H_    0.647995 0.800917 0.638925 0.157168
H21   H     H_    0.117127 0.255766 0.496233 0.158947
H22   H     H_    0.383808 0.244737 0.504026 0.164238
H23   H     H_    0.355208 0.187255 0.650856 0.151977
H24   H     H_    0.402030 0.082292 0.664913 0.140622
H25   H     H_    0.360335 0.949956 0.533451 0.176360
H26   H     H_    0.268764 0.920097 0.387846 0.199570
H27   H     H_    0.641212 0.530388 0.770634 0.160326
H28   H     H_    0.831144 0.431613 0.528663 0.198041
H29   H     H_    0.901081 0.383229 0.620735 0.169046
H30   H     H_    0.902551 0.419749 0.756303 0.142586
H31   H     H_    0.747193 0.524123 0.881240 0.152285
H32   H     H_    0.146811 0.731155 0.612956 0.188985
H33   H     H_    0.233705 0.865331 0.616624 0.155783
H34   H     H_    0.179257 0.876734 0.486953 0.161755
H35   H     H_    0.948506 0.617801 0.347467 0.179826
H36   H     H_    0.041107 0.642681 0.267857 0.188148
H37   H     H_    0.953450 0.852156 0.223810 0.193737
H38   H     H_    0.931779 0.886931 0.882055 0.151114
H39   H     H_    0.064678 0.778295 0.086619 0.181896
H40   H     H_    0.847292 0.726021 0.860402 0.148175
H41   H     H_    0.750451 0.700147 0.921677 0.151509
H42   H     H_    0.806787 0.705342 0.060879 0.139909
H43   H     H_    0.388390 0.345901 0.754371 0.122917
H44   H     H_    0.193674 0.217729 0.809377 0.138823
H45   H     H_    0.156589 0.371352 0.694004 0.142472
H46   H     H_    0.300020 0.406492 0.698509 0.149257
H47   H     H_    0.873233 0.895438 0.634832 0.157629
H48   H     H_    0.135114 0.395922 0.857735 0.179392
H49   H     H_    0.862562 0.100960 0.636694 0.150355
H50   H     H_    0.847220 0.109822 0.789304 0.121063
H51   H     H_    0.609893 0.124220 0.746898 0.134354
H52   H     H_    0.655509 0.230610 0.701430 0.150747
H53   H     H_    0.795550 0.276497 0.699534 0.129677
H54   H     H_    0.617388 0.617599 0.363390 0.153946
H55   H     H_    0.620229 0.774205 0.330113 0.174039
O1    O     O_R   0.408360 0.551710 0.460090 -0.632313
O2    O     O_R   0.948280 0.908380 0.356650 -0.610688
O3    O     O_R   0.960110 0.908350 0.551690 -0.615856
O4    O     O_R   0.856660 0.908370 0.448270 -0.615546
O5    O     O_R   0.051720 0.091580 0.643310 -0.634815
O6    O     O_R   0.948270 0.091600 0.539890 -0.614737
O7    O     O_R   0.143340 0.091590 0.551680 -0.629733
O8    O     O_R   0.039890 0.091610 0.448270 -0.598350
O9    O     O_R   0.051710 0.460040 0.908380 -0.627975
O10   O     O_R   0.948270 0.356620 0.908410 -0.606420
O11   O     O_R   0.143330 0.551680 0.091590 -0.542104
O12   O     O_R   0.408390 0.448280 0.356670 -0.628652
O13   O     O_R   0.039890 0.448260 0.091620 -0.621211
O14   O     O_R   0.051700 0.643310 0.091570 -0.598013
O15   O     O_R   0.948260 0.539890 0.091600 -0.628439
O16   O     O_R   0.960080 0.551670 0.908360 -0.619743
O17   O     O_R   0.856640 0.448250 0.908390 -0.631411
O18   O     O_R   0.591600 0.643340 0.551710 -0.650113
O19   O     O_R   0.591630 0.539900 0.448290 -0.561491
O20   O     O_R   0.591610 0.551720 0.643330 -0.622976
O21   O     O_R   0.591640 0.448290 0.539910 -0.597520
O22   O     O_R   0.408370 0.460100 0.551710 -0.623073
O23   O     O_R   0.408400 0.356660 0.448290 -0.608360
O24   O     O_R   0.051730 0.908360 0.460070 -0.630444
Zn1   Zn    Zn3+2 0.499980 0.569070 0.569050 0.959180
Zn2   Zn    Zn3+2 0.500020 0.430930 0.430950 1.049956
Zn3   Zn    Zn3+2 0.069080 0.999960 0.569030 0.958676
Zn4   Zn    Zn3+2 0.930920 0.999990 0.430930 1.026534
Zn5   Zn    Zn3+2 0.069060 0.569020 0.999970 1.055062
Zn6   Zn    Zn3+2 0.930920 0.430910 0.000010 0.990093
C113  C     C_3   0.656116 0.712973 0.087160 -0.829049
H56   H     H_    0.602659 0.725689 0.058484 0.300575
H57   H     H_    0.718434 0.762459 0.098125 0.227612
H58   H     H_    0.637010 0.646024 0.038614 0.220900
C114  C     C_3   0.816181 0.670429 0.323205 -0.856751
H59   H     H_    0.782209 0.616597 0.332311 0.279971
H60   H     H_    0.838602 0.645329 0.277964 0.227107
H61   H     H_    0.875677 0.726912 0.386666 0.236537
S1    S     S_3+6 0.280465 0.692217 0.270937 0.019173
O25   O     O_2   0.353261 0.772558 0.358630 -0.304819
O26   O     O_2   0.300589 0.701457 0.203961 -0.254247
O27   O     O_3   0.184788 0.690828 0.252720 -0.595017
H62   H     H_    0.197609 0.750304 0.263414 0.390721
S2    S     S_3+6 0.194994 0.015202 0.329423 -0.007064
O28   O     O_2   0.169570 0.925919 0.261463 -0.327726
O29   O     O_2   0.111893 0.018166 0.318367 -0.343447
O30   O     O_3   0.256601 0.092921 0.317065 -0.543601
H63   H     H_    0.214931 0.082695 0.261050 0.385075
S3    S     S_3+6 0.787195 0.562399 0.577685 0.020993
O31   O     O_2   0.882413 0.614269 0.602310 -0.253828
O32   O     O_2   0.728578 0.518691 0.481273 -0.239034
O33   O     O_3   0.762250 0.632118 0.632563 -0.615538
H64   H     H_    0.801788 0.654241 0.694490 0.337761
C115  C     C_3   0.928936 0.819722 0.732153 -0.832816
H65   H     H_    0.908503 0.779941 0.663230 0.304861
H66   H     H_    0.986479 0.886386 0.762299 0.221778
H67   H     H_    0.951047 0.786479 0.765097 0.246399
S4    S     S_3+6 0.979878 0.567624 0.473937 0.014365
O34   O     O_2   0.884299 0.544624 0.440253 -0.229535
O35   O     O_2   0.983140 0.494680 0.411704 -0.335953
O36   O     O_3   0.023569 0.579218 0.572450 -0.560909
H68   H     H_    0.992780 0.518877 0.561362 0.376711
C116  C     C_3   0.020515 0.767612 0.930584 -0.887566
H69   H     H_    0.087630 0.780645 0.972555 0.251592
H70   H     H_    0.988828 0.708149 0.865659 0.254887
H71   H     H_    0.028946 0.825242 0.923348 0.232903
C117  C     C_3   0.349816 0.239323 0.819655 -0.957613
H72   H     H_    0.412048 0.260487 0.817250 0.234650
H73   H     H_    0.368280 0.261790 0.888238 0.252769
H74   H     H_    0.309009 0.166072 0.779838 0.243369
C118  C     C_3   0.697712 0.045244 0.799259 -0.975010
H75   H     H_    0.747666 0.025088 0.818261 0.246066
H76   H     H_    0.690488 0.075622 0.855851 0.254450
H77   H     H_    0.632676 0.985418 0.744697 0.234602
S5    S     S_3+6 0.550188 0.774934 0.173950 0.039174
O37   O     O_2   0.593055 0.850771 0.163873 -0.254077
O38   O     O_2   0.472575 0.697571 0.086446 -0.302690
O39   O     O_3   0.512549 0.805391 0.241319 -0.488199
H78   H     H_    0.472651 0.749751 0.234167 0.373351

loop_
_geom_bond_atom_site_label_1
_geom_bond_atom_site_label_2
_ccdc_geom_bond_type
C78   C87   S    
C101  C107  A    
C105  H41   S    
C55   C56   A    
C70   H28   S    
C93   C94   A    
C83   O8    A    
C27   C114  S    
C73   C74   A    
O19   Zn2   S    
O5    Zn3   S    
C95   C96   A    
C51   C61   S    
S3    O33   S    
C75   C76   A    
C26   H2    S    
C97   C98   A    
C114  H60   S    
C7    C8    A    
O2    Zn4   S    
C77   C78   A    
C52   C53   A    
C11   C118  S    
C72   H30   S    
C7    H49   S    
C118  H77   S    
C26   C27   A    
C29   C30   A    
C112  H46   S    
C62   C67   A    
O18   Zn1   S    
C8    C82   S    
C37   C85   S    
C50   H17   S    
C37   C38   A    
C24   C26   A    
C115  H67   S    
C85   O13   A    
C87   O16   A    
C5    C6    A    
C2    H1    S    
S1    O26   D    
C57   C59   A    
C106  C107  A    
C2    C102  A    
C68   C74   A    
C49   C54   A    
C55   C61   A    
S4    O36   S    
C108  C109  A    
C116  H71   S    
C18   C19   A    
O8    Zn4   S    
O14   Zn5   S    
C109  H44   S    
C110  C111  A    
C104  C105  A    
O13   Zn6   S    
C1    C40   S    
C47   C60   S    
C79   C99   S    
C111  C112  A    
C45   H13   S    
C8    C9    A    
C106  H42   S    
C114  H61   S    
C108  C117  S    
O6    Zn4   S    
C86   O14   A    
S5    O38   D    
C88   H33   S    
C113  H56   S    
C53   H19   S    
C19   H54   S    
S1    O25   D    
C91   C115  S    
C63   H24   S    
C38   C48   S    
O23   Zn2   S    
C71   H29   S    
C88   C89   A    
C103  C116  S    
C66   C67   A    
C24   C113  S    
C59   C60   A    
C101  C103  A    
C79   O24   A    
O39   H78   S    
C92   H35   S    
C14   H52   S    
C84   O10   A    
O15   Zn6   S    
C117  H73   S    
C57   C67   S    
C35   C41   A    
C90   C100  S    
O36   H68   S    
C22   C28   A    
O27   H62   S    
C82   O5    A    
C64   H25   S    
C89   H34   S    
C118  H76   S    
S5    O39   S    
O16   Zn5   S    
C74   C75   A    
C51   C52   A    
C10   H50   S    
C20   C25   S    
C18   C28   S    
C76   C77   A    
O4    Zn4   S    
C114  H59   S    
O33   H64   S    
O3    Zn3   S    
C5    C84   S    
C95   C100  A    
C72   C73   A    
C1    O1    A    
C50   C51   A    
C34   H3    S    
C53   C54   A    
O11   Zn5   S    
C29   C34   A    
C44   H12   S    
C30   C31   A    
C60   C61   A    
C36   O21   A    
C117  H74   S    
C38   C39   A    
C62   H23   S    
C47   O22   A    
O22   Zn1   S    
C43   C44   A    
C77   H31   S    
C115  H65   S    
C36   C75   S    
C35   S1    S    
C90   C92   A    
S2    O28   D    
C14   C15   A    
C82   O6    A    
C86   C96   S    
C3    C112  A    
C73   C78   A    
S3    O31   D    
C96   C97   A    
C62   C63   A    
C3    H43   S    
C17   C18   A    
C54   H15   S    
C13   C21   A    
C42   C48   A    
C81   O3    A    
O9    Zn5   S    
C23   S5    S    
C116  H70   S    
O20   Zn1   S    
C70   C71   A    
C25   O18   A    
C102  H38   S    
C65   H26   S    
C40   C41   A    
S2    O29   D    
C29   H4    S    
C12   C14   A    
O21   Zn2   S    
C65   C66   A    
C10   C11   A    
C66   S2    S    
C49   C50   A    
C45   C46   A    
C42   C43   A    
C22   H55   S    
C91   C102  A    
C43   H11   S    
C39   C40   A    
C44   C45   A    
C42   H10   S    
C56   C83   S    
C86   O15   A    
O12   Zn2   S    
C76   H27   S    
C35   C37   A    
C9    C110  S    
C56   C57   A    
C49   H16   S    
C118  H75   S    
C58   H9    S    
O17   Zn6   S    
C31   C41   S    
S4    O34   D    
O30   H63   S    
C46   H14   S    
C31   C32   A    
C95   H36   S    
C32   H6    S    
C4    C5    A    
S3    O32   D    
C101  H39   S    
C11   C12   A    
C2    C58   A    
C58   C69   A    
O7    Zn3   S    
C6    C7    A    
C30   H5    S    
C3    C108  A    
C105  C106  A    
C19   C20   A    
C59   H22   S    
O1    Zn1   S    
C99   C100  A    
C13   C17   A    
C36   O20   A    
C94   H32   S    
C64   C65   A    
C79   O2    A    
C47   O23   A    
C113  H57   S    
C89   C90   A    
O24   Zn3   S    
C52   H18   S    
C71   C72   A    
C115  H66   S    
C55   H21   S    
C109  C110  A    
C32   C33   A    
C12   H51   S    
C1    O12   A    
S1    O27   S    
C104  H40   S    
C4    H48   S    
C10   C16   A    
C80   C91   A    
C69   H20   S    
S5    O37   D    
C21   C80   S    
C92   C93   A    
S4    O35   D    
C85   O11   A    
C33   C34   A    
C113  H58   S    
C17   C81   S    
C81   O4    A    
C111  H45   S    
C116  H69   S    
C68   S3    S    
C25   O19   A    
C23   C24   A    
C6    C16   S    
C63   C64   A    
C97   C107  S    
C46   C48   A    
C93   S4    S    
S2    O30   S    
C13   H47   S    
C20   C21   A    
C33   H7    S    
C68   C70   A    
C98   C99   A    
C117  H72   S    
C83   O7    A    
C103  C104  A    
C39   H8    S    
C88   C94   A    
C22   C23   A    
C15   H53   S    
C69   C80   A    
O10   Zn6   S    
C4    C9    A    
C84   O9    A    
C87   O17   A    
C15   C16   A    
C27   C28   A    
C98   H37   S    
