data_mof_unit_31442.cif
_audit_creation_date              2012-12-10T18:56:23-0500
_audit_creation_method            fapswitch 2.2
_symmetry_space_group_name_H-M    P1
_symmetry_Int_Tables_number       1
_space_group_crystal_system       triclinic
_cell_length_a                    10.628453
_cell_length_b                    9.947117
_cell_length_c                    19.341519
_cell_angle_alpha                 89.939863
_cell_angle_beta                  92.553152
_cell_angle_gamma                 90.22219
_cell_volume                      2042.78707779

loop_
_atom_site_label
_atom_site_type_symbol
_atom_type_description
_atom_site_fract_x
_atom_site_fract_y
_atom_site_fract_z
_atom_type_partial_charge
C1    C     C_R   0.871795 0.499868 0.499988 -0.141587
C2    C     C_R   0.739044 0.500120 0.499951 0.884599
C3    C     C_R   0.503579 0.499949 0.365692 0.884367
C4    C     C_R   0.499595 0.499549 0.634362 0.950113
C5    C     C_R   0.060418 0.475767 0.437239 -0.042726
C6    C     C_R   0.939320 0.525825 0.562760 -0.027870
C7    C     C_R   0.929314 0.479494 0.436784 -0.052258
C8    C     C_R   0.070470 0.529599 0.562736 -0.031054
C9    C     C_R   0.481875 0.372841 0.745410 0.487628
C10   C     C_R   0.537662 0.621484 0.254326 0.487259
C11   C     C_R   0.519834 0.375233 0.253951 0.483538
C12   C     C_R   0.128022 0.501004 0.500138 -0.158831
C13   C     C_R   0.516047 0.616676 0.749017 0.473342
C14   C     C_R   0.493095 0.369281 0.817270 -0.186232
C15   C     C_R   0.553779 0.617928 0.183133 -0.192782
C16   C     C_R   0.529152 0.376130 0.182404 -0.241239
C17   C     C_R   0.527925 0.609917 0.820814 -0.224760
C18   C     C_R   0.517182 0.486926 0.854224 -0.014315
C19   C     C_R   0.545587 0.496672 0.147752 0.002169
C20   C     C_R   0.585954 0.073107 0.540533 -0.014923
C21   C     C_R   0.413105 0.927084 0.459983 0.010946
C22   C     C_R   0.416866 0.071190 0.457085 -0.039099
C23   C     C_R   0.414381 0.502358 0.965085 -0.068344
C24   C     C_R   0.583316 0.928962 0.542852 -0.015459
C25   C     C_R   0.498877 0.496720 0.710311 -0.257844
C26   C     C_R   0.518881 0.499144 0.290364 -0.271848
C27   C     C_2   0.687647 0.148908 0.577654 0.620215
C28   C     C_2   0.308746 0.851929 0.424587 0.536729
C29   C     C_2   0.337677 0.143410 0.403596 0.575622
C30   C     C_2   0.663678 0.857131 0.595975 0.533984
C31   C     C_2   0.128638 0.443902 0.373424 0.513556
C32   C     C_2   0.871968 0.544691 0.627900 0.444514
C33   C     C_2   0.850804 0.468737 0.371084 0.513050
C34   C     C_R   0.652802 0.479523 0.036857 -0.101586
C35   C     C_2   0.149597 0.553800 0.627579 0.400736
C36   C     C_3   0.335439 0.215511 0.712819 -0.272245
C37   C     C_3   0.458476 0.834059 0.265171 -0.269915
C38   C     C_3   0.610716 0.174034 0.283632 -0.204144
C39   C     C_3   0.420440 0.814041 0.720770 -0.201448
C40   C     C_2   0.292809 0.526382 0.925331 0.491381
C41   C     C_2   0.777281 0.462029 0.074875 0.434670
C42   C     C_2   0.305515 0.511119 0.078321 0.523453
C43   C     C_2   0.762539 0.458018 0.925241 0.429341
C44   C     C_R   0.421682 0.505522 0.037707 -0.073285
C45   C     C_R   0.644851 0.470912 0.964223 -0.085682
C46   C     C_R   0.540995 0.497380 0.072657 0.007336
C47   C     C_R   0.525554 0.482484 0.929269 0.012586
C48   C     C_R   0.260882 0.500017 0.500042 0.795310
H1    H     H_    0.484126 0.274497 0.844342 0.170554
H2    H     H_    0.886633 0.634857 0.658661 0.150298
H3    H     H_    0.761414 0.416129 0.370379 0.025509
H4    H     H_    0.243454 0.512509 0.632915 0.032235
H5    H     H_    0.317518 0.129019 0.677563 0.194760
H6    H     H_    0.271091 0.297817 0.695023 0.155845
H7    H     H_    0.313242 0.182762 0.765907 0.163034
H8    H     H_    0.362945 0.787482 0.260296 0.159258
H9    H     H_    0.484350 0.879619 0.215319 0.165735
H10   H     H_    0.454189 0.916917 0.303013 0.219328
H11   H     H_    0.609163 0.096499 0.324831 0.191047
H12   H     H_    0.570599 0.709681 0.154759 0.165948
H13   H     H_    0.699467 0.232715 0.292473 0.166150
H14   H     H_    0.611092 0.121378 0.233030 0.161331
H15   H     H_    0.401423 0.840882 0.775127 0.158301
H16   H     H_    0.338674 0.759251 0.696206 0.180287
H17   H     H_    0.431764 0.909117 0.691685 0.198832
H18   H     H_    0.272166 0.474477 0.876814 0.055387
H19   H     H_    0.848859 0.398849 0.053513 0.080500
H20   H     H_    0.305540 0.566449 0.126630 0.048763
H21   H     H_    0.849855 0.502554 0.945579 0.085864
H22   H     H_    0.520917 0.282997 0.153504 0.165998
H23   H     H_    0.545876 0.700735 0.850632 0.174447
H24   H     H_    0.666394 0.228460 0.613034 0.153600
H25   H     H_    0.326669 0.764324 0.393833 0.086860
H26   H     H_    0.316629 0.247578 0.408135 0.126343
H27   H     H_    0.684473 0.752773 0.591684 0.120660
H28   H     H_    0.218335 0.491716 0.364298 0.004420
N1    N     N_R   0.500000 0.857200 0.500000 -0.177468
N2    N     N_R   0.500000 0.142800 0.500000 -0.186396
O1    O     O_R   0.316770 0.614620 0.500000 -0.630007
O2    O     O_2   0.199715 0.886433 0.430915 -0.533441
O3    O     O_2   0.298123 0.087794 0.350720 -0.547288
O4    O     O_2   0.704325 0.913384 0.648476 -0.529216
O5    O     O_2   0.088183 0.359726 0.332158 -0.495711
O6    O     O_2   0.799037 0.459060 0.647413 -0.571591
O7    O     O_2   0.882612 0.523662 0.318105 -0.486462
O8    O     O_2   0.113157 0.622521 0.674841 -0.593753
O9    O     O_3   0.463088 0.253362 0.709779 -0.587587
O10   O     O_3   0.550886 0.742139 0.289782 -0.576875
O11   O     O_3   0.501874 0.254181 0.287587 -0.583352
O12   O     O_R   0.683230 0.385380 0.500000 -0.621867
O13   O     O_3   0.532371 0.739273 0.717068 -0.570382
O14   O     O_2   0.217332 0.608933 0.944724 -0.523480
O15   O     O_2   0.802426 0.519427 0.129539 -0.488019
O16   O     O_2   0.210642 0.448901 0.059831 -0.516665
O17   O     O_2   0.764222 0.395685 0.870961 -0.506772
O18   O     O_R   0.683230 0.614620 0.500000 -0.651259
O19   O     O_R   0.316770 0.385380 0.500000 -0.656481
O20   O     O_R   0.500030 0.614710 0.398180 -0.593376
O21   O     O_R   0.499970 0.385290 0.601820 -0.591746
O22   O     O_R   0.499970 0.614710 0.601820 -0.615895
O23   O     O_R   0.500030 0.385290 0.398180 -0.612951
O24   O     O_2   0.797776 0.122690 0.568387 -0.538581
Zn1   Zn    Zn3+2 0.500000 0.653120 0.500000 0.960041
Zn2   Zn    Zn3+2 0.500000 0.346880 0.500000 0.958316

loop_
_geom_bond_atom_site_label_1
_geom_bond_atom_site_label_2
_ccdc_geom_bond_type
C6    C32   S    
C22   C29   S    
C39   H17   S    
C15   H12   S    
C14   C18   A    
C37   O10   S    
C42   O16   D    
C12   C48   S    
O1    Zn1   S    
C18   C47   S    
C4    C25   S    
C19   C46   S    
C9    C25   A    
C41   H19   S    
C15   C19   A    
C39   H16   S    
C38   O11   S    
C10   O10   S    
C48   O1    A    
C10   C15   A    
C35   O8    D    
C14   H1    S    
C23   C40   S    
C31   O5    D    
C1    C2    S    
C2    O12   A    
C33   O7    D    
C36   H5    S    
C37   H8    S    
C41   O15   D    
C20   C24   A    
C43   O17   D    
C34   C46   A    
C37   H10   S    
C38   H13   S    
C3    O23   A    
O21   Zn2   S    
C43   H21   S    
C40   H18   S    
C21   C22   A    
C13   O13   S    
C42   H20   S    
C7    C33   S    
C13   C25   A    
C34   C41   S    
C42   C44   S    
C28   H25   S    
C39   O13   S    
C44   C46   A    
C45   C47   A    
C36   O9    S    
C32   O6    D    
C23   C47   A    
N2    Zn2   S    
C1    C6    A    
C16   H22   S    
C22   N2    A    
C5    C12   A    
C5    C7    A    
C6    C8    A    
C29   H26   S    
C11   C26   A    
O22   Zn1   S    
C23   C44   A    
C8    C35   S    
C30   O4    D    
C9    C14   A    
C29   O3    D    
C48   O19   A    
C11   C16   A    
C11   O11   S    
C8    C12   A    
O12   Zn2   S    
C17   C18   A    
C34   C45   A    
C40   O14   D    
C43   C45   S    
C32   H2    S    
C21   C28   S    
C17   H23   S    
O23   Zn2   S    
C4    O22   A    
N1    Zn1   S    
C1    C7    A    
C3    C26   S    
C20   C27   S    
C20   N2    A    
C33   H3    S    
C39   H15   S    
C27   O24   D    
C13   C17   A    
C2    O18   A    
C36   H7    S    
C9    O9    S    
C30   H27   S    
C3    O20   A    
C10   C26   A    
C31   H28   S    
C16   C19   A    
C28   O2    D    
C24   C30   S    
O19   Zn2   S    
C36   H6    S    
C38   H11   S    
C24   N1    A    
C4    O21   A    
C21   N1    A    
C35   H4    S    
C38   H14   S    
O18   Zn1   S    
C37   H9    S    
C27   H24   S    
O20   Zn1   S    
C5    C31   S    
