data_mof_unit_64359.cif
_audit_creation_date              2012-12-10T19:43:58-0500
_audit_creation_method            fapswitch 2.2
_symmetry_space_group_name_H-M    P1
_symmetry_Int_Tables_number       1
_space_group_crystal_system       triclinic
_cell_length_a                    31.104472
_cell_length_b                    30.268662
_cell_length_c                    24.065347
_cell_angle_alpha                 89.702876
_cell_angle_beta                  132.512673
_cell_angle_gamma                 89.881229
_cell_volume                      16700.6262325

loop_
_atom_site_label
_atom_site_type_symbol
_atom_type_description
_atom_site_fract_x
_atom_site_fract_y
_atom_site_fract_z
_atom_type_partial_charge
C1    C     C_R   0.809105 0.810521 0.499048 0.920368
C2    C     C_1   0.517157 0.759307 0.033646 -0.020360
C3    C     C_R   0.906075 0.095098 0.495342 -0.086966
C4    C     C_R   0.592258 0.597347 0.444136 0.022208
C5    C     C_R   0.433574 0.624546 0.554725 -0.021877
C6    C     C_R   0.073894 0.111195 0.433690 0.010383
C7    C     C_R   0.933549 0.124509 0.554745 -0.018929
C8    C     C_3   0.570602 0.574919 0.374410 -0.358237
C9    C     C_3   0.474547 0.616738 0.637814 -0.339536
C10   C     C_3   0.058012 0.084907 0.369841 -0.350948
C11   C     C_3   0.974402 0.116639 0.637813 -0.340716
C12   C     C_3   0.611144 0.606931 0.377586 0.265943
C13   C     C_1   0.982532 0.258674 0.966317 -0.017717
C14   C     C_3   0.440748 0.653300 0.638782 0.242107
C15   C     C_3   0.099277 0.115030 0.373418 0.250666
C16   C     C_3   0.940621 0.153228 0.638753 0.241933
C17   C     C_R   0.439228 0.560421 0.498647 0.971888
C18   C     C_R   0.559986 0.560590 0.500675 0.924358
C19   C     C_R   0.939214 0.060403 0.498650 0.972557
C20   C     C_R   0.059908 0.060980 0.500649 0.928227
C21   C     C_R   0.938855 0.940653 0.499351 0.986919
C22   C     C_R   0.062740 0.942231 0.501212 0.979668
C23   C     C_R   0.439094 0.440391 0.499353 0.987100
C24   C     C_1   0.017168 0.259290 0.033650 -0.019858
C25   C     C_R   0.563532 0.443139 0.501360 0.966829
C26   C     C_R   0.825174 0.750606 0.646907 0.935040
C27   C     C_R   0.175778 0.750120 0.353184 0.934058
C28   C     C_R   0.325347 0.250695 0.646933 0.936290
C29   C     C_R   0.675949 0.249875 0.353011 0.928903
C30   C     C_R   0.448609 0.784844 0.846718 -0.143173
C31   C     C_R   0.544995 0.779617 0.151798 -0.141252
C32   C     C_R   0.948524 0.284916 0.846708 -0.141985
C33   C     C_R   0.045092 0.279729 0.151811 -0.154628
C34   C     C_R   0.410170 0.782826 0.768580 -0.103115
C35   C     C_R   0.894832 0.834031 0.521894 0.144918
C36   C     C_R   0.583813 0.777745 0.230077 -0.194076
C37   C     C_R   0.910083 0.282901 0.768568 -0.102477
C38   C     C_R   0.083919 0.277875 0.230091 -0.186875
C39   C     C_R   0.364279 0.752393 0.729075 -0.048791
C40   C     C_R   0.636693 0.754506 0.271123 -0.019861
C41   C     C_R   0.864291 0.252382 0.729077 -0.051284
C42   C     C_R   0.136713 0.254515 0.271128 -0.013962
C43   C     C_R   0.357205 0.724121 0.768825 -0.216787
C44   C     C_R   0.650781 0.733858 0.233010 -0.148754
C45   C     C_R   0.857326 0.224013 0.768844 -0.216137
C46   C     C_R   0.103866 0.836625 0.472662 0.139389
C47   C     C_R   0.150714 0.233729 0.233007 -0.151820
C48   C     C_R   0.395648 0.726065 0.847223 0.016765
C49   C     C_R   0.612052 0.735704 0.154581 0.009980
C50   C     C_R   0.895773 0.225952 0.847243 0.016671
C51   C     C_R   0.111982 0.235566 0.154577 0.010724
C52   C     C_1   0.693584 0.686497 0.624265 0.220590
C53   C     C_1   0.251852 0.635721 0.367822 0.217512
C54   C     C_1   0.223599 0.164520 0.641116 0.197989
C55   C     C_1   0.751784 0.135547 0.367914 0.223362
C56   C     C_1   0.507253 0.581614 0.312590 0.424837
C57   C     C_R   0.394257 0.333599 0.520185 0.149005
C58   C     C_1   0.535271 0.626033 0.674806 0.411913
C59   C     C_1   0.995141 0.089406 0.303271 0.416195
C60   C     C_1   0.035189 0.125856 0.675012 0.414067
C61   C     C_1   0.387470 0.696403 0.886623 0.199756
C62   C     C_1   0.627453 0.713657 0.116918 0.206805
C63   C     C_1   0.887708 0.196191 0.886662 0.200480
C64   C     C_1   0.127291 0.213380 0.116904 0.207976
C65   C     C_1   0.858902 0.784224 0.415230 0.201073
C66   C     C_1   0.128593 0.784033 0.571774 0.208415
C67   C     C_1   0.356168 0.284410 0.411989 0.203550
C68   C     C_R   0.603478 0.337502 0.471224 0.063136
C69   C     C_1   0.624062 0.285230 0.568149 0.233329
C70   C     C_R   0.842583 0.844677 0.502353 -0.230716
C71   C     C_R   0.159866 0.844816 0.502199 -0.244234
C72   C     C_R   0.342762 0.344558 0.502474 -0.227781
C73   C     C_R   0.191519 0.810470 0.502118 0.935697
C74   C     C_R   0.660667 0.344627 0.504127 -0.217798
C75   C     C_R   0.824679 0.889114 0.489860 -0.262613
C76   C     C_R   0.183583 0.887350 0.527365 -0.266107
C77   C     C_R   0.325815 0.389126 0.491812 -0.265016
C78   C     C_R   0.686475 0.386072 0.534245 -0.239574
C79   C     C_R   0.855364 0.921750 0.487827 0.365103
C80   C     C_R   0.153266 0.920531 0.529285 0.436789
C81   C     C_R   0.356536 0.421672 0.489710 0.366571
C82   C     C_R   0.656653 0.419510 0.536541 0.423242
C83   C     C_R   0.904605 0.909147 0.499355 -0.198995
C84   C     C_R   0.309100 0.310507 0.499012 0.921388
C85   C     C_R   0.097702 0.910719 0.502472 -0.206163
C86   C     C_R   0.404847 0.408840 0.499255 -0.198852
C87   C     C_R   0.598741 0.411539 0.503066 -0.210058
C88   C     C_R   0.925911 0.866187 0.521968 -0.014421
C89   C     C_R   0.072881 0.869872 0.471155 -0.005614
C90   C     C_R   0.425427 0.365601 0.520175 -0.020760
C91   C     C_R   0.572711 0.371419 0.468978 0.037491
C92   C     C_3   0.943474 0.835581 0.492113 -0.620748
C93   C     C_3   0.048533 0.839781 0.492504 -0.620944
C94   C     C_3   0.441643 0.334985 0.488577 -0.614332
C95   C     C_R   0.691814 0.310419 0.502755 0.883708
C96   C     C_3   0.545901 0.342089 0.487588 -0.606749
C97   C     C_3   0.909279 0.799764 0.491667 0.338080
C98   C     C_3   0.082710 0.802755 0.495379 0.335045
C99   C     C_3   0.407374 0.299357 0.488409 0.334225
C100  C     C_3   0.579849 0.304366 0.491696 0.318426
C101  C     C_R   0.677065 0.751426 0.353434 0.908783
C102  C     C_R   0.323406 0.750557 0.646641 0.876834
C103  C     C_R   0.177044 0.251399 0.353430 0.906838
C104  C     C_R   0.823410 0.250554 0.646642 0.882921
C105  C     C_R   0.037062 0.731763 0.148774 0.281599
C106  C     C_R   0.441495 0.756632 0.886056 0.090728
C107  C     C_R   0.966799 0.729398 0.849028 0.362847
C108  C     C_R   0.540119 0.227889 0.148084 0.264168
C109  C     C_R   0.468269 0.228831 0.847647 0.290989
C110  C     C_R   0.073250 0.741418 0.226375 0.243463
C111  C     C_R   0.929112 0.738940 0.770942 0.220443
C112  C     C_R   0.574652 0.239258 0.224569 0.294721
C113  C     C_R   0.429846 0.239318 0.769810 0.238842
C114  C     C_R   0.133706 0.748647 0.270270 -0.212252
C115  C     C_R   0.869845 0.750262 0.730067 -0.229161
C116  C     C_R   0.635144 0.247131 0.269965 -0.182317
C117  C     C_R   0.558822 0.758533 0.114024 0.098493
C118  C     C_R   0.370703 0.250396 0.730153 -0.223040
C119  C     C_R   0.155213 0.752488 0.234817 -0.223518
C120  C     C_R   0.852357 0.759645 0.769208 -0.201139
C121  C     C_R   0.657876 0.250320 0.235904 -0.223904
C122  C     C_R   0.354080 0.258765 0.770541 -0.198424
C123  C     C_R   0.117900 0.748895 0.157153 -0.161025
C124  C     C_R   0.891797 0.756087 0.847149 -0.184217
C125  C     C_R   0.621571 0.245831 0.158347 -0.163771
C126  C     C_R   0.394288 0.254344 0.848496 -0.160137
C127  C     C_R   0.059400 0.738542 0.114432 -0.052280
C128  C     C_R   0.941514 0.256611 0.886061 0.090944
C129  C     C_R   0.948297 0.740618 0.886742 -0.045627
C130  C     C_R   0.563135 0.234660 0.114708 -0.036460
C131  C     C_R   0.450658 0.238969 0.886754 -0.043308
C132  C     C_1   0.021437 0.738574 0.034346 0.091943
C133  C     C_1   0.988057 0.739255 0.967015 0.137190
C134  C     C_1   0.525185 0.235070 0.034541 0.074160
C135  C     C_1   0.491202 0.236494 0.967131 0.073438
C136  C     C_R   0.626502 0.625902 0.446516 0.017946
C137  C     C_R   0.402123 0.656268 0.554902 0.096168
C138  C     C_R   0.108177 0.140228 0.434146 0.068001
C139  C     C_R   0.058834 0.258515 0.114028 0.099779
C140  C     C_R   0.902092 0.156248 0.554893 0.096464
C141  C     C_R   0.660227 0.656436 0.503895 -0.124847
C142  C     C_R   0.341515 0.657055 0.497898 -0.172375
C143  C     C_R   0.159282 0.156215 0.502147 -0.160162
C144  C     C_R   0.841487 0.157044 0.497864 -0.174314
C145  C     C_R   0.659768 0.655861 0.562442 -0.028544
C146  C     C_R   0.313645 0.631573 0.432652 -0.034944
C147  C     C_R   0.173035 0.146287 0.569969 -0.012205
C148  C     C_R   0.813603 0.131493 0.432682 -0.037044
C149  C     C_R   0.690494 0.689682 0.500108 0.925187
C150  C     C_1   0.482518 0.758691 0.966313 -0.017303
C151  C     C_R   0.310278 0.689769 0.501152 0.879077
C152  C     C_R   0.190269 0.189624 0.499675 0.911379
C153  C     C_R   0.810252 0.189767 0.501106 0.880246
C154  C     C_R   0.626746 0.623966 0.561808 -0.208162
C155  C     C_R   0.346605 0.601035 0.431209 -0.116056
C156  C     C_R   0.138905 0.116029 0.569277 -0.199529
C157  C     C_R   0.846563 0.100944 0.431266 -0.113646
C158  C     C_R   0.592618 0.594111 0.501795 -0.070195
C159  C     C_R   0.406101 0.595136 0.495324 -0.083957
C160  C     C_R   0.091036 0.096416 0.501280 -0.074662
H1    H     H_    0.484041 0.808334 0.876533 0.161528
H2    H     H_    0.877863 0.764670 0.876617 0.179540
H3    H     H_    0.639182 0.250711 0.132373 0.177296
H4    H     H_    0.380974 0.262003 0.878963 0.176245
H5    H     H_    0.627293 0.622712 0.607336 0.178267
H6    H     H_    0.325331 0.580508 0.382082 0.204595
H7    H     H_    0.151171 0.106490 0.621912 0.174049
H8    H     H_    0.825278 0.080351 0.382206 0.206955
H9    H     H_    0.584186 0.539727 0.383645 0.192927
H10   H     H_    0.469277 0.583540 0.652494 0.176910
H11   H     H_    0.072815 0.049965 0.384675 0.196118
H12   H     H_    0.503899 0.797122 0.120645 0.159638
H13   H     H_    0.969014 0.083441 0.652361 0.175657
H14   H     H_    0.649031 0.589671 0.391483 0.111495
H15   H     H_    0.417335 0.641328 0.655915 0.085093
H16   H     H_    0.139734 0.097520 0.395431 0.124408
H17   H     H_    0.917121 0.141272 0.655768 0.085162
H18   H     H_    0.416405 0.805094 0.739201 0.186828
H19   H     H_    0.572060 0.793889 0.258318 0.171542
H20   H     H_    0.916235 0.305242 0.739176 0.186230
H21   H     H_    0.072215 0.294101 0.258333 0.175870
H22   H     H_    0.321880 0.700518 0.738991 0.178247
H23   H     H_    0.983876 0.308476 0.876511 0.161029
H24   H     H_    0.691745 0.716111 0.264210 0.175909
H25   H     H_    0.822085 0.200338 0.739022 0.178534
H26   H     H_    0.191602 0.215872 0.264195 0.176433
H27   H     H_    0.785583 0.898021 0.478387 0.220423
H28   H     H_    0.226555 0.894014 0.548345 0.217664
H29   H     H_    0.287374 0.398246 0.481774 0.220620
H30   H     H_    0.730711 0.391540 0.558815 0.212118
H31   H     H_    0.925106 0.846206 0.435307 0.191570
H32   H     H_    0.064140 0.848973 0.548264 0.187662
H33   H     H_    0.422801 0.345882 0.431669 0.193598
H34   H     H_    0.004052 0.297317 0.120664 0.161103
H35   H     H_    0.560375 0.351313 0.542713 0.181671
H36   H     H_    0.990929 0.829701 0.535262 0.225608
H37   H     H_    0.000810 0.837458 0.445212 0.223867
H38   H     H_    0.488963 0.328391 0.530664 0.225505
H39   H     H_    0.498228 0.340811 0.439079 0.222785
H40   H     H_    0.036887 0.785935 0.649778 0.353601
H41   H     H_    0.958489 0.795984 0.330867 0.354145
H42   H     H_    0.534740 0.284932 0.645389 0.353130
H43   H     H_    0.459596 0.300799 0.325192 0.362080
H44   H     H_    0.921287 0.767034 0.020279 0.329018
H45   H     H_    0.201068 0.758515 0.267343 0.185967
H46   H     H_    0.090609 0.659590 0.998419 0.389488
H47   H     H_    0.425356 0.259953 0.018766 0.328701
H48   H     H_    0.590357 0.254547 0.974584 0.334263
H49   H     H_    0.078595 0.815848 0.310729 0.334456
H50   H     H_    0.927184 0.811555 0.686917 0.335605
H51   H     H_    0.590396 0.285266 0.366118 0.396310
H52   H     H_    0.426437 0.313054 0.686210 0.334941
H53   H     H_    0.536286 0.710130 0.272595 0.380070
H54   H     H_    0.525822 0.751120 0.673640 0.392709
H55   H     H_    0.018545 0.208533 0.241160 0.383473
H56   H     H_    0.808065 0.769982 0.739467 0.202225
H57   H     H_    0.025892 0.250993 0.673959 0.392167
H58   H     H_    0.787881 0.973850 0.351119 0.357304
H59   H     H_    0.201564 0.016417 0.649110 0.383692
H60   H     H_    0.288092 0.474882 0.354159 0.356461
H61   H     H_    0.691092 0.534995 0.545387 0.385167
H62   H     H_    0.703741 0.256881 0.269303 0.185383
H63   H     H_    0.309704 0.268430 0.741664 0.193590
H64   H     H_    0.134851 0.753705 0.130331 0.189708
N1    N     N_1   0.720521 0.710988 0.673912 -0.181278
N2    N     N_1   0.639766 0.696004 0.086729 -0.127790
N3    N     N_1   0.881277 0.172364 0.918268 -0.131407
N4    N     N_1   0.139530 0.195616 0.086707 -0.127320
N5    N     N_1   0.819346 0.772033 0.355295 -0.179752
N6    N     N_1   0.164607 0.769354 0.631677 -0.160858
N7    N     N_1   0.315960 0.272681 0.352068 -0.180161
N8    N     N_1   0.658761 0.270228 0.628097 -0.157844
N9    N     N_1   0.202366 0.639084 0.315914 -0.153103
N10   N     N_1   0.264144 0.178912 0.698334 -0.173516
N11   N     N_1   0.702277 0.138819 0.316054 -0.148713
N12   N     N_1   0.457450 0.586787 0.264179 -0.144620
N13   N     N_1   0.582972 0.633187 0.703756 -0.151649
N14   N     N_1   0.945721 0.092864 0.251128 -0.141011
N15   N     N_1   0.082943 0.132946 0.704133 -0.152018
N16   N     N_1   0.380946 0.672655 0.918214 -0.133330
O1    O     O_R   0.821670 0.769930 0.500010 -0.566606
O2    O     O_R   0.077130 0.954190 0.562600 -0.582619
O3    O     O_2   0.246281 0.973051 0.594310 -0.264226
O4    O     O_2   0.149221 0.007090 0.505467 -0.370333
O5    O     O_3   0.190518 0.984857 0.638279 -0.526014
O6    O     O_2   0.278388 0.481353 0.460032 -0.271676
O7    O     O_2   0.379693 0.504741 0.538157 -0.294092
O8    O     O_3   0.317528 0.495578 0.394519 -0.559802
O9    O     O_2   0.688491 0.480780 0.638956 -0.258836
O10   O     O_2   0.756979 0.465108 0.623337 -0.280738
O11   O     O_3   0.663491 0.510088 0.518415 -0.611495
O12   O     O_R   0.422870 0.454190 0.437400 -0.608101
O13   O     O_R   0.577130 0.454190 0.562600 -0.587163
O14   O     O_R   0.985440 0.954220 0.562600 -0.606337
O15   O     O_R   0.014560 0.954220 0.437400 -0.623508
O16   O     O_R   0.485440 0.454220 0.562600 -0.605163
O17   O     O_R   0.514560 0.454220 0.437400 -0.622754
O18   O     O_R   0.769920 0.821660 0.500020 -0.632149
O19   O     O_R   0.230080 0.821660 0.499980 -0.629785
O20   O     O_R   0.269920 0.321660 0.500020 -0.633263
O21   O     O_R   0.178330 0.769930 0.499990 -0.567460
O22   O     O_R   0.730080 0.321660 0.499980 -0.610534
O23   O     O_R   0.720420 0.724130 0.389120 -0.598876
O24   O     O_R   0.279580 0.724130 0.610880 -0.633645
O25   O     O_R   0.220420 0.224130 0.389120 -0.602992
O26   O     O_R   0.779580 0.224130 0.610880 -0.627260
O27   O     O_R   0.668670 0.775850 0.389130 -0.632378
O28   O     O_R   0.331330 0.775850 0.610870 -0.592781
O29   O     O_R   0.168670 0.275850 0.389130 -0.630777
O30   O     O_R   0.831330 0.275850 0.610870 -0.592671
O31   O     O_R   0.730060 0.678320 0.499990 -0.616993
O32   O     O_R   0.321670 0.269930 0.500010 -0.565007
O33   O     O_R   0.269940 0.678320 0.500010 -0.615321
O34   O     O_R   0.230060 0.178320 0.499990 -0.608221
O35   O     O_R   0.769940 0.178320 0.500010 -0.611316
O36   O     O_R   0.678300 0.730040 0.500010 -0.604576
O37   O     O_R   0.321700 0.730040 0.499990 -0.581414
O38   O     O_R   0.178300 0.230040 0.500010 -0.604807
O39   O     O_R   0.821700 0.230040 0.499990 -0.582319
O40   O     O_R   0.831300 0.724120 0.610880 -0.544649
O41   O     O_R   0.168700 0.724120 0.389120 -0.539543
O42   O     O_R   0.331300 0.224120 0.610880 -0.544160
O43   O     O_R   0.678330 0.269930 0.499990 -0.609800
O44   O     O_R   0.668700 0.224120 0.389120 -0.573693
O45   O     O_R   0.779550 0.775850 0.610900 -0.631359
O46   O     O_R   0.220450 0.775850 0.389100 -0.633382
O47   O     O_R   0.279550 0.275850 0.610900 -0.632134
O48   O     O_R   0.720450 0.275850 0.389100 -0.620469
O49   O     O_R   0.422810 0.545810 0.437360 -0.613144
O50   O     O_R   0.577190 0.545810 0.562640 -0.603413
O51   O     O_R   0.922810 0.045810 0.437360 -0.611902
O52   O     O_R   0.077190 0.045810 0.562640 -0.623515
O53   O     O_2   0.917856 0.721663 0.553953 -0.177813
O54   O     O_R   0.485380 0.545840 0.562560 -0.633593
O55   O     O_2   0.985472 0.733403 0.536518 -0.234054
O56   O     O_3   0.004467 0.775237 0.645024 -0.435304
O57   O     O_2   0.073708 0.726088 0.431791 -0.174194
O58   O     O_2   0.000506 0.740467 0.438956 -0.238242
O59   O     O_3   0.992149 0.784172 0.339101 -0.432105
O60   O     O_2   0.415441 0.220776 0.549295 -0.180686
O61   O     O_2   0.482758 0.232592 0.531418 -0.229707
O62   O     O_3   0.502712 0.273693 0.641065 -0.431373
O63   O     O_2   0.569758 0.226142 0.431030 -0.209954
O64   O     O_2   0.493540 0.245234 0.430847 -0.226254
O65   O     O_R   0.514620 0.545840 0.437440 -0.643277
O66   O     O_3   0.492301 0.285603 0.334732 -0.455384
O67   O     O_2   0.950370 0.679681 0.034332 -0.269018
O68   O     O_2   0.960013 0.684343 0.143054 -0.144247
O69   O     O_3   0.916557 0.752037 0.052524 -0.471242
O70   O     O_2   0.036362 0.674902 0.848766 -0.182744
O71   O     O_2   0.082656 0.736406 0.938105 -0.272979
O72   O     O_3   0.049105 0.668339 0.966114 -0.541055
O73   O     O_2   0.458514 0.171502 0.038361 -0.259697
O74   O     O_2   0.465498 0.179088 0.144858 -0.150027
O75   O     O_3   0.417993 0.243357 0.047162 -0.466457
O76   O     O_R   0.985380 0.045840 0.562560 -0.633022
O77   O     O_2   0.551076 0.171117 0.956380 -0.269437
O78   O     O_2   0.535857 0.174809 0.843265 -0.147623
O79   O     O_3   0.589680 0.239810 0.937350 -0.473820
O80   O     O_2   0.981178 0.768703 0.207994 -0.180101
O81   O     O_2   0.041747 0.708119 0.297024 -0.138181
O82   O     O_3   0.082182 0.788112 0.335655 -0.525876
O83   O     O_2   0.020646 0.758007 0.783471 -0.182625
O84   O     O_2   0.952192 0.701430 0.693055 -0.144279
O85   O     O_3   0.920137 0.783914 0.660045 -0.521684
O86   O     O_2   0.478467 0.266187 0.197374 -0.145915
O87   O     O_R   0.014620 0.045840 0.437440 -0.639625
O88   O     O_2   0.544727 0.213244 0.300247 -0.181953
O89   O     O_3   0.576544 0.295926 0.317632 -0.554438
O90   O     O_2   0.520286 0.259442 0.780583 -0.179101
O91   O     O_2   0.451473 0.203238 0.689547 -0.141427
O92   O     O_3   0.419243 0.285724 0.658616 -0.529092
O93   O     O_2   0.623577 0.662314 0.302990 -0.317148
O94   O     O_2   0.530599 0.624024 0.227215 -0.259937
O95   O     O_3   0.548708 0.688502 0.312194 -0.552105
O96   O     O_2   0.438075 0.737383 0.672676 -0.304734
O97   O     O_2   0.528928 0.695836 0.766265 -0.266730
O98   O     O_R   0.922870 0.954190 0.437400 -0.607638
O99   O     O_3   0.504455 0.723975 0.644988 -0.536935
O100  O     O_2   0.117403 0.163592 0.298117 -0.314968
O101  O     O_2   0.027944 0.120526 0.221495 -0.259868
O102  O     O_3   0.031963 0.191497 0.285785 -0.549196
O103  O     O_2   0.938034 0.237308 0.672740 -0.305418
O104  O     O_2   0.028781 0.195661 0.766390 -0.267424
O105  O     O_3   0.004558 0.223843 0.645297 -0.536853
O106  O     O_2   0.775446 0.980976 0.454361 -0.270127
O107  O     O_2   0.876586 0.005194 0.534135 -0.295338
O108  O     O_3   0.816574 0.994946 0.391256 -0.557170
S1    S     S_3+6 0.954569 0.755505 0.556931 0.131261
S2    S     S_3+6 0.957634 0.744715 0.727537 0.153316
S3    S     S_3+6 0.541240 0.252802 0.259354 0.147825
S4    S     S_3+6 0.457289 0.246105 0.725218 0.150015
S5    S     S_3+6 0.577430 0.645936 0.301621 0.031560
S6    S     S_3+6 0.478981 0.704097 0.683401 0.039820
S7    S     S_3+6 0.068408 0.147896 0.291448 0.032459
S8    S     S_3+6 0.978927 0.203981 0.683519 0.039229
S9    S     S_3+6 0.830170 0.977035 0.468074 0.022413
S10   S     S_3+6 0.186061 0.972792 0.566415 0.025358
S11   S     S_3+6 0.332285 0.477154 0.471894 0.021948
S12   S     S_3+6 0.036769 0.761363 0.425887 0.131222
S13   S     S_3+6 0.693508 0.469424 0.582827 0.029813
S14   S     S_3+6 0.452341 0.254593 0.552609 0.133736
S15   S     S_3+6 0.533271 0.263382 0.421609 0.092670
S16   S     S_3+6 0.965108 0.710127 0.094245 0.116731
S17   S     S_3+6 0.035569 0.702192 0.900052 0.090149
S18   S     S_3+6 0.469676 0.203652 0.094249 0.121786
S19   S     S_3+6 0.536891 0.201744 0.896409 0.117602
S20   S     S_3+6 0.042421 0.751016 0.265999 0.150331
Zn1   Zn    Zn3+2 0.784540 0.715450 0.500000 1.150282
Zn2   Zn    Zn3+2 0.541810 0.500000 0.583590 1.066663
Zn3   Zn    Zn3+2 0.958190 0.000000 0.416410 1.028113
Zn4   Zn    Zn3+2 0.041810 0.000000 0.583590 1.048899
Zn5   Zn    Zn3+2 0.215460 0.715450 0.500000 1.130619
Zn6   Zn    Zn3+2 0.284540 0.215450 0.500000 1.157963
Zn7   Zn    Zn3+2 0.715460 0.215450 0.500000 1.109577
Zn8   Zn    Zn3+2 0.715430 0.784520 0.500020 1.025182
Zn9   Zn    Zn3+2 0.284570 0.784520 0.499980 1.053745
Zn10  Zn    Zn3+2 0.215430 0.284520 0.500020 1.024079
Zn11  Zn    Zn3+2 0.784570 0.284520 0.499980 1.060618
Zn12  Zn    Zn3+2 0.458190 0.500000 0.416410 1.026282

loop_
_geom_bond_atom_site_label_1
_geom_bond_atom_site_label_2
_ccdc_geom_bond_type
C96   H39   S    
C105  C110  A    
C87   C91   A    
C142  C146  A    
C107  C129  A    
C8    C56   S    
C26   O40   A    
C28   O42   A    
C38   H21   S    
C154  C158  A    
C138  C143  A    
C31   H12   S    
C82   C87   A    
H53   O95   S    
C81   S11   S    
C99   S14   S    
O99   S6    S    
O4    S10   D    
C91   C96   S    
O88   S3    D    
C28   O47   A    
C21   C83   S    
O49   Zn12  S    
C3    C19   S    
C119  H45   S    
C81   C86   A    
C76   H28   S    
C141  C145  A    
C83   C88   A    
C46   C98   S    
C67   N7    T    
O11   S13   S    
C130  C134  S    
C36   H19   S    
C157  H8    S    
C2    C117  S    
C108  S18   S    
O91   S4    D    
C57   C90   A    
C21   O98   A    
O85   S2    S    
C86   C90   A    
C69   N8    T    
C55   N11   T    
C71   C73   S    
C30   C34   A    
C79   S9    S    
C63   N3    T    
C10   H11   S    
O70   S17   D    
O21   Zn5   S    
C142  C151  S    
O106  S9    D    
C23   O12   A    
C78   C82   A    
C14   C137  S    
O87   Zn3   S    
C20   O87   A    
C47   H26   S    
C72   C84   S    
O108  S9    S    
C129  C133  S    
C33   H34   S    
H42   O62   S    
C29   O48   A    
O63   S15   D    
C11   C60   S    
C8    H9    S    
C12   H14   S    
C1    O18   A    
C93   H32   S    
C37   H20   S    
C49   C62   S    
O100  S7    D    
C51   C64   S    
C1    C70   S    
C92   H36   S    
O58   S12   D    
C6    C160  A    
C73   O19   A    
C5    C137  A    
C119  C123  A    
H58   O108  S    
C33   C38   A    
O23   Zn1   S    
C28   C118  S    
C27   O46   A    
O29   Zn10  S    
C107  S17   S    
C45   H25   S    
C71   C76   A    
C45   C50   A    
C33   C139  A    
C53   C146  S    
C103  O25   A    
O37   Zn9   S    
C69   C100  S    
C20   C160  S    
C41   C45   A    
C31   C36   A    
O82   S20   S    
C75   C79   A    
O92   S4    S    
C2    C150  T    
O2    Zn4   S    
C137  C142  A    
C122  C126  A    
C106  C150  S    
O56   S1    S    
C42   C103  S    
C46   C89   A    
C5    C9    S    
C18   O50   A    
O54   Zn2   S    
O80   S20   D    
C68   C74   A    
C57   C99   S    
O5    S10   S    
O75   S18   S    
C118  C122  A    
C22   C85   S    
H43   O66   S    
C100  S15   S    
C40   C101  S    
C96   H35   S    
C49   C117  A    
O67   S16   D    
C121  H62   S    
C154  H5    S    
C19   O76   A    
C110  C114  A    
C108  C130  A    
C114  C119  A    
C92   H31   S    
C25   O17   A    
H52   O92   S    
C21   O14   A    
O40   Zn1   S    
O12   Zn12  S    
C50   C63   S    
H40   O56   S    
C16   C140  S    
O79   S19   S    
C73   O21   A    
C92   C97   S    
O38   Zn10  S    
C105  C127  A    
C155  C159  A    
C34   C39   A    
C20   O52   A    
C149  O36   A    
C156  C160  A    
C26   O45   A    
C25   O13   A    
O65   Zn12  S    
C111  S2    S    
C93   H37   S    
C68   C100  S    
C121  C125  A    
C123  C127  A    
C8    C12   S    
O20   Zn10  S    
C153  O35   A    
C32   C37   A    
C22   O15   A    
C145  C154  A    
O14   Zn4   S    
C54   N10   T    
O77   S19   D    
O36   Zn8   S    
O61   S14   D    
C39   C102  S    
O3    S10   D    
C107  C111  A    
O95   S5    S    
C76   C80   A    
C23   O16   A    
O44   Zn7   S    
O41   Zn5   S    
C134  C135  T    
O33   Zn5   S    
O50   Zn2   S    
C41   C104  S    
C65   N5    T    
C77   H29   S    
C66   C98   S    
O86   S3    D    
C55   C148  S    
C29   O44   A    
C96   C100  S    
O8    S11   S    
H55   O102  S    
C148  C157  A    
C89   C93   S    
C17   C159  S    
C105  S16   S    
C104  O30   A    
O35   Zn7   S    
C40   C44   A    
O68   S16   D    
H50   O85   S    
C12   C136  S    
C70   C75   A    
C3    C157  A    
O89   S3    S    
C56   N12   T    
C51   C139  A    
C32   H23   S    
C112  C116  A    
C15   H16   S    
C103  O29   A    
O98   Zn3   S    
C3    C7    A    
C7    C140  A    
O64   S15   D    
C25   C87   S    
C9    C58   S    
C26   C115  S    
C48   C106  A    
C146  C155  A    
C15   S7    S    
C23   C86   S    
C109  C131  A    
O83   S2    D    
O31   Zn1   S    
O51   Zn3   S    
C58   N13   T    
O34   Zn6   S    
C4    C8    S    
C4    C136  A    
C19   O51   A    
O71   S17   D    
O48   Zn11  S    
C9    H10   S    
O22   Zn11  S    
O107  S9    D    
C98   S12   S    
O30   Zn11  S    
C90   C94   S    
C124  H2    S    
C24   C139  S    
O90   S4    D    
C59   N14   T    
C116  C121  A    
C85   C89   A    
C47   C51   A    
C62   N2    T    
O78   S19   D    
C18   O65   A    
C143  C147  A    
C9    C14   S    
O81   S20   D    
C80   C85   A    
C18   C158  S    
O32   Zn6   S    
O16   Zn2   S    
C11   C16   S    
C77   C81   A    
O6    S11   D    
H51   O89   S    
C67   C99   S    
O53   S1    D    
O13   Zn2   S    
C60   N15   T    
C147  C156  A    
C151  O33   A    
C46   C71   A    
C152  O38   A    
C143  C152  S    
O9    S13   D    
C122  H63   S    
C109  S19   S    
O66   S15   S    
H48   O79   S    
C34   H18   S    
C50   C128  A    
H44   O69   S    
C53   N9    T    
O72   S17   S    
C22   O2    A    
O103  S8    D    
C82   S13   S    
O74   S18   D    
C61   N16   T    
C75   H27   S    
C140  C144  A    
C104  O26   A    
C6    C10   S    
O39   Zn11  S    
C113  S4    S    
H41   O59   S    
C123  H64   S    
O57   S12   D    
O7    S11   D    
C153  O39   A    
C10   C59   S    
O17   Zn12  S    
H60   O8    S    
C79   C83   A    
O69   S16   S    
C32   C128  A    
O62   S14   S    
C124  C129  A    
C57   C72   A    
C108  C112  A    
O10   S13   D    
H54   O99   S    
C74   C78   A    
C16   S8    S    
C30   H1    S    
O19   Zn9   S    
C44   C49   A    
C52   C145  S    
C94   H33   S    
C78   H30   S    
C144  C148  A    
C141  C149  S    
C7    C11   S    
C12   S5    S    
C14   H15   S    
H47   O75   S    
C126  C131  A    
C97   S1    S    
C38   C42   A    
C131  C135  S    
C10   C15   S    
O97   S6    D    
C155  H6    S    
C68   C91   A    
C144  C153  S    
O59   S12   S    
O55   S1    D    
C4    C158  A    
O26   Zn7   S    
H49   O82   S    
C127  C132  S    
C13   C128  S    
C125  C130  A    
C95   O22   A    
C31   C117  A    
C88   C92   S    
C35   C70   A    
C132  C133  T    
C5    C159  A    
H59   O5    S    
O93   S5    D    
C43   C48   A    
C44   H24   S    
C109  C113  A    
C15   C138  S    
C136  C141  A    
C101  O27   A    
C102  O28   A    
C30   C106  A    
C37   C41   A    
O25   Zn6   S    
C125  H3    S    
C126  H4    S    
O27   Zn8   S    
C112  S3    S    
O24   Zn5   S    
H46   O72   S    
C17   O54   A    
O45   Zn8   S    
C110  S20   S    
C11   H13   S    
C84   O32   A    
O105  S8    S    
H61   O11   S    
C36   C40   A    
C149  O31   A    
O18   Zn8   S    
C39   C43   A    
C156  H7    S    
O84   S2    D    
C13   C24   T    
C94   H38   S    
C6    C138  A    
C72   C77   A    
O101  S7    D    
C35   C88   A    
O73   S18   D    
O46   Zn9   S    
O60   S14   D    
O94   S5    D    
O104  S8    D    
C1    O1    A    
O28   Zn9   S    
C29   C116  S    
O1    Zn1   S    
C101  O23   A    
C102  O24   A    
O76   Zn4   S    
O52   Zn4   S    
C64   N4    T    
C16   H17   S    
O96   S6    D    
C74   C95   S    
C84   O20   A    
O42   Zn6   S    
O47   Zn10  S    
C27   O41   A    
C120  H56   S    
C66   N6    T    
C43   H22   S    
C95   O43   A    
C151  O37   A    
C65   C97   S    
C152  O34   A    
C48   C61   S    
C17   O49   A    
C94   C99   S    
C14   S6    S    
C42   C47   A    
H57   O105  S    
C113  C118  A    
C27   C114  S    
O102  S7    S    
C52   N1    T    
O15   Zn3   S    
C115  C120  A    
C111  C115  A    
O43   Zn7   S    
C35   C97   S    
C93   C98   S    
C120  C124  A    
C80   S10   S    
C54   C147  S    
