data_mof_unit_41586.cif
_audit_creation_date              2012-12-10T18:31:03-0500
_audit_creation_method            fapswitch 2.2
_symmetry_space_group_name_H-M    P1
_symmetry_Int_Tables_number       1
_space_group_crystal_system       triclinic
_cell_length_a                    13.6307
_cell_length_b                    14.975577
_cell_length_c                    15.359052
_cell_angle_alpha                 99.088345
_cell_angle_beta                  91.186368
_cell_angle_gamma                 97.339222
_cell_volume                      3067.80684133

loop_
_atom_site_label
_atom_site_type_symbol
_atom_type_description
_atom_site_fract_x
_atom_site_fract_y
_atom_site_fract_z
_atom_type_partial_charge
C1    C     C_R   0.516394 0.557158 0.662537 0.851801
C2    C     C_R   0.511433 0.381163 0.915373 -0.273112
C3    C     C_R   0.660390 0.642848 0.017566 -0.014874
C4    C     C_R   0.486135 0.316481 0.969853 -0.018644
C5    C     C_R   0.328942 0.173967 0.617528 -0.308535
C6    C     C_R   0.601851 0.808656 0.331147 -0.320682
C7    C     C_R   0.367764 0.260689 0.604657 -0.003747
C8    C     C_R   0.599148 0.731316 0.370413 0.006886
C9    C     C_R   0.487182 0.201359 0.508361 0.057148
C10   C     C_R   0.513373 0.798905 0.492075 0.068955
C11   C     C_R   0.442561 0.110985 0.511001 -0.047258
C12   C     C_R   0.488074 0.442283 0.337457 0.856264
C13   C     C_R   0.504588 0.875482 0.449830 -0.042549
C14   C     C_R   0.365580 0.097820 0.570647 0.113436
C15   C     C_R   0.553172 0.881299 0.369484 0.107678
C16   C     C_R   0.318731 0.514385 0.497042 0.885512
C17   C     C_R   0.681324 0.485922 0.503623 0.888364
C18   C     C_R   0.474459 0.033402 0.459643 0.054994
C19   C     C_R   0.452497 0.947876 0.486240 0.056194
C20   C     C_R   0.372353 0.935298 0.541086 -0.249786
C21   C     C_R   0.516585 0.036227 0.377195 -0.260326
C22   C     C_R   0.327634 0.008631 0.582131 0.002494
C23   C     C_R   0.564227 0.541379 0.897627 0.090741
C24   C     C_R   0.552592 0.960294 0.330158 0.006859
C25   C     C_1   0.782399 0.477337 0.507856 -0.155369
C26   C     C_1   0.217959 0.524663 0.496382 -0.193895
C27   C     C_2   0.970782 0.466436 0.513659 -0.174996
C28   C     C_2   0.030070 0.538188 0.496604 -0.158179
C29   C     C_1   0.132610 0.533221 0.496088 0.004693
C30   C     C_1   0.868046 0.470303 0.511358 0.006741
C31   C     C_R   0.544023 0.589085 0.755588 -0.052210
C32   C     C_R   0.490940 0.405379 0.243801 -0.058935
C33   C     C_R   0.645412 0.689169 0.871473 -0.219645
C34   C     C_R   0.537002 0.433531 0.097641 0.088032
C35   C     C_R   0.455101 0.283935 0.119305 -0.188237
C36   C     C_R   0.608873 0.669085 0.784041 -0.177970
C37   C     C_R   0.453435 0.315011 0.209581 -0.218750
C38   C     C_R   0.518167 0.528986 0.814038 -0.250453
C39   C     C_R   0.533924 0.462808 0.188225 -0.249025
C40   C     C_1   0.723055 0.726321 0.053979 0.131132
C41   C     C_1   0.448005 0.224424 0.929033 0.138054
C42   C     C_R   0.242974 0.989505 0.638038 0.109753
C43   C     C_R   0.146870 0.999510 0.610072 -0.167179
C44   C     C_R   0.066884 0.980364 0.662767 -0.140141
C45   C     C_R   0.623713 0.625569 0.929431 0.112193
C46   C     C_R   0.082464 0.951103 0.743403 -0.107370
C47   C     C_R   0.178081 0.941091 0.771534 -0.136807
C48   C     C_R   0.258196 0.960237 0.719045 -0.137800
C49   C     C_R   0.586529 0.965285 0.239651 0.114967
C50   C     C_R   0.540297 0.904082 0.167171 -0.160303
C51   C     C_R   0.570486 0.910320 0.081626 -0.125039
C52   C     C_R   0.646490 0.977922 0.067759 -0.086839
C53   C     C_R   0.692515 0.039292 0.139434 -0.126936
C54   C     C_R   0.662660 0.033149 0.225096 -0.161962
C55   C     C_R   0.501471 0.805273 0.588838 0.142147
C56   C     C_R   0.493365 0.343402 0.061928 0.112519
C57   C     C_R   0.571240 0.864599 0.646403 -0.172182
C58   C     C_R   0.557840 0.879154 0.737331 -0.158055
C59   C     C_R   0.475178 0.833970 0.771805 -0.116270
C60   C     C_R   0.405469 0.774667 0.715324 -0.174551
C61   C     C_R   0.417997 0.760839 0.624261 -0.103878
C62   C     C_R   0.590277 0.219443 0.480058 0.152596
C63   C     C_R   0.668511 0.207649 0.536322 -0.137832
C64   C     C_R   0.766466 0.222258 0.511026 -0.134453
C65   C     C_R   0.787130 0.248649 0.429360 -0.115022
C66   C     C_R   0.709914 0.260916 0.373077 -0.182278
C67   C     C_R   0.549157 0.472436 0.950746 0.048686
C68   C     C_R   0.611930 0.246143 0.398121 -0.105359
C69   C     C_R   0.574234 0.495110 0.041434 0.049111
C70   C     C_R   0.633956 0.579058 0.072989 -0.274333
H1    H     H_    0.002053 0.599269 0.482066 0.158750
H2    H     H_    0.633020 0.714735 0.738443 0.174623
H3    H     H_    0.693058 0.752913 0.892321 0.147103
H4    H     H_    0.422906 0.214423 0.094570 0.151858
H5    H     H_    0.664423 0.594914 0.140004 0.144337
H6    H     H_    0.503796 0.358193 0.844862 0.157734
H7    H     H_    0.630985 0.672995 0.337840 0.136200
H8    H     H_    0.336112 0.319346 0.636795 0.141051
H9    H     H_    0.134084 0.021897 0.547595 0.133165
H10   H     H_    0.992834 0.988104 0.641064 0.127752
H11   H     H_    0.020489 0.936283 0.784103 0.124369
H12   H     H_    0.998700 0.405133 0.527721 0.154044
H13   H     H_    0.190150 0.918653 0.834050 0.131857
H14   H     H_    0.332058 0.953149 0.741711 0.155772
H15   H     H_    0.480735 0.851874 0.176983 0.135557
H16   H     H_    0.534955 0.862785 0.026079 0.125848
H17   H     H_    0.669760 0.982665 0.001503 0.116710
H18   H     H_    0.751394 0.091609 0.128637 0.128029
H19   H     H_    0.699246 0.080661 0.280081 0.145596
H20   H     H_    0.635167 0.900875 0.620557 0.126031
H21   H     H_    0.611672 0.925312 0.781100 0.130991
H22   H     H_    0.465021 0.845099 0.842212 0.129819
H23   H     H_    0.269635 0.167239 0.662768 0.165526
H24   H     H_    0.340700 0.740700 0.741938 0.133114
H25   H     H_    0.360242 0.719222 0.581587 0.140775
H26   H     H_    0.653487 0.186795 0.599655 0.120803
H27   H     H_    0.826356 0.212973 0.554688 0.125225
H28   H     H_    0.862959 0.259743 0.409768 0.129813
H29   H     H_    0.725830 0.280691 0.309518 0.135411
H30   H     H_    0.553165 0.251756 0.352142 0.129884
H31   H     H_    0.640482 0.810203 0.270447 0.171085
H32   H     H_    0.338230 0.867644 0.546363 0.150842
H33   H     H_    0.512294 0.094212 0.344607 0.144581
H34   H     H_    0.559732 0.532636 0.216196 0.153087
H35   H     H_    0.462607 0.471022 0.792471 0.152351
H36   H     H_    0.420269 0.269226 0.251969 0.151556
N1    N     N_R   0.445040 0.272490 0.551770 -0.113038
N2    N     N_R   0.554960 0.727510 0.448230 -0.114238
N3    N     N_1   0.773246 0.793039 0.083271 -0.209253
N4    N     N_1   0.417542 0.150834 0.896229 -0.221579
O1    O     O_R   0.527700 0.614770 0.606110 -0.604209
O2    O     O_R   0.472300 0.385230 0.393890 -0.623044
O3    O     O_R   0.492440 0.468680 0.639380 -0.620107
O4    O     O_R   0.507560 0.531320 0.360620 -0.618845
O5    O     O_R   0.379820 0.583550 0.480950 -0.616370
O6    O     O_R   0.620180 0.416450 0.519050 -0.588518
O7    O     O_R   0.344560 0.437460 0.514220 -0.609745
O8    O     O_R   0.655440 0.562540 0.485780 -0.616481
Zn1   Zn    Zn3+2 0.523550 0.597550 0.477790 0.937973
Zn2   Zn    Zn3+2 0.476450 0.402450 0.522210 0.940017

loop_
_geom_bond_atom_site_label_1
_geom_bond_atom_site_label_2
_ccdc_geom_bond_type
C66   C68   A    
C35   H4    S    
C34   C56   A    
C23   C45   A    
C18   C21   A    
C33   C45   A    
C10   N2    A    
C19   C20   A    
C39   H34   S    
C11   C18   A    
C53   C54   A    
C48   H14   S    
C28   C29   S    
C35   C37   A    
C65   H28   S    
C11   C14   A    
C32   C39   A    
C20   H32   S    
C4    C41   S    
C43   H9    S    
C49   C54   A    
C46   H11   S    
C1    C31   S    
C33   C36   A    
O1    Zn1   S    
C18   C19   A    
C6    H31   S    
C23   C67   A    
O8    Zn1   S    
C50   H15   S    
C6    C15   A    
C47   H13   S    
C58   H21   S    
O4    Zn1   S    
C59   C60   A    
C12   C32   S    
C27   C30   S    
N2    Zn1   S    
C1    O3    A    
C8    N2    A    
C51   H16   S    
C44   C46   A    
C12   O4    A    
C27   H12   S    
C16   C26   S    
C57   H20   S    
C13   C19   A    
C34   C39   A    
C44   H10   S    
C3    C70   A    
C54   H19   S    
C2    C67   A    
O7    Zn2   S    
C5    C7    A    
C25   C30   T    
C6    C8    A    
C58   C59   A    
C63   H26   S    
C3    C45   A    
C51   C52   A    
C60   C61   A    
C67   C69   A    
C66   H29   S    
C2    C4    A    
C43   C44   A    
C68   H30   S    
C62   C63   A    
O3    Zn2   S    
C47   C48   A    
C50   C51   A    
C42   C48   A    
C32   C37   A    
C10   C55   S    
C9    C11   A    
C34   C69   A    
C5    C14   A    
C17   O8    A    
C7    H8    S    
C33   H3    S    
C64   H27   S    
C20   C22   A    
C3    C40   S    
C49   C50   A    
O5    Zn1   S    
C41   N4    T    
C55   C57   A    
C8    H7    S    
C7    N1    A    
C28   H1    S    
C42   C43   A    
C16   O5    A    
N1    Zn2   S    
C12   O2    A    
C2    H6    S    
C52   C53   A    
O2    Zn2   S    
C24   C49   S    
C46   C47   A    
C15   C24   A    
C35   C56   A    
C52   H17   S    
C10   C13   A    
C5    H23   S    
C61   H25   S    
C40   N3    T    
C9    N1    A    
C23   C38   A    
C9    C62   S    
C31   C38   A    
C62   C68   A    
C17   C25   S    
C64   C65   A    
C14   C22   A    
C38   H35   S    
C13   C15   A    
C37   H36   S    
C16   O7    A    
C1    O1    A    
C57   C58   A    
C22   C42   S    
C55   C61   A    
C53   H18   S    
C59   H22   S    
C69   C70   A    
C63   C64   A    
C21   H33   S    
O6    Zn2   S    
C26   C29   T    
C65   C66   A    
C21   C24   A    
C70   H5    S    
C31   C36   A    
C4    C56   A    
C36   H2    S    
C17   O6    A    
C27   C28   D    
C60   H24   S    
