data_mof_unit_33239.cif
_audit_creation_date              2012-12-11T15:33:43-0500
_audit_creation_method            fapswitch 2.2
_symmetry_space_group_name_H-M    P1
_symmetry_Int_Tables_number       1
_space_group_crystal_system       triclinic
_cell_length_a                    27.080897
_cell_length_b                    7.207136
_cell_length_c                    22.747969
_cell_angle_alpha                 90.002333
_cell_angle_beta                  101.381601
_cell_angle_gamma                 89.99963
_cell_volume                      4352.53948355

loop_
_atom_site_label
_atom_site_type_symbol
_atom_type_description
_atom_site_fract_x
_atom_site_fract_y
_atom_site_fract_z
_atom_type_partial_charge
O1    O     O_R   0.207310 0.594030 0.676830 -0.530513
O2    O     O_R   0.792690 0.405970 0.323170 -0.530513
O3    O     O_R   0.292690 0.094030 0.823170 -0.530516
O4    O     O_R   0.707310 0.905970 0.176830 -0.530515
O5    O     O_R   0.197320 0.262370 0.795700 -0.537008
O6    O     O_R   0.802680 0.737630 0.204300 -0.537008
O7    O     O_R   0.302680 0.762370 0.704300 -0.537007
O8    O     O_R   0.697320 0.237630 0.295700 -0.537008
C1    C     C_R   0.184659 0.432256 0.811807 0.683921
C2    C     C_R   0.815341 0.567744 0.188192 0.683921
C3    C     C_R   0.315341 0.932252 0.688192 0.683920
C4    C     C_R   0.684659 0.067748 0.311808 0.683920
O9    O     O_R   0.201410 0.264250 0.675590 -0.535796
O10   O     O_R   0.798590 0.735750 0.324410 -0.535796
O11   O     O_R   0.298590 0.764250 0.824410 -0.535792
O12   O     O_R   0.701410 0.235750 0.175590 -0.535792
O13   O     O_R   0.296810 0.094940 0.702210 -0.537824
O14   O     O_R   0.703190 0.905060 0.297790 -0.537825
O15   O     O_R   0.203190 0.594940 0.797790 -0.537826
O16   O     O_R   0.796810 0.405060 0.202210 -0.537826
C5    C     C_R   0.189761 0.433138 0.653320 0.695095
C6    C     C_R   0.810238 0.566861 0.346680 0.695096
C7    C     C_R   0.310238 0.933143 0.846681 0.695098
C8    C     C_R   0.689762 0.066857 0.153319 0.695097
O17   O     O_3   0.281300 0.427390 0.758870 -0.373385
O18   O     O_3   0.718700 0.572610 0.241130 -0.373385
O19   O     O_3   0.218700 0.927390 0.741130 -0.373387
O20   O     O_3   0.781300 0.072610 0.258870 -0.373387
V1    V     V_3+5 0.244190 0.152150 0.748350 1.440931
V2    V     V_3+5 0.755810 0.847850 0.251650 1.440932
V3    V     V_3+5 0.255810 0.652150 0.751650 1.440937
V4    V     V_3+5 0.744190 0.347850 0.248350 1.440936
C9    C     C_R   0.656134 0.055075 0.093445 -0.091073
C10   C     C_R   0.343865 0.944925 0.906555 -0.091073
C11   C     C_R   0.843867 0.555087 0.406554 -0.091071
C12   C     C_R   0.156133 0.444913 0.593446 -0.091071
C13   C     C_R   0.644509 0.010223 0.985363 -0.095910
C14   C     C_R   0.355491 0.989779 0.014637 -0.095910
C15   C     C_R   0.855490 0.510138 0.514631 -0.095913
C16   C     C_R   0.144510 0.489861 0.485369 -0.095913
C17   C     C_R   0.676440 0.038283 0.041649 -0.086369
C18   C     C_R   0.323560 0.961718 0.958350 -0.086369
C19   C     C_R   0.823560 0.538247 0.458348 -0.086366
C20   C     C_R   0.176440 0.461754 0.541652 -0.086365
C21   C     C_R   0.603836 0.049736 0.088767 -0.210785
C22   C     C_R   0.396164 0.950264 0.911233 -0.210785
C23   C     C_R   0.896166 0.549768 0.411233 -0.210794
C24   C     C_R   0.103834 0.450230 0.588766 -0.210794
C25   C     C_R   0.570155 0.023163 0.032802 0.088831
C26   C     C_R   0.429845 0.976836 0.967198 0.088831
C27   C     C_R   0.929846 0.523160 0.467196 0.088830
C28   C     C_R   0.070155 0.476837 0.532803 0.088830
C29   C     C_R   0.591203 0.990064 0.980870 0.034193
C30   C     C_R   0.408797 0.009937 0.019130 0.034193
C31   C     C_R   0.908797 0.489989 0.519122 0.034193
C32   C     C_R   0.091204 0.510008 0.480878 0.034193
C33   C     C_R   0.516214 0.023468 0.027631 0.056366
C34   C     C_R   0.483786 0.976532 0.972369 0.056366
C35   C     C_R   0.983787 0.523491 0.472371 0.056366
C36   C     C_R   0.016214 0.476505 0.527628 0.056366
C37   C     C_R   0.506256 0.924867 0.924144 -0.215103
C38   C     C_R   0.493744 0.075133 0.075856 -0.215102
C39   C     C_R   0.993743 0.424757 0.575842 -0.215106
C40   C     C_R   0.006257 0.575237 0.424157 -0.215105
C41   C     C_R   0.558138 0.933141 0.927205 -0.071877
C42   C     C_R   0.441862 0.066860 0.072795 -0.071877
C43   C     C_R   0.941860 0.433004 0.572778 -0.071870
C44   C     C_R   0.058140 0.566989 0.427220 -0.071870
H1    H     H_    0.409147 0.942151 0.869490 0.100853
H2    H     H_    0.590853 0.057847 0.130510 0.100853
H3    H     H_    0.090849 0.442082 0.630507 0.100860
H4    H     H_    0.909151 0.557917 0.369492 0.100860
C45   C     C_R   0.637706 0.893101 0.379391 -0.141523
C46   C     C_R   0.362294 0.106899 0.620609 -0.141524
C47   C     C_R   0.862298 0.393088 0.120610 -0.141522
C48   C     C_R   0.137702 0.606912 0.879390 -0.141522
H5    H     H_    0.659821 0.770652 0.375095 0.154713
H6    H     H_    0.340179 0.229348 0.624904 0.154713
H7    H     H_    0.840185 0.270635 0.124906 0.154715
H8    H     H_    0.159815 0.729364 0.875094 0.154715
C49   C     C_R   0.601756 0.883576 0.415773 -0.100169
C50   C     C_R   0.398244 0.116423 0.584227 -0.100169
C51   C     C_R   0.898248 0.383564 0.084228 -0.100160
C52   C     C_R   0.101752 0.616436 0.915772 -0.100160
C53   C     C_R   0.571497 0.037542 0.423003 -0.024683
C54   C     C_R   0.428503 0.962458 0.576997 -0.024683
C55   C     C_R   0.928504 0.537535 0.076999 -0.024682
C56   C     C_R   0.071496 0.462465 0.923001 -0.024682
C57   C     C_R   0.578359 0.203484 0.391809 -0.032901
C58   C     C_R   0.421640 0.796516 0.608190 -0.032901
C59   C     C_R   0.921640 0.703480 0.108194 -0.032902
C60   C     C_R   0.078360 0.296520 0.891806 -0.032902
C61   C     C_R   0.615428 0.212835 0.356356 -0.168792
C62   C     C_R   0.384572 0.787165 0.643644 -0.168791
C63   C     C_R   0.884571 0.712830 0.143647 -0.168797
C64   C     C_R   0.115429 0.287170 0.856353 -0.168796
H9    H     H_    0.620087 0.340845 0.333000 0.127554
H10   H     H_    0.379913 0.659155 0.666999 0.127554
H11   H     H_    0.879911 0.840843 0.167004 0.127556
H12   H     H_    0.120089 0.159156 0.832996 0.127556
C65   C     C_R   0.645503 0.058140 0.349663 -0.060962
C66   C     C_R   0.354497 0.941860 0.650336 -0.060963
C67   C     C_R   0.854498 0.558131 0.150339 -0.060966
C68   C     C_R   0.145502 0.441869 0.849661 -0.060966
N1    N     N_R   0.514427 0.170006 0.486085 -0.245266
N2    N     N_R   0.485573 0.829994 0.513915 -0.245266
N3    N     N_R   0.985567 0.670004 0.013913 -0.245270
N4    N     N_R   0.014433 0.329996 0.986087 -0.245270
N5    N     N_R   0.481397 0.151585 0.522127 -0.243635
N6    N     N_R   0.518602 0.848415 0.477872 -0.243635
N7    N     N_R   0.018596 0.651586 0.977870 -0.243632
N8    N     N_R   0.981404 0.348413 0.022130 -0.243632
C69   C     C_R   0.466274 0.981083 0.537137 0.513964
C70   C     C_R   0.533726 0.018917 0.462863 0.513964
C71   C     C_R   0.033726 0.481087 0.962862 0.513960
C72   C     C_R   0.966274 0.518913 0.037138 0.513961
C73   C     C_1   0.575195 0.865344 0.874716 0.321930
N9    N     N_1   0.588231 0.810153 0.832469 -0.286158
C74   C     C_1   0.424805 0.134658 0.125284 0.321929
N10   N     N_1   0.411769 0.189849 0.167531 -0.286157
C75   C     C_1   0.924800 0.365101 0.625251 0.321930
N11   N     N_1   0.911762 0.309820 0.667484 -0.286168
C76   C     C_1   0.075200 0.634886 0.374747 0.321930
N12   N     N_1   0.088238 0.690161 0.332513 -0.286167
C77   C     C_1   0.269267 0.955181 0.953374 0.307159
N13   N     N_1   0.226036 0.950845 0.949540 -0.357144
C78   C     C_1   0.730733 0.044822 0.046625 0.307159
N14   N     N_1   0.773964 0.049158 0.050460 -0.357144
C79   C     C_1   0.230733 0.455223 0.546629 0.307160
N15   N     N_1   0.273964 0.450892 0.550464 -0.357141
C80   C     C_1   0.769267 0.544780 0.453372 0.307160
N16   N     N_1   0.726036 0.549113 0.449537 -0.357141
C81   C     C_1   0.667688 0.012465 0.933000 0.336987
N17   N     N_1   0.686701 0.015337 0.891672 -0.266234
C82   C     C_1   0.332311 0.987539 0.067000 0.336988
N18   N     N_1   0.313299 0.984669 0.108327 -0.266234
C83   C     C_1   0.832311 0.512321 0.566994 0.336996
N19   N     N_1   0.813299 0.515145 0.608322 -0.266235
C84   C     C_1   0.167690 0.487682 0.433006 0.336995
N20   N     N_1   0.186703 0.484861 0.391678 -0.266234
H13   H     H_    0.484064 0.871102 0.883079 0.127329
H14   H     H_    0.515936 0.128897 0.116921 0.127329
H15   H     H_    0.015935 0.370943 0.616898 0.127334
H16   H     H_    0.984065 0.629048 0.383100 0.127333
H17   H     H_    0.598024 0.754446 0.438805 0.163025
H18   H     H_    0.401976 0.245554 0.561195 0.163025
H19   H     H_    0.901982 0.254431 0.061194 0.163028
H20   H     H_    0.098018 0.745569 0.938806 0.163028
C85   C     C_1   0.546653 0.364035 0.392693 0.341670
N21   N     N_1   0.521107 0.492568 0.393077 -0.281414
C86   C     C_1   0.453347 0.635965 0.607307 0.341671
N22   N     N_1   0.478893 0.507432 0.606922 -0.281415
C87   C     C_1   0.953345 0.864036 0.107312 0.341666
N23   N     N_1   0.978889 0.992572 0.106929 -0.281426
C88   C     C_1   0.046655 0.135964 0.892688 0.341665
N24   N     N_1   0.021111 0.007428 0.893071 -0.281426

loop_
_geom_bond_atom_site_label_1
_geom_bond_atom_site_label_2
_ccdc_geom_bond_type
C48   C68   A    
C51   C55   A    
C15   C83   S    
O1    C5    A    
C55   C59   A    
O19   V1    S    
C9    C21   A    
C17   C78   S    
O3    C7    A    
C10   C18   A    
O1    V3    S    
O15   V3    S    
C48   C52   A    
C25   C33   A    
C82   N18   T    
C5    C12   S    
O7    C3    A    
C6    C11   S    
C35   C40   A    
C26   C30   A    
C36   C39   A    
C40   C44   A    
N4    C71   A    
O9    V1    S    
C53   C70   S    
O10   V2    S    
C14   C18   A    
O16   V4    S    
O4    C8    A    
C63   H11   S    
C62   H10   S    
C16   C84   S    
C60   C64   A    
O13   V1    S    
O2    V4    S    
O3    V1    S    
C22   H1    S    
C28   C36   A    
C18   C77   S    
C1    O15   A    
C15   C31   A    
C39   H15   S    
C56   C60   A    
C2    O16   A    
O20   V2    S    
C16   C32   A    
O2    C6    A    
C86   N22   T    
C10   C22   A    
C3    C66   S    
C11   C19   A    
N6    C70   A    
C16   C20   A    
N5    C69   A    
C46   C66   A    
C13   C29   A    
C34   C37   A    
O11   C7    A    
C11   C23   A    
C35   C36   A    
O12   C8    A    
C47   C67   A    
C46   C50   A    
C43   C75   S    
C44   C76   S    
C45   C49   A    
C50   H18   S    
C63   C67   A    
C58   C62   A    
O5    V1    S    
C52   H20   S    
N3    C72   A    
C84   N20   T    
C39   C43   A    
O7    V3    S    
C38   C42   A    
N2    C69   A    
C26   C34   A    
C52   C56   A    
N1    C70   A    
C76   N12   T    
C54   C58   A    
C61   C65   A    
C53   C57   A    
O18   V4    S    
C15   C19   A    
C40   H16   S    
C33   C38   A    
C20   C79   S    
C50   C54   A    
C57   C61   A    
N4    N8    A    
O8    V4    S    
O5    C1    A    
C38   H14   S    
C31   C43   A    
C14   C30   A    
C21   C25   A    
O8    C4    A    
C7    C10   S    
C55   C72   S    
O9    C5    A    
C14   C82   S    
O11   V3    S    
C75   N11   T    
C51   H19   S    
C37   H13   S    
O6    V2    S    
C49   H17   S    
C42   C74   S    
C64   C68   A    
C77   N13   T    
C13   C81   S    
C12   C20   A    
C27   C35   A    
C24   H3    S    
C78   N14   T    
C61   H9    S    
N8    C72   A    
C29   C41   A    
C79   N15   T    
N2    N6    A    
N1    N5    A    
C2    C67   S    
C41   C73   S    
C45   C65   A    
C21   H2    S    
N3    N7    A    
O17   V3    S    
C48   H8    S    
C58   C86   S    
C3    O13   A    
O6    C2    A    
C23   C27   A    
C74   N10   T    
C59   C87   S    
C30   C42   A    
O12   V4    S    
C83   N19   T    
C22   C26   A    
C8    C9    S    
C9    C17   A    
O10   C6    A    
C56   C71   S    
C19   C80   S    
C4    C65   S    
C32   C44   A    
C73   N9    T    
C47   C51   A    
C33   C34   A    
C81   N17   T    
C28   C32   A    
C1    C68   S    
C25   C29   A    
C64   H12   S    
C57   C85   S    
C12   C24   A    
C60   C88   S    
C27   C31   A    
C13   C17   A    
C49   C53   A    
C23   H4    S    
O14   V2    S    
C59   C63   A    
C37   C41   A    
C24   C28   A    
C62   C66   A    
C46   H6    S    
C4    O14   A    
C88   N24   T    
C45   H5    S    
N7    C71   A    
C87   N23   T    
C85   N21   T    
C47   H7    S    
O4    V2    S    
C80   N16   T    
C54   C69   S    
