data_mof_unit_44049.cif
_audit_creation_date              2013-03-05T16:36:12-0500
_audit_creation_method            fapswitch 2.2
_symmetry_space_group_name_H-M    P1
_symmetry_Int_Tables_number       1
_space_group_crystal_system       triclinic
_cell_length_a                    27.799878
_cell_length_b                    9.083453
_cell_length_c                    7.778831
_cell_angle_alpha                 90.032612
_cell_angle_beta                  89.994464
_cell_angle_gamma                 90.002842
_cell_volume                      1964.30140265

loop_
_atom_site_label
_atom_site_type_symbol
_atom_site_description
_atom_site_fract_x
_atom_site_fract_y
_atom_site_fract_z
_atom_type_partial_charge
O1    O     O_R   0.500000 0.288390 0.642760 -0.573827
O2    O     O_R   0.500000 0.711610 0.357240 -0.573809
O3    O     O_R   0.500000 0.711610 0.642760 -0.578450
O4    O     O_R   0.500000 0.288390 0.357240 -0.578492
C1    C     C_R   0.500000 0.220010 0.499969 0.848619
C2    C     C_R   0.500000 0.779990 0.500031 0.848700
O5    O     O_R   0.430260 0.500000 0.642770 -0.581102
O6    O     O_R   0.569740 0.500000 0.357230 -0.580926
O7    O     O_R   0.569740 0.500000 0.642770 -0.580917
O8    O     O_R   0.430260 0.500000 0.357230 -0.581105
C3    C     C_R   0.407262 0.499975 0.500006 0.823167
C4    C     C_R   0.592731 0.499954 0.499990 0.822762
Cu1   Cu    Cu3+1 0.500000 0.500000 0.669080 1.019777
Cu2   Cu    Cu3+1 0.500000 0.500000 0.330920 1.019757
C5    C     C_R   0.178127 0.384531 0.574092 0.595948
C6    C     C_R   0.821860 0.607565 0.413820 0.595467
C7    C     C_R   0.178102 0.614141 0.425629 0.595900
C8    C     C_R   0.821869 0.390128 0.585444 0.595549
O9    O     O_2   0.203084 0.273217 0.646529 -0.492354
O10   O     O_2   0.796914 0.713250 0.330641 -0.492912
O11   O     O_2   0.203035 0.725588 0.353311 -0.492371
O12   O     O_2   0.796932 0.284476 0.668729 -0.492899
N1    N     N_R   0.202145 0.499402 0.499924 -0.459464
N2    N     N_R   0.797833 0.498874 0.499703 -0.459456
C9    C     C_R   0.278955 0.567527 0.634938 0.196576
C10   C     C_R   0.720944 0.430055 0.365764 0.196386
C11   C     C_R   0.279010 0.431665 0.365049 0.196472
C12   C     C_R   0.721048 0.568243 0.634074 0.196376
C13   C     C_R   0.329139 0.565571 0.635654 -0.225985
C14   C     C_R   0.670764 0.432290 0.365229 -0.226370
C15   C     C_R   0.329191 0.433939 0.364358 -0.226000
C16   C     C_R   0.670861 0.566680 0.634653 -0.226257
C17   C     C_R   0.253682 0.499517 0.499984 0.247529
C18   C     C_R   0.746298 0.498989 0.499888 0.246609
C19   C     C_R   0.101978 0.499131 0.499660 -0.042489
C20   C     C_R   0.897999 0.498819 0.499489 -0.043250
C21   C     C_R   0.127646 0.382063 0.575012 -0.028047
C22   C     C_R   0.872338 0.609602 0.412123 -0.028517
C23   C     C_R   0.127621 0.616334 0.424432 -0.028032
C24   C     C_R   0.872351 0.388030 0.586913 -0.028550
C25   C     C_R   0.102545 0.264917 0.648483 -0.128233
C26   C     C_R   0.897445 0.719334 0.324466 -0.127240
C27   C     C_R   0.102496 0.733334 0.350800 -0.128287
C28   C     C_R   0.897473 0.278263 0.674435 -0.127272
C29   C     C_R   0.354499 0.499839 0.500006 -0.105699
C30   C     C_R   0.645483 0.499674 0.499948 -0.105521
H1    H     H_    0.348390 0.381693 0.259627 0.181125
H2    H     H_    0.651710 0.620363 0.738602 0.180841
H3    H     H_    0.348298 0.617926 0.740395 0.181128
H4    H     H_    0.651537 0.378867 0.261310 0.180833
H5    H     H_    0.121452 0.172522 0.705012 0.196362
H6    H     H_    0.878544 0.804666 0.254423 0.196308
H7    H     H_    0.121381 0.825815 0.294338 0.196350
H8    H     H_    0.878582 0.192892 0.744469 0.196269
C31   C     C_R   0.974436 0.384092 0.584750 0.040587
C32   C     C_R   0.025541 0.616585 0.419660 0.041247
C33   C     C_R   0.974418 0.613637 0.414130 0.040592
C34   C     C_R   0.025561 0.381315 0.579321 0.041223
C35   C     C_R   0.949168 0.498844 0.499450 0.071586
C36   C     C_R   0.050809 0.499007 0.499541 0.072360
C37   C     C_R   0.947414 0.276219 0.673927 -0.203500
C38   C     C_R   0.052556 0.734024 0.348803 -0.205435
C39   C     C_R   0.947384 0.721418 0.324883 -0.203541
C40   C     C_R   0.052603 0.263982 0.650246 -0.205422
H9    H     H_    0.963624 0.189199 0.747709 0.141669
H10   H     H_    0.036345 0.830248 0.292709 0.141607
H11   H     H_    0.963581 0.808407 0.251010 0.141688
H12   H     H_    0.036411 0.167675 0.706248 0.141603
C41   C     C_1   0.500000 0.065386 0.499959 -0.158698
C42   C     C_1   0.500000 0.934614 0.500040 -0.158713
N3    N     N_1   0.500000 0.500000 0.076820 -0.043044
N4    N     N_1   0.500000 0.500000 0.923180 -0.043037
I1    I     I_    0.242832 0.322493 0.161824 -0.217168
I2    I     I_    0.757361 0.678642 0.836080 -0.214749
I3    I     I_    0.242684 0.676483 0.838129 -0.217169
I4    I     I_    0.757088 0.319205 0.163675 -0.214665

loop_
_geom_bond_atom_site_label_1
_geom_bond_atom_site_label_2
_geom_bond_distance
_ccdc_geom_bond_type
O5    Cu1   1.949556 S    
C31   C35   1.421665 A    
Cu2   N3    1.976600 S    
C20   C35   1.422489 A    
C12   I2    2.119516 S    
C13   H3    1.083187 S    
C11   C17   1.405909 A    
C5    O9    1.349826 S    
C7    N1    1.366678 A    
O1    C1    1.272311 A    
C40   H12   1.076124 S    
C19   C21   1.408685 A    
C22   C26   1.395059 A    
C33   C35   1.421654 A    
C34   C36   1.421703 A    
O7    Cu1   1.949513 S    
C32   C33   1.422094 A    
C7    C23   1.403556 A    
C8    C24   1.403546 A    
C5    C21   1.403581 A    
C1    C41   1.404521 S    
C27   H7    1.083759 S    
N1    C17   1.432723 S    
C10   I4    2.119590 S    
C8    N2    1.366732 A    
O3    Cu1   1.933139 S    
C6    O10   1.349828 S    
O3    C2    1.272504 A    
C5    N1    1.366725 A    
C14   H4    1.083632 S    
C12   C18   1.406112 A    
C6    N2    1.366670 A    
C15   H1    1.083187 S    
Cu1   Cu2   2.630490 S    
C21   C25   1.395129 A    
C16   H2    1.083772 S    
O2    C2    1.272311 A    
C10   C18   1.405979 A    
C33   C39   1.416413 A    
C9    C13   1.395235 A    
C39   H11   1.075990 S    
C38   H10   1.076087 S    
C11   C15   1.395176 A    
C12   C16   1.395260 A    
C4    C30   1.466488 S    
O8    Cu2   1.949516 S    
C23   C27   1.395070 A    
C34   C40   1.416430 A    
C7    O11   1.349881 S    
C32   C36   1.421670 A    
C13   C29   1.402187 A    
C19   C36   1.422484 A    
C9    I3    2.119546 S    
C19   C23   1.408744 A    
C37   H9    1.076047 S    
O5    C3    1.281485 A    
C20   C24   1.408628 A    
O6    C4    1.281362 A    
C10   C14   1.395164 A    
C32   C38   1.416453 A    
C3    C29   1.466792 S    
O1    Cu1   1.932908 S    
C2    C42   1.404521 S    
O6    Cu2   1.949553 S    
C8    O12   1.349763 S    
C16   C30   1.401983 A    
C14   C30   1.402123 A    
O4    C1    1.272504 A    
Cu1   N4    1.976600 S    
C28   C37   1.388495 A    
C20   C22   1.408665 A    
N3    N4    1.195140 T    
C31   C37   1.416417 A    
O4    Cu2   1.933140 S    
C41   C42   1.187857 T    
O2    Cu2   1.932907 S    
O7    C4    1.281392 A    
N2    C18   1.432662 S    
C9    C17   1.405936 A    
O8    C3    1.281457 A    
C28   H8    1.083651 S    
C24   C28   1.395120 A    
C15   C29   1.402185 A    
C31   C34   1.422128 A    
C26   H6    1.083655 S    
C25   C40   1.388468 A    
C11   I1    2.119544 S    
C26   C39   1.388439 A    
C25   H5    1.083747 S    
C27   C38   1.388426 A    
C6    C22   1.403478 A    
