data_mof_unit_41521.cif
_audit_creation_date              2012-12-11T15:44:55-0500
_audit_creation_method            fapswitch 2.2
_symmetry_space_group_name_H-M    P1
_symmetry_Int_Tables_number       1
_space_group_crystal_system       triclinic
_cell_length_a                    6.926924
_cell_length_b                    16.830889
_cell_length_c                    17.114495
_cell_angle_alpha                 100.479393
_cell_angle_beta                  90.162547
_cell_angle_gamma                 89.897724
_cell_volume                      1962.02483965

loop_
_atom_site_label
_atom_site_type_symbol
_atom_type_description
_atom_site_fract_x
_atom_site_fract_y
_atom_site_fract_z
_atom_type_partial_charge
O1    O     O_R   0.494370 0.415690 0.413450 -0.511743
O2    O     O_R   0.819420 0.429360 0.578420 -0.550401
O3    O     O_R   0.994280 0.584310 0.586550 -0.547449
C1    C     C_R   0.651384 0.413590 0.604669 0.782964
O4    O     O_R   0.823790 0.406230 0.413570 -0.503157
O5    O     O_R   0.998670 0.561000 0.420530 -0.541771
C2    C     C_R   0.654843 0.383080 0.385068 0.867347
O6    O     O_R   0.489970 0.439000 0.579470 -0.534147
O7    O     O_3   0.662300 0.550810 0.502470 -0.381434
V1    V     V_3+5 0.935380 0.490570 0.499540 1.620241
O8    O     O_R   0.328650 0.570640 0.421580 -0.543707
C3    C     C_R   0.158267 0.587642 0.395982 0.745997
O9    O     O_R   0.324290 0.593770 0.586430 -0.543679
C4    C     C_R   0.154466 0.618181 0.613965 0.664974
V2    V     V_3+5 0.435930 0.509430 0.500460 1.593477
O10   O     O_3   0.159140 0.449190 0.497530 -0.340112
C5    C     C_R   0.300355 0.706884 0.733241 -0.111833
H1    H     H_    0.432130 0.671810 0.723451 0.136076
C6    C     C_R   0.290815 0.770192 0.798811 -0.111634
H2    H     H_    0.416185 0.782765 0.836998 0.126017
C7    C     C_R   0.120664 0.815660 0.815776 -0.049646
C8    C     C_R   0.962002 0.797739 0.764619 -0.165385
H3    H     H_    0.831291 0.833585 0.775682 0.134187
C9    C     C_R   0.971572 0.735844 0.697650 -0.025861
C10   C     C_R   0.141471 0.688072 0.681776 -0.068241
C11   C     C_R   0.137303 0.642605 0.336699 -0.195738
C12   C     C_R   0.131492 0.866381 0.169579 -0.101713
C13   C     C_R   0.347167 0.828800 0.270528 -0.015496
C14   C     C_R   0.297525 0.879200 0.217177 -0.140607
C15   C     C_R   0.007542 0.803433 0.178646 -0.153458
C16   C     C_R   0.053404 0.751188 0.232090 0.030156
C17   C     C_R   0.226371 0.762067 0.278758 0.014959
C18   C     C_R   0.268152 0.706172 0.331027 -0.110150
C19   C     C_R   0.970193 0.634284 0.289251 -0.182646
C20   C     C_R   0.928620 0.687211 0.238014 0.620562
H4    H     H_    0.868202 0.586181 0.292212 0.168911
H5    H     H_    0.393321 0.928814 0.211462 0.141386
H6    H     H_    0.879342 0.793341 0.141742 0.175395
C21   C     C_R   0.647545 0.365857 0.669725 -0.199971
C22   C     C_R   0.619013 0.137453 0.832580 -0.124694
C23   C     C_R   0.563170 0.150418 0.694329 -0.093401
C24   C     C_R   0.573614 0.102461 0.753815 -0.115995
C25   C     C_R   0.657917 0.221112 0.852137 -0.079273
C26   C     C_R   0.663494 0.270117 0.791545 -0.008729
C27   C     C_R   0.606179 0.234665 0.712425 -0.026455
C28   C     C_R   0.595025 0.284244 0.653165 0.553595
C29   C     C_R   0.713988 0.399971 0.745928 -0.175628
C30   C     C_R   0.724302 0.353047 0.806470 -0.091754
C31   C     C_R   0.797870 0.300779 0.261572 0.576624
C32   C     C_R   0.787935 0.237974 0.195274 -0.233972
C33   C     C_R   0.622928 0.187105 0.182560 -0.380765
C34   C     C_R   0.469777 0.202201 0.237380 0.569219
C35   C     C_R   0.479933 0.265520 0.302826 0.555102
C36   C     C_R   0.644442 0.315259 0.315997 -0.398128
O11   O     O_R   0.774880 0.061150 0.920630 -0.541194
O12   O     O_R   0.440980 0.093710 0.086500 -0.498761
O13   O     O_R   0.266190 0.938890 0.079390 -0.540726
C37   C     C_R   0.610392 0.117713 0.114409 0.820396
O14   O     O_R   0.445420 0.070740 0.921670 -0.540031
O15   O     O_R   0.270660 0.915760 0.913380 -0.542875
C38   C     C_R   0.613481 0.086641 0.895526 0.702118
O16   O     O_R   0.770400 0.084270 0.086640 -0.550626
O17   O     O_3   0.602590 0.949210 0.997500 -0.383847
V3    V     V_3+5 0.329470 0.009420 0.000470 1.538149
O18   O     O_R   0.940650 0.906250 0.913470 -0.548081
C39   C     C_R   0.109907 0.883216 0.884968 0.688314
O19   O     O_R   0.936210 0.929220 0.078300 -0.544999
C40   C     C_R   0.106752 0.914799 0.105744 0.731485
V4    V     V_3+5 0.828930 0.990510 0.999490 1.473660
O20   O     O_3   0.105680 0.050790 0.002500 -0.356743
F1    F     F_    0.536528 0.254038 0.577782 -0.670682
C41   C     C_1   0.772793 0.484302 0.761838 0.318994
N1    N     N_1   0.819491 0.551429 0.774388 -0.361815
C42   C     C_1   0.510739 0.110924 0.614455 0.475447
N2    N     N_1   0.468928 0.079047 0.550932 -0.248748
C43   C     C_1   0.813019 0.390625 0.881014 0.363081
N3    N     N_1   0.884761 0.421367 0.939959 -0.278436
C44   C     C_1   0.533798 0.016312 0.734310 0.281904
N4    N     N_1   0.502145 0.947728 0.718908 -0.343971
C45   C     C_1   0.671933 0.255564 0.936024 0.300026
N5    N     N_1   0.681022 0.282401 0.003173 -0.337231
F2    F     F_    0.955918 0.349505 0.271377 -0.636290
C46   C     C_1   0.947069 0.229749 0.139861 0.591489
N6    N     N_1   0.074698 0.223755 0.095667 -0.300209
F3    F     F_    0.311247 0.154007 0.229224 -0.638220
F4    F     F_    0.329871 0.276593 0.354587 -0.577622
C47   C     C_1   0.807198 0.726268 0.644748 0.314896
N7    N     N_1   0.675187 0.719315 0.602505 -0.300460
C48   C     C_1   0.439420 0.713528 0.380558 0.362766
N8    N     N_1   0.575979 0.718602 0.420317 -0.301706
C49   C     C_1   0.525981 0.848879 0.313307 0.350102
N9    N     N_1   0.669604 0.865893 0.346918 -0.301695
F5    F     F_    0.763455 0.675938 0.194401 -0.686272

loop_
_geom_bond_atom_site_label_1
_geom_bond_atom_site_label_2
_ccdc_geom_bond_type
C37   O16   A    
C47   N7    T    
C7    C39   S    
C12   C14   A    
C23   C24   A    
C30   C43   S    
C6    H2    S    
C1    O6    A    
C27   C28   A    
C26   C27   A    
O14   V3    S    
C46   N6    T    
C13   C14   A    
C6    C7    A    
O5    C3    A    
C15   C16   A    
C31   C36   A    
C15   H6    S    
C19   C20   A    
C31   C32   A    
C12   C40   S    
C23   C42   S    
O8    V2    S    
C11   C19   A    
C22   C25   A    
C29   C30   A    
O12   V3    S    
C35   F4    S    
O1    V2    S    
V3    O20   S    
O7    V1    S    
C19   H4    S    
C22   C24   A    
O15   C39   A    
C7    C8    A    
C12   C15   A    
C32   C46   S    
C5    H1    S    
C20   F5    S    
O14   C38   A    
C42   N2    T    
C33   C34   A    
O17   V4    S    
C13   C17   A    
C9    C10   A    
C49   N9    T    
O4    C2    A    
C44   N4    T    
C45   N5    T    
C25   C45   S    
C35   C36   A    
C22   C38   S    
O19   C40   A    
O16   V4    S    
C3    C11   S    
O19   V4    S    
C31   F2    S    
O2    C1    A    
C25   C26   A    
C18   C48   S    
C11   C18   A    
C16   C17   A    
C1    C21   S    
C32   C33   A    
C33   C37   S    
C43   N3    T    
C28   F1    S    
O11   V4    S    
O3    C4    A    
C21   C28   A    
C24   C44   S    
O6    V2    S    
O9    V2    S    
C16   C20   A    
O13   C40   A    
O2    V1    S    
C34   C35   A    
O13   V3    S    
C21   C29   A    
C34   F3    S    
O1    C2    A    
C41   N1    T    
O5    V1    S    
O8    C3    A    
O15   V3    S    
C5    C10   A    
C17   C18   A    
O7    V2    S    
O4    V1    S    
O3    V1    S    
V1    O10   S    
O18   V4    S    
O11   C38   A    
C5    C6    A    
O12   C37   A    
C13   C49   S    
C8    C9    A    
C4    C10   S    
V4    O20   S    
C9    C47   S    
C29   C41   S    
O17   V3    S    
C26   C30   A    
O18   C39   A    
C14   H5    S    
C23   C27   A    
C8    H3    S    
C2    C36   S    
C48   N8    T    
O9    C4    A    
V2    O10   S    
