data_mof_unit_63663.cif
_audit_creation_date              2012-12-10T16:51:45-0500
_audit_creation_method            fapswitch 2.2
_symmetry_space_group_name_H-M    P1
_symmetry_Int_Tables_number       1
_space_group_crystal_system       triclinic
_cell_length_a                    18.399804
_cell_length_b                    18.362888
_cell_length_c                    18.401463
_cell_angle_alpha                 90.756788
_cell_angle_beta                  119.711213
_cell_angle_gamma                 119.436429
_cell_volume                      4423.57189114

loop_
_atom_site_label
_atom_site_type_symbol
_atom_type_description
_atom_site_fract_x
_atom_site_fract_y
_atom_site_fract_z
_atom_type_partial_charge
C1    C     C_R   0.777084 0.637869 0.638807 0.515201
C2    C     C_2   0.112047 0.304955 0.298125 -0.086906
C3    C     C_2   0.451360 0.166858 0.722450 -0.135515
C4    C     C_R   0.222755 0.361133 0.361698 0.510208
C5    C     C_2   0.483380 0.193932 0.807515 0.017865
C6    C     C_2   0.440955 0.219760 0.663804 -0.163468
C7    C     C_2   0.510273 0.307619 0.694684 -0.101822
C8    C     C_2   0.054336 0.748515 0.720653 0.024124
C9    C     C_2   0.111692 0.804948 0.804581 -0.102507
C10   C     C_2   0.942896 0.705439 0.663239 -0.163583
C11   C     C_2   0.887737 0.686768 0.696292 -0.126661
C12   C     C_3   0.570332 0.768390 0.836464 -0.093464
C13   C     C_2   0.439567 0.161083 0.222668 -0.160268
C14   C     C_2   0.491354 0.195529 0.186903 -0.086837
C15   C     C_2   0.435142 0.216811 0.273832 -0.161730
C16   C     C_R   0.499671 0.638182 0.361229 0.511280
C17   C     C_2   0.507467 0.304061 0.312331 -0.084968
C18   C     C_2   0.440683 0.778137 0.221602 -0.156149
C19   C     C_2   0.504709 0.809056 0.196804 -0.092753
C20   C     C_2   0.443063 0.724506 0.280365 -0.158782
C21   C     C_2   0.498491 0.690924 0.303249 -0.092701
C22   C     C_R   0.498085 0.138614 0.861576 0.515738
C23   C     C_3   0.591646 0.792269 0.765818 -0.017718
C24   C     C_R   0.500579 0.861877 0.138850 0.516179
C25   C     C_R   0.777172 0.138323 0.137690 0.509671
C26   C     C_R   0.222999 0.859667 0.861186 0.541311
C27   C     C_R   0.498771 0.140934 0.139647 0.514809
C28   C     C_R   0.501436 0.361595 0.638485 0.509182
C29   C     C_R   0.500170 0.858387 0.858514 0.508430
C30   C     C_R   0.501004 0.358981 0.360236 0.518228
C31   C     C_R   0.499818 0.641659 0.641529 0.509224
C32   C     C_3   0.476673 0.675039 0.767663 -0.015603
C33   C     C_3   0.406502 0.707726 0.734603 -0.100098
C34   C     C_3   0.523563 0.827099 0.732711 -0.107461
C35   C     C_3   0.500469 0.801250 0.801765 0.035625
C36   C     C_3   0.493482 0.273621 0.848141 -0.381886
C37   C     C_2   0.098085 0.725318 0.682343 0.613597
C38   C     C_3   0.449892 0.588768 0.787398 -0.399945
C39   C     C_3   0.696608 0.840291 0.783482 -0.403219
C40   C     C_3   0.350711 0.713874 0.569744 -0.377391
C41   C     C_3   0.902989 0.079699 0.139976 -0.355285
C42   C     C_3   0.094529 0.166963 0.333186 -0.350806
C43   C     C_3   0.430651 0.732739 0.665749 -0.007770
C44   C     C_3   0.499260 0.698939 0.698278 0.092113
C45   C     C_2   0.945223 0.163884 0.205749 -0.016272
C46   C     C_2   0.887893 0.192501 0.199111 -0.081862
C47   C     C_2   0.053985 0.216249 0.280046 -0.017904
H1    H     H_    0.330146 0.672982 0.722268 0.114643
H2    H     H_    0.527065 0.264178 0.189607 0.106104
H3    H     H_    0.372076 0.185052 0.280569 0.156510
H4    H     H_    0.574426 0.336641 0.311306 0.109616
H5    H     H_    0.384497 0.793325 0.199110 0.157085
H6    H     H_    0.563646 0.797709 0.219713 0.106043
H7    H     H_    0.396123 0.711617 0.304469 0.154489
H8    H     H_    0.543941 0.700099 0.278745 0.108667
H9    H     H_    0.628038 0.783457 0.907297 0.125124
H10   H     H_    0.543017 0.890359 0.718820 0.112065
H11   H     H_    0.922968 0.255943 0.244976 0.091395
H12   H     H_    0.077418 0.337029 0.260024 0.092828
H13   H     H_    0.466658 0.258335 0.891900 0.136494
H14   H     H_    0.574732 0.331417 0.889274 0.134087
H15   H     H_    0.445418 0.291085 0.797075 0.132566
H16   H     H_    0.198355 0.697674 0.701290 0.328751
H17   H     H_    0.436460 0.589359 0.839843 0.134882
H18   H     H_    0.379743 0.531708 0.726150 0.130484
H19   H     H_    0.513750 0.581751 0.810764 0.150944
H20   H     H_    0.747991 0.906820 0.835042 0.127284
H21   H     H_    0.729007 0.801212 0.807172 0.151302
H22   H     H_    0.690097 0.848223 0.721274 0.131478
H23   H     H_    0.433429 0.103136 0.694333 0.142685
H24   H     H_    0.313917 0.747476 0.568176 0.139414
H25   H     H_    0.387524 0.739302 0.534457 0.147631
H26   H     H_    0.291669 0.641184 0.536019 0.152729
H27   H     H_    0.965751 0.077668 0.147770 0.118191
H28   H     H_    0.856180 0.020264 0.151107 0.161470
H29   H     H_    0.856576 0.077010 0.070722 0.136487
H30   H     H_    0.031096 0.098340 0.316535 0.120516
H31   H     H_    0.143493 0.161769 0.318003 0.158411
H32   H     H_    0.138027 0.201161 0.405496 0.144697
H33   H     H_    0.378709 0.185014 0.593644 0.154120
H34   H     H_    0.576597 0.341394 0.763322 0.120072
H35   H     H_    0.076852 0.817411 0.831823 0.078285
H36   H     H_    0.904412 0.683558 0.591617 0.189259
H37   H     H_    0.922787 0.701860 0.767198 0.110773
H38   H     H_    0.398798 0.090713 0.214006 0.159664
O1    O     O_3   0.500000 0.500000 0.500000 -0.441303
O2    O     O_R   0.270900 0.886160 0.946260 -0.544527
O3    O     O_R   0.560160 0.177420 0.117340 -0.543238
O4    O     O_R   0.729180 0.615300 0.675360 -0.541523
O5    O     O_R   0.440020 0.882760 0.822680 -0.530248
O6    O     O_R   0.439990 0.057240 0.117340 -0.547036
O7    O     O_R   0.560190 0.882760 0.942820 -0.551309
O8    O     O_R   0.729270 0.053840 0.113900 -0.546016
O9    O     O_R   0.270910 0.884750 0.824690 -0.499782
O10   O     O_R   0.560170 0.175430 0.946260 -0.540834
O11   O     O_R   0.440000 0.886160 0.115330 -0.538596
O12   O     O_R   0.439910 0.615300 0.386140 -0.543149
O13   O     O_R   0.270820 0.446200 0.386140 -0.541789
O14   O     O_R   0.560090 0.613880 0.384720 -0.538457
O15   O     O_R   0.439920 0.324620 0.553780 -0.543463
O16   O     O_R   0.560100 0.442800 0.382710 -0.538586
O17   O     O_R   0.560070 0.617290 0.677370 -0.547054
O18   O     O_R   0.439930 0.322630 0.382710 -0.547025
O19   O     O_R   0.439900 0.617290 0.557220 -0.551734
O20   O     O_2   0.063197 0.712688 0.603416 -0.527667
O21   O     O_R   0.175825 0.713938 0.735328 -0.682691
O22   O     O_R   0.560080 0.446200 0.675360 -0.542715
O23   O     O_R   0.729180 0.613880 0.553780 -0.535794
O24   O     O_R   0.270820 0.324620 0.384720 -0.546534
O25   O     O_3   0.500090 0.000040 0.000040 -0.447408
O26   O     O_R   0.440010 0.053840 0.824690 -0.549632
O27   O     O_R   0.560180 0.884750 0.113900 -0.541651
O28   O     O_R   0.729260 0.175430 0.115330 -0.538009
Zn1   Zn    Zn3+2 0.414150 0.543930 0.458110 0.927239
Zn2   Zn    Zn3+2 0.585850 0.541910 0.456060 0.947812
Zn3   Zn    Zn3+2 0.414160 0.370220 0.456060 0.923036
Zn4   Zn    Zn3+2 0.585840 0.543930 0.629770 0.930892
Zn5   Zn    Zn3+2 0.585940 0.956110 0.041940 0.930004
Zn6   Zn    Zn3+2 0.585930 0.129820 0.043980 0.934967
Zn7   Zn    Zn3+2 0.414240 0.958130 0.043980 0.941556
Zn8   Zn    Zn3+2 0.414250 0.956110 0.870280 0.963571

loop_
_geom_bond_atom_site_label_1
_geom_bond_atom_site_label_2
_ccdc_geom_bond_type
C26   O9    A    
C4    O24   A    
C25   O8    A    
C16   C21   S    
C40   H24   S    
C4    O13   A    
O26   Zn8   S    
C22   O10   A    
O15   Zn3   S    
C3    C6    S    
C17   H4    S    
C18   H5    S    
C45   C46   D    
C12   C23   S    
O23   Zn2   S    
C18   C19   D    
C24   O11   A    
O25   Zn8   S    
O14   Zn2   S    
C16   O12   A    
O13   Zn1   S    
C14   H2    S    
C28   O22   A    
C5    C36   S    
C10   H36   S    
C40   H26   S    
O1    Zn3   S    
C34   C35   S    
C39   H21   S    
C15   H3    S    
O7    Zn5   S    
O24   Zn3   S    
C41   H27   S    
O28   Zn6   S    
C40   C43   S    
C5    C22   S    
C38   H19   S    
C26   O2    A    
C24   O27   A    
C30   O18   A    
C34   H10   S    
C27   O6    A    
C32   C38   S    
C14   C27   S    
C9    H35   S    
C28   O15   A    
C42   H32   S    
C13   C14   D    
C12   C32   S    
C17   C30   S    
O25   Zn5   S    
C36   H15   S    
C2    C47   D    
C29   O5    A    
C9    C26   S    
C38   H17   S    
C45   C47   S    
C32   C44   S    
C12   C35   S    
C31   C44   S    
C33   C43   S    
C31   O17   A    
C3    H23   S    
C20   H7    S    
O25   Zn7   S    
C21   H8    S    
C2    H12   S    
C8    C9    D    
O10   Zn6   S    
C7    C28   S    
O1    Zn2   S    
O3    Zn6   S    
C2    C4    S    
C43   C44   S    
C37   O20   D    
C25   O28   A    
C41   H28   S    
C6    H33   S    
C38   H18   S    
C23   C34   S    
C39   H22   S    
H16   O21   S    
C12   H9    S    
O17   Zn4   S    
O19   Zn1   S    
C7    H34   S    
O4    Zn4   S    
C42   H31   S    
C13   C15   S    
O16   Zn2   S    
O5    Zn8   S    
C8    C37   S    
C36   H14   S    
C15   C17   D    
C1    O4    A    
C40   H25   S    
C39   H20   S    
O11   Zn7   S    
C34   C43   S    
C3    C5    D    
O25   Zn6   S    
C16   O14   A    
C6    C7    D    
C11   H37   S    
C29   C35   S    
O1    Zn1   S    
C31   O19   A    
O18   Zn3   S    
O2    Zn7   S    
C32   C33   S    
C41   H29   S    
O27   Zn5   S    
C19   H6    S    
C23   C39   S    
C30   O16   A    
C33   C35   S    
C19   C24   S    
O1    Zn4   S    
C18   C20   S    
C42   C47   S    
C27   O3    A    
C10   C11   D    
C23   C44   S    
C1    O23   A    
O9    Zn8   S    
C37   O21   S    
C20   C21   D    
C42   H30   S    
C8    C10   S    
C22   O26   A    
O8    Zn5   S    
C13   H38   S    
C33   H1    S    
C41   C45   S    
O6    Zn7   S    
C1    C11   S    
C36   H13   S    
O12   Zn1   S    
C25   C46   S    
O22   Zn4   S    
C29   O7    A    
C46   H11   S    
