data_mof_unit_43229.cif
_audit_creation_date              2013-03-05T15:46:34-0500
_audit_creation_method            fapswitch 2.2
_symmetry_space_group_name_H-M    P1
_symmetry_Int_Tables_number       1
_space_group_crystal_system       triclinic
_cell_length_a                    17.505377
_cell_length_b                    24.443134
_cell_length_c                    15.147638
_cell_angle_alpha                 90.741494
_cell_angle_beta                  126.797973
_cell_angle_gamma                 89.36207
_cell_volume                      5189.56992502

loop_
_atom_site_label
_atom_site_type_symbol
_atom_site_description
_atom_site_fract_x
_atom_site_fract_y
_atom_site_fract_z
_atom_type_partial_charge
C1    C     C_R   0.311328 0.374343 0.907015 0.733786
C2    C     C_R   0.652013 0.348884 0.090987 0.730661
C3    C     C_R   0.811315 0.874352 0.907002 0.733882
C4    C     C_R   0.151975 0.848866 0.090929 0.730563
N1    N     N_R   0.394180 0.396910 0.943210 -0.139616
N2    N     N_R   0.605820 0.396910 0.056790 -0.135796
N3    N     N_R   0.894180 0.896910 0.943210 -0.139597
N4    N     N_R   0.105820 0.896910 0.056790 -0.135762
C5    C     C_R   0.399731 0.625398 0.087278 -0.071128
C6    C     C_R   0.564782 0.648600 0.909718 -0.077888
C7    C     C_R   0.899627 0.125393 0.087171 -0.070724
C8    C     C_R   0.064792 0.148592 0.909710 -0.077819
H1    H     H_    0.424831 0.630061 0.171645 0.177359
H2    H     H_    0.529642 0.658687 0.825146 0.182996
H3    H     H_    0.924502 0.129957 0.171487 0.177127
H4    H     H_    0.029666 0.158673 0.825138 0.183008
N5    N     N_R   0.450950 0.603070 0.056740 -0.064035
N6    N     N_R   0.549050 0.603070 0.943260 -0.072731
N7    N     N_R   0.950950 0.103070 0.056740 -0.063982
N8    N     N_R   0.049050 0.103070 0.943260 -0.072729
C9    C     C_R   0.543441 0.455074 0.300079 -0.106231
C10   C     C_R   0.514761 0.453787 0.747526 -0.121537
C11   C     C_R   0.043535 0.955076 0.300123 -0.106118
C12   C     C_R   0.014627 0.953767 0.747378 -0.121601
H5    H     H_    0.560772 0.413890 0.328659 0.161018
H6    H     H_    0.529822 0.411532 0.742520 0.164809
H7    H     H_    0.060963 0.913900 0.328738 0.160982
H8    H     H_    0.029627 0.911504 0.742325 0.164816
N9    N     N_R   0.525650 0.471570 0.206150 -0.066884
N10   N     N_R   0.474350 0.471570 0.793850 -0.067725
N11   N     N_R   0.025650 0.971570 0.206150 -0.066874
N12   N     N_R   0.974350 0.971570 0.793850 -0.067733
C13   C     C_R   0.250119 0.544810 0.692454 -0.121992
C14   C     C_R   0.765884 0.546075 0.241479 -0.099536
C15   C     C_R   0.750098 0.044822 0.692483 -0.122021
C16   C     C_R   0.265858 0.046082 0.241422 -0.099563
H9    H     H_    0.246311 0.584773 0.661412 0.165818
H10   H     H_    0.783643 0.588474 0.243646 0.139610
H11   H     H_    0.746228 0.084796 0.661449 0.165880
H12   H     H_    0.283630 0.088486 0.243646 0.139720
N13   N     N_R   0.319480 0.528420 0.793810 -0.058875
N14   N     N_R   0.680520 0.528420 0.206190 -0.052593
N15   N     N_R   0.819480 0.028420 0.793810 -0.058900
N16   N     N_R   0.180520 0.028420 0.206190 -0.052616
C17   C     C_R   0.557839 0.545247 0.307494 0.294906
C18   C     C_R   0.496907 0.545381 0.729343 0.266836
C19   C     C_R   0.057896 0.045249 0.307513 0.295003
C20   C     C_R   0.996809 0.045370 0.729234 0.267013
N17   N     N_R   0.525640 0.528390 0.206120 -0.098086
N18   N     N_R   0.474360 0.528390 0.793880 -0.094374
N19   N     N_R   0.025640 0.028390 0.206120 -0.098077
N20   N     N_R   0.974360 0.028390 0.793880 -0.094375
C21   C     C_R   0.247324 0.454929 0.691461 0.099840
C22   C     C_R   0.770184 0.454851 0.251081 -0.070280
C23   C     C_R   0.747319 0.954936 0.691454 0.099841
C24   C     C_R   0.270177 0.954857 0.251019 -0.070379
H13   H     H_    0.236275 0.412986 0.663546 0.178474
H14   H     H_    0.794970 0.413223 0.269735 0.201887
H15   H     H_    0.736250 0.912997 0.663504 0.178522
H16   H     H_    0.294983 0.913231 0.269664 0.201900
N21   N     N_R   0.319490 0.471590 0.793840 -0.053710
N22   N     N_R   0.680510 0.471590 0.206160 -0.052131
N23   N     N_R   0.819490 0.971590 0.793840 -0.053685
N24   N     N_R   0.180510 0.971590 0.206160 -0.052130
C25   C     C_R   0.316438 0.632497 0.903220 0.210055
C26   C     C_R   0.636300 0.654898 0.088627 0.204627
C27   C     C_R   0.816502 0.132555 0.903134 0.209804
C28   C     C_R   0.136305 0.154895 0.088621 0.204655
N25   N     N_R   0.394130 0.603080 0.943110 -0.074053
N26   N     N_R   0.605870 0.603080 0.056890 -0.083629
N27   N     N_R   0.894130 0.103080 0.943110 -0.074078
N28   N     N_R   0.105870 0.103080 0.056890 -0.083627
C29   C     C_R   0.412826 0.362896 0.088823 0.172700
C30   C     C_R   0.551694 0.347049 0.908833 0.127339
C31   C     C_R   0.912785 0.862916 0.088811 0.172755
C32   C     C_R   0.051585 0.847043 0.908785 0.127356
N29   N     N_R   0.450990 0.396900 0.056840 -0.116314
N30   N     N_R   0.549010 0.396900 0.943160 -0.115418
N31   N     N_R   0.950990 0.896900 0.056840 -0.116311
N32   N     N_R   0.049010 0.896900 0.943160 -0.115441
C33   C     C_R   0.320536 0.351392 0.995147 -0.137110
C34   C     C_R   0.619482 0.316604 0.999824 -0.115886
C35   C     C_R   0.820492 0.851413 0.995123 -0.137087
C36   C     C_R   0.119370 0.816581 0.999722 -0.115856
C37   C     C_R   0.312275 0.642202 0.991266 0.052011
C38   C     C_R   0.620797 0.682230 0.000505 0.049403
C39   C     C_R   0.812251 0.142263 0.991077 0.051837
C40   C     C_R   0.120810 0.182217 0.000498 0.049386
C41   C     C_R   0.559401 0.500587 0.363506 0.059093
C42   C     C_R   0.533211 0.499404 0.709603 0.068642
C43   C     C_R   0.059521 0.000587 0.363557 0.058903
C44   C     C_R   0.033043 0.999382 0.709417 0.068652
C45   C     C_R   0.202833 0.500268 0.626264 0.017553
C46   C     C_R   0.824662 0.500973 0.271324 0.070309
C47   C     C_R   0.702822 0.000284 0.626296 0.017520
C48   C     C_R   0.324631 0.000988 0.271238 0.070346
Ni1   Ni    Ni4+2 0.434860 0.434850 0.869700 0.257518
Ni2   Ni    Ni4+2 0.565140 0.434850 0.130300 0.277229
Ni3   Ni    Ni4+2 0.934860 0.934850 0.869700 0.257533
Ni4   Ni    Ni4+2 0.065140 0.934850 0.130300 0.277199
Ni5   Ni    Ni4+2 0.565130 0.565140 0.130240 0.267873
Ni6   Ni    Ni4+2 0.434870 0.565140 0.869760 0.251498
Ni7   Ni    Ni4+2 0.065130 0.065140 0.130240 0.267918
Ni8   Ni    Ni4+2 0.934870 0.065140 0.869760 0.251513
C49   C     C_R   0.066139 0.552305 0.479934 0.138883
C50   C     C_R   0.971619 0.552354 0.392607 0.119181
C51   C     C_R   0.565982 0.052296 0.480271 0.138980
C52   C     C_R   0.471486 0.052354 0.392903 0.119269
C53   C     C_R   0.120541 0.504565 0.510125 -0.071637
C54   C     C_R   0.927866 0.504885 0.330826 -0.078607
C55   C     C_R   0.620468 0.004607 0.510225 -0.071692
C56   C     C_R   0.427832 0.004935 0.330872 -0.078722
C57   C     C_R   0.085597 0.461832 0.430639 0.153336
C58   C     C_R   0.987054 0.461899 0.339247 0.156110
C59   C     C_R   0.585603 0.961953 0.430600 0.153421
C60   C     C_R   0.487074 0.962021 0.339185 0.156222
C61   C     C_3   0.945794 0.589062 0.451215 -0.406850
C62   C     C_3   0.049915 0.589376 0.546771 -0.408987
C63   C     C_3   0.445542 0.088815 0.451700 -0.406694
C64   C     C_3   0.549648 0.089117 0.547310 -0.409145
H17   H     H_    0.919597 0.629753 0.412030 0.236802
H18   H     H_    0.064964 0.569308 0.621206 0.223841
H19   H     H_    0.419263 0.129559 0.412785 0.236886
H20   H     H_    0.564697 0.068875 0.621601 0.223679
H21   H     H_    0.901066 0.568597 0.470626 0.221430
H22   H     H_    0.083098 0.630121 0.560951 0.240564
H23   H     H_    0.400823 0.068155 0.470906 0.221273
H24   H     H_    0.582769 0.129908 0.561792 0.240583
C65   C     C_R   0.173524 0.700744 0.889399 0.183799
C66   C     C_R   0.722772 0.765742 0.097407 0.188109
C67   C     C_R   0.673886 0.201072 0.889330 0.184261
C68   C     C_R   0.222870 0.265679 0.097439 0.188116
C69   C     C_R   0.660432 0.253609 0.908889 0.198028
C70   C     C_R   0.252220 0.315399 0.084652 0.191766
C71   C     C_R   0.159725 0.753320 0.908455 0.198697
C72   C     C_R   0.752106 0.815462 0.084583 0.191789
C73   C     C_R   0.652322 0.262698 0.994599 -0.087536
C74   C     C_R   0.246287 0.321250 0.988846 -0.100281
C75   C     C_R   0.151975 0.762600 0.994413 -0.087992
C76   C     C_R   0.746206 0.821288 0.988796 -0.100264
C77   C     C_R   0.673745 0.219128 0.067792 0.253117
C78   C     C_R   0.173463 0.292687 0.892422 0.245536
C79   C     C_R   0.173791 0.719176 0.068036 0.253240
C80   C     C_R   0.673383 0.792714 0.892381 0.245543
C81   C     C_R   0.223139 0.673090 0.067759 0.131149
C82   C     C_R   0.609886 0.763012 0.898314 0.100974
C83   C     C_R   0.722780 0.172985 0.067133 0.131083
C84   C     C_R   0.109954 0.262994 0.898338 0.101087
C85   C     C_R   0.232442 0.668823 0.981792 -0.115300
C86   C     C_R   0.645927 0.739080 0.000246 -0.098788
C87   C     C_R   0.732364 0.168905 0.981403 -0.115222
C88   C     C_R   0.145985 0.239052 0.000259 -0.098856
C89   C     C_R   0.594810 0.547307 0.622363 0.659891
C90   C     C_R   0.585004 0.549361 0.525358 0.670915
C91   C     C_R   0.094787 0.047286 0.622345 0.659842
C92   C     C_R   0.085136 0.049353 0.525430 0.670785
C93   C     C_R   0.583020 0.500344 0.473911 -0.189465
C94   C     C_R   0.574947 0.498238 0.650604 -0.184963
C95   C     C_R   0.083136 0.000339 0.473960 -0.189434
C96   C     C_R   0.074814 0.998217 0.650469 -0.185033
C97   C     C_R   0.590377 0.450136 0.522782 -0.166295
C98   C     C_R   0.581874 0.448972 0.607707 -0.155304
C99   C     C_R   0.090378 0.950123 0.522750 -0.166264
C100  C     C_R   0.081749 0.948953 0.607576 -0.155306
H25   H     H_    0.591987 0.411329 0.489131 0.188923
H26   H     H_    0.573856 0.409681 0.633022 0.194362
H27   H     H_    0.091964 0.911316 0.489083 0.188927
H28   H     H_    0.073636 0.909662 0.632806 0.194363
F1    F     F_    0.227931 0.383506 0.807568 -0.700038
F2    F     F_    0.706929 0.332277 0.197143 -0.670329
F3    F     F_    0.727931 0.883516 0.807546 -0.700072
F4    F     F_    0.206971 0.832264 0.197087 -0.670381
I1    I     I_    0.048436 0.662183 0.755150 -0.252166
I2    I     I_    0.830276 0.726681 0.249893 -0.260268
I3    I     I_    0.548503 0.162940 0.754687 -0.251953
I4    I     I_    0.330381 0.226551 0.249856 -0.260129
I5    I     I_    0.682980 0.315799 0.829010 -0.273850
I6    I     I_    0.295724 0.379596 0.202894 -0.214895
I7    I     I_    0.181745 0.815334 0.827757 -0.273766
I8    I     I_    0.795552 0.879696 0.202744 -0.214492
I9    I     I_    0.626292 0.218466 0.167878 -0.105692
I10   I     I_    0.175713 0.268601 0.757567 -0.056501
I11   I     I_    0.126183 0.718580 0.167983 -0.106082
I12   I     I_    0.675602 0.768633 0.757505 -0.056420
I13   I     I_    0.269587 0.607786 0.182663 -0.201435
I14   I     I_    0.462699 0.764730 0.761047 -0.154976
I15   I     I_    0.767845 0.107136 0.180413 -0.202629
I16   I     I_    0.962784 0.264731 0.761041 -0.154763
F5    F     F_    0.611865 0.594258 0.680214 -0.630309
F6    F     F_    0.562822 0.598707 0.475865 -0.611951
F7    F     F_    0.111815 0.094228 0.680213 -0.630361
F8    F     F_    0.063098 0.098721 0.476025 -0.611984
I17   I     I_    0.673782 0.601157 0.392817 -0.211222
I18   I     I_    0.414021 0.608586 0.613424 -0.189744
I19   I     I_    0.173876 0.101139 0.392770 -0.211540
I20   I     I_    0.913939 0.108600 0.613379 -0.189694
I21   I     I_    0.266706 0.683141 0.765002 -0.311681
I22   I     I_    0.606263 0.699661 0.186734 -0.222232
I23   I     I_    0.767011 0.183221 0.764996 -0.311459
I24   I     I_    0.106289 0.199677 0.186730 -0.222081
I25   I     I_    0.497465 0.313062 0.230159 -0.235686
I26   I     I_    0.433230 0.314183 0.756887 -0.246963
I27   I     I_    0.997349 0.813119 0.230215 -0.235998
I28   I     I_    0.932824 0.814189 0.757012 -0.246986
I29   I     I_    0.180253 0.400819 0.443997 -0.180610
I30   I     I_    0.929346 0.399490 0.215083 -0.218396
I31   I     I_    0.680342 0.901031 0.443879 -0.180751
I32   I     I_    0.429422 0.899689 0.214881 -0.218481

loop_
_geom_bond_atom_site_label_1
_geom_bond_atom_site_label_2
_geom_bond_distance
_ccdc_geom_bond_type
N6    N26   1.378755 A    
N27   Ni8   1.873767 S    
C80   I12   2.141365 S    
N5    N25   1.378756 A    
C59   I31   2.135776 S    
C67   C87   1.382514 A    
C99   C100  1.381386 A    
C14   N14   1.325304 A    
N13   N21   1.389105 A    
C69   C73   1.402771 A    
C4    N4    1.339151 A    
C3    F3    1.348131 S    
C32   C36   1.381527 A    
C97   C98   1.381399 A    
N26   Ni5   1.895730 S    
N15   N23   1.389105 A    
C89   F5    1.357315 S    
N25   Ni6   1.873767 S    
N16   N24   1.389097 A    
C71   C75   1.403032 A    
C48   C56   1.461365 S    
N10   Ni1   1.896200 S    
C7    N7    1.340184 A    
C52   C56   1.393417 A    
N3    Ni3   1.896944 S    
N9    Ni2   1.874717 S    
C1    N1    1.328825 A    
C96   C100  1.399239 A    
C19   I19   2.128628 S    
C70   I6    2.137781 S    
C6    N6    1.327270 A    
C26   C38   1.373616 A    
C34   C73   1.451837 S    
C23   H15   1.078220 S    
C57   I29   2.135825 S    
C38   C86   1.462991 S    
C62   H18   1.112145 S    
C25   N25   1.317872 A    
N2    N30   1.378758 A    
C27   N27   1.317598 A    
N7    N27   1.378756 A    
N19   Ni7   1.896935 S    
C59   C60   1.425177 A    
C65   C71   1.363900 A    
N13   Ni6   1.854457 S    
C24   C48   1.392535 A    
N6    Ni6   1.855479 S    
C1    F1    1.348151 S    
C89   C94   1.393993 A    
C5    H1    1.078832 S    
N15   Ni8   1.854457 S    
N12   N20   1.388855 A    
C81   C85   1.408278 A    
N23   Ni3   1.847106 S    
C5    C37   1.400629 A    
C98   H26   1.079868 S    
C7    H3    1.079076 S    
N29   Ni2   1.855376 S    
C8    H4    1.068209 S    
C36   C75   1.452126 S    
C7    C39   1.400933 A    
C23   N23   1.347191 A    
C66   C86   1.422411 A    
C51   C52   1.365711 A    
C24   N24   1.344604 A    
C95   C99   1.405942 A    
C11   H7    1.067700 S    
C30   N30   1.330024 A    
C15   N15   1.327969 A    
C54   C58   1.419378 A    
C43   C95   1.462756 S    
C72   C76   1.400597 A    
N14   N22   1.389097 A    
C51   C55   1.394575 A    
N10   N18   1.388855 A    
C29   I25   2.118898 S    
C39   C87   1.462168 S    
C20   I20   2.131508 S    
C40   C88   1.462812 S    
C52   C63   1.499594 S    
C65   I1    2.116691 S    
C2    N2    1.339049 A    
C21   N21   1.347167 A    
C30   C34   1.381716 A    
C12   C44   1.387243 A    
C29   C33   1.398592 A    
C35   C76   1.453489 S    
N16   Ni7   1.847086 S    
C18   N18   1.326777 A    
C18   I18   2.131513 S    
C37   C85   1.462528 S    
C17   I17   2.128607 S    
C33   C74   1.453333 S    
C66   C72   1.384879 A    
C8    C40   1.378944 A    
C77   C83   1.413306 A    
C21   C45   1.377583 A    
N2    Ni2   1.874976 S    
C84   C88   1.404429 A    
N31   Ni4   1.855376 S    
C100  H28   1.079889 S    
C90   C93   1.410086 A    
C23   C47   1.377545 A    
C9    H5    1.067711 S    
C74   C78   1.417294 A    
C31   I27   2.118869 S    
C9    C41   1.377106 A    
C30   I26   2.124739 S    
C3    N3    1.328868 A    
C83   I15   2.139833 S    
N7    Ni7   1.847622 S    
C46   C54   1.461602 S    
C66   I2    2.144289 S    
C58   I30   2.137487 S    
C81   I13   2.141538 S    
N5    Ni5   1.847622 S    
C79   I11   2.121121 S    
C32   I28   2.125071 S    
C42   C94   1.454079 S    
C15   H11   1.073580 S    
C12   N12   1.327346 A    
C65   C85   1.382875 A    
C78   C84   1.381959 A    
C55   C59   1.419150 A    
C16   C48   1.381442 A    
C4    C36   1.376381 A    
C16   H12   1.079780 S    
C99   H27   1.079113 S    
C28   N28   1.345905 A    
C8    N8    1.327224 A    
N30   Ni1   1.847512 S    
C22   H14   1.074333 S    
C17   N17   1.340666 A    
C10   C42   1.387266 A    
C1    C33   1.372043 A    
C75   C79   1.423927 A    
C60   I32   2.137451 S    
N11   Ni4   1.874717 S    
N9    N17   1.388863 A    
C41   C93   1.462760 S    
C53   C57   1.419243 A    
C26   I22   2.136190 S    
C91   F7    1.357338 S    
C2    F2    1.353126 S    
C25   I21   2.129159 S    
C92   F8    1.353570 S    
C80   C82   1.382042 A    
C78   I10   2.141406 S    
C14   C46   1.381596 A    
N18   Ni6   1.875433 S    
C63   H19   1.109539 S    
C50   C61   1.499592 S    
C6    H2    1.068193 S    
C28   C40   1.373569 A    
C11   C43   1.377037 A    
C49   C62   1.497235 S    
C2    C34   1.376048 A    
C32   N32   1.329951 A    
N1    N29   1.378762 A    
N14   Ni5   1.847086 S    
C93   C97   1.405879 A    
C51   C64   1.497165 S    
C56   C60   1.419294 A    
C17   C41   1.381216 A    
C12   H8    1.076089 S    
N3    N31   1.378762 A    
C57   C58   1.425248 A    
C50   C54   1.393440 A    
C5    N5    1.339840 A    
C79   C81   1.413429 A    
C73   C77   1.423943 A    
C6    C38   1.379002 A    
C21   H13   1.078192 S    
C4    F4    1.353112 S    
C91   C96   1.394014 A    
C14   H10   1.079754 S    
C19   C43   1.381159 A    
C82   I14   2.132032 S    
C92   C95   1.410132 A    
N21   Ni1   1.847106 S    
C76   C80   1.417354 A    
N11   N19   1.388863 A    
C67   C69   1.363573 A    
C13   C45   1.368717 A    
C9    N9    1.328589 A    
C70   C74   1.400629 A    
C19   N19   1.340674 A    
C63   C64   1.502283 S    
C64   H24   1.110511 S    
C82   C86   1.404423 A    
C18   C42   1.399763 A    
N28   Ni7   1.895730 S    
C61   H17   1.109465 S    
C84   I16   2.131973 S    
C22   N22   1.344569 A    
C49   C50   1.365821 A    
C72   I8    2.137811 S    
C27   C39   1.395200 A    
N12   Ni3   1.896200 S    
C44   C96   1.453910 S    
C28   I24   2.136206 S    
C13   N13   1.328072 A    
N4    Ni4   1.874976 S    
C71   I7    2.136826 S    
N32   Ni3   1.847512 S    
C25   C37   1.395760 A    
C10   N10   1.327280 A    
C61   C62   1.502254 S    
C3    C35   1.372016 A    
C31   C35   1.398679 A    
C26   N26   1.345966 A    
C49   C53   1.394669 A    
C69   I5    2.136289 S    
C68   C88   1.422386 A    
C83   C87   1.407749 A    
C67   I3    2.116477 S    
N20   Ni8   1.875433 S    
N1    Ni1   1.896944 S    
C27   I23   2.129356 S    
C77   I9    2.120940 S    
C90   F6    1.353487 S    
C68   I4    2.144459 S    
C13   H9    1.073599 S    
C22   C46   1.392529 A    
C16   N16   1.325204 A    
N8    Ni8   1.855479 S    
C94   C98   1.399270 A    
C10   H6    1.076047 S    
C24   H16   1.074372 S    
N24   Ni4   1.854498 S    
N22   Ni2   1.854498 S    
C68   C70   1.384825 A    
C20   C44   1.399810 A    
C45   C53   1.465100 S    
C91   C92   1.375059 A    
N4    N32   1.378758 A    
C29   N29   1.335068 A    
N8    N28   1.378755 A    
C47   C55   1.464800 S    
C62   H22   1.110575 S    
C89   C90   1.375003 A    
C20   N20   1.326934 A    
C61   H21   1.112683 S    
C31   N31   1.335162 A    
C97   H25   1.079112 S    
C64   H20   1.112182 S    
N17   Ni5   1.896935 S    
C11   N11   1.328521 A    
C15   C47   1.368578 A    
C63   H23   1.112626 S    
