data_mof_unit_25625.cif
_audit_creation_date              2012-12-10T17:09:50-0500
_audit_creation_method            fapswitch 2.2
_symmetry_space_group_name_H-M    P1
_symmetry_Int_Tables_number       1
_space_group_crystal_system       triclinic
_cell_length_a                    10.766669
_cell_length_b                    13.006142
_cell_length_c                    11.678204
_cell_angle_alpha                 99.781308
_cell_angle_beta                  93.544219
_cell_angle_gamma                 90.092472
_cell_volume                      1608.35536395

loop_
_atom_site_label
_atom_site_type_symbol
_atom_type_description
_atom_site_fract_x
_atom_site_fract_y
_atom_site_fract_z
_atom_type_partial_charge
C1    C     C_R   0.497774 0.299128 0.478637 0.818560
C2    C     C_R   0.069040 0.596179 0.551019 0.049508
C3    C     C_R   0.128618 0.503593 0.501599 -0.096253
C4    C     C_R   0.059456 0.413645 0.450097 0.157443
C5    C     C_R   0.930588 0.416277 0.449046 -0.189143
C6    C     C_R   0.870746 0.506009 0.499240 -0.125659
C7    C     C_R   0.504013 0.814140 0.533071 -0.058414
C8    C     C_R   0.495540 0.185740 0.465649 -0.102147
C9    C     C_R   0.477645 0.015773 0.340962 0.172985
C10   C     C_R   0.479753 0.124515 0.354658 -0.193577
C11   C     C_R   0.509125 0.138601 0.564393 -0.273792
C12   C     C_R   0.262577 0.500708 0.500598 0.811239
C13   C     C_R   0.507462 0.030668 0.553240 0.135250
C14   C     C_R   0.491640 0.968155 0.441258 0.152271
C15   C     C_R   0.490205 0.859814 0.432954 -0.257646
C16   C     C_R   0.519792 0.876801 0.643145 -0.208482
C17   C     C_R   0.521527 0.984615 0.653153 -0.201812
C18   C     C_R   0.390319 0.393539 0.022069 0.064646
C19   C     C_R   0.401078 0.405881 0.144917 0.079889
C20   C     C_R   0.544623 0.545834 0.156609 0.008836
C21   C     C_R   0.537736 0.537313 0.033872 0.024553
C22   C     C_R   0.459801 0.460445 0.965172 0.047296
C23   C     C_R   0.502102 0.700859 0.521259 0.780836
C24   C     C_R   0.454425 0.453529 0.841929 0.031841
C25   C     C_R   0.598650 0.593520 0.856537 0.093162
C26   C     C_R   0.607266 0.603840 0.978520 -0.316485
C27   C     C_R   0.737337 0.501216 0.499571 0.803657
C28   C     C_R   0.136678 0.688343 0.599167 -0.213627
C29   C     C_R   0.075466 0.779008 0.645359 -0.125370
C30   C     C_R   0.945558 0.780336 0.644191 0.232545
C31   C     C_R   0.877431 0.689870 0.596639 -0.182825
C32   C     C_R   0.938017 0.597203 0.549887 0.048254
Cu1   Cu    Cu3+1 0.509250 0.507730 0.615930 0.935138
Cu2   Cu    Cu3+1 0.490750 0.492270 0.384070 0.936219
H1    H     H_    0.533889 0.032000 0.738959 0.137806
H2    H     H_    0.395074 0.396075 0.786560 0.138669
H3    H     H_    0.237131 0.691770 0.600648 0.148973
H4    H     H_    0.875988 0.347417 0.410747 0.142659
H5    H     H_    0.531126 0.842618 0.721446 0.157334
N1    N     N_R   0.523180 0.519350 0.790130 -0.184265
N2    N     N_R   0.476820 0.480650 0.209890 -0.199775
O1    O     O_R   0.506570 0.354460 0.582000 -0.589360
O2    O     O_R   0.490940 0.341410 0.386200 -0.595741
O3    O     O_R   0.327470 0.506530 0.597920 -0.586166
O4    O     O_R   0.311840 0.493480 0.402120 -0.577040
O5    O     O_R   0.509060 0.658590 0.613800 -0.601288
O6    O     O_R   0.493430 0.645540 0.418000 -0.588476
O7    O     O_R   0.688160 0.506520 0.597880 -0.579741
O8    O     O_R   0.672530 0.493470 0.402080 -0.576916
C33   C     C_3   0.121728 0.313889 0.398504 -0.851040
H6    H     H_    0.053105 0.249749 0.367807 0.227514
H7    H     H_    0.173648 0.326630 0.322856 0.234995
H8    H     H_    0.187225 0.288209 0.465034 0.220412
H9    H     H_    0.468838 0.161555 0.278289 0.159631
H10   H     H_    0.521289 0.185857 0.650370 0.160154
H11   H     H_    0.652431 0.645314 0.814876 0.122045
C34   C     C_3   0.305619 0.309151 0.954680 -0.926693
H12   H     H_    0.259231 0.264276 0.013209 0.234394
H13   H     H_    0.232104 0.344447 0.903335 0.244876
H14   H     H_    0.360259 0.253677 0.895026 0.233647
H15   H     H_    0.667848 0.663583 0.029177 0.138086
H16   H     H_    0.348837 0.355087 0.189161 0.124055
H17   H     H_    0.604776 0.604353 0.209765 0.131305
H18   H     H_    0.129819 0.848439 0.681317 0.138772
C35   C     C_3   0.878303 0.877718 0.692121 -0.888645
H19   H     H_    0.944200 0.942991 0.726789 0.231584
H20   H     H_    0.815990 0.901810 0.622264 0.245434
H21   H     H_    0.821315 0.862535 0.763700 0.229815
H22   H     H_    0.776935 0.693334 0.595353 0.136201
H23   H     H_    0.478112 0.810227 0.348682 0.170528
C36   C     C_3   0.460520 0.953204 0.219598 -0.905572
H24   H     H_    0.451270 0.004119 0.152268 0.233833
H25   H     H_    0.542249 0.902520 0.200939 0.231210
H26   H     H_    0.374774 0.904310 0.211709 0.237890

loop_
_geom_bond_atom_site_label_1
_geom_bond_atom_site_label_2
_ccdc_geom_bond_type
C27   O7    A    
C6    C32   A    
C21   C26   A    
C1    C8    S    
C25   H11   S    
C20   N2    A    
C24   H2    S    
Cu1   O1    S    
C28   C29   A    
C26   H15   S    
C25   N1    A    
C5    C6    A    
C34   H13   S    
C19   H16   S    
C2    C32   A    
C18   C19   A    
C3    C12   S    
C1    O2    A    
C31   C32   A    
C16   C17   A    
C35   H20   S    
C33   H7    S    
C9    C10   A    
C7    C15   A    
C29   H18   S    
C23   O5    A    
C21   C22   A    
Cu1   O5    S    
Cu2   N2    S    
C33   H6    S    
C33   H8    S    
C23   O6    A    
Cu1   N1    S    
C5    H4    S    
C36   H25   S    
C4    C5    A    
C34   H14   S    
C25   C26   A    
C4    C33   S    
C9    C14   A    
C29   C30   A    
C18   C34   S    
C6    C27   S    
C35   H21   S    
Cu1   Cu2   S    
Cu2   O4    S    
C7    C16   A    
C22   C24   A    
C3    C4    A    
C11   H10   S    
C15   H23   S    
Cu2   O8    S    
C18   C22   A    
Cu1   O3    S    
Cu2   O2    S    
C9    C36   S    
C12   O4    A    
C36   H26   S    
C13   C17   A    
C20   H17   S    
C2    C3    A    
C36   H24   S    
C12   O3    A    
C11   C13   A    
C34   H12   S    
C30   C31   A    
C28   H3    S    
C8    C11   A    
C7    C23   S    
C24   N1    A    
C10   H9    S    
C30   C35   S    
C16   H5    S    
C27   O8    A    
C1    O1    A    
C31   H22   S    
C20   C21   A    
C8    C10   A    
C35   H19   S    
Cu1   O7    S    
C14   C15   A    
C2    C28   A    
Cu2   O6    S    
C17   H1    S    
C13   C14   A    
C19   N2    A    
