data_mof_unit_15547.cif
_audit_creation_date              2012-12-11T14:41:06-0500
_audit_creation_method            fapswitch 2.2
_symmetry_space_group_name_H-M    P1
_symmetry_Int_Tables_number       1
_space_group_crystal_system       orthorhombic
_cell_length_a                    6.941295
_cell_length_b                    17.808379
_cell_length_c                    18.945819
_cell_angle_alpha                 90.0
_cell_angle_beta                  90.0
_cell_angle_gamma                 90.0
_cell_volume                      2341.95354266

loop_
_atom_site_label
_atom_site_type_symbol
_atom_type_description
_atom_site_fract_x
_atom_site_fract_y
_atom_site_fract_z
_atom_type_partial_charge
O1    O     O_R   0.377350 0.828520 0.186660 -0.542338
O2    O     O_R   0.622650 0.171480 0.813340 -0.542338
O3    O     O_R   0.122650 0.171480 0.686660 -0.542338
O4    O     O_R   0.877350 0.828520 0.313340 -0.542338
O5    O     O_R   0.877350 0.671480 0.313340 -0.542338
O6    O     O_R   0.122650 0.328520 0.686660 -0.542338
O7    O     O_R   0.622650 0.328520 0.813340 -0.542338
O8    O     O_R   0.377350 0.671480 0.186660 -0.542338
O9    O     O_R   0.707090 0.671930 0.178410 -0.538077
O10   O     O_R   0.292910 0.328070 0.821590 -0.538077
O11   O     O_R   0.792910 0.328070 0.678410 -0.538077
O12   O     O_R   0.207090 0.671930 0.321590 -0.538077
O13   O     O_R   0.207090 0.828070 0.321590 -0.538077
O14   O     O_R   0.792910 0.171930 0.678410 -0.538077
O15   O     O_R   0.292910 0.171930 0.821590 -0.538077
O16   O     O_R   0.707090 0.828070 0.178410 -0.538077
C1    C     C_R   0.539886 0.645605 0.161473 0.724565
C2    C     C_R   0.460114 0.354395 0.838527 0.724564
C3    C     C_R   0.960114 0.354395 0.661473 0.724564
C4    C     C_R   0.039886 0.645605 0.338527 0.724565
C5    C     C_R   0.039886 0.854395 0.338527 0.724565
C6    C     C_R   0.960114 0.145605 0.661473 0.724565
C7    C     C_R   0.460114 0.145605 0.838527 0.724565
C8    C     C_R   0.539886 0.854395 0.161473 0.724565
O17   O     O_3   0.543850 0.750000 0.294270 -0.368354
O18   O     O_3   0.456150 0.250000 0.705730 -0.368354
O19   O     O_3   0.956150 0.250000 0.794270 -0.368354
O20   O     O_3   0.043850 0.750000 0.205730 -0.368354
V1    V     V_3+5 0.818700 0.750000 0.241790 1.426689
V2    V     V_3+5 0.181300 0.250000 0.758210 1.426689
V3    V     V_3+5 0.681300 0.250000 0.741790 1.426689
V4    V     V_3+5 0.318700 0.750000 0.258210 1.426689
C9    C     C_R   0.956631 0.415847 0.608058 -0.134614
C10   C     C_R   0.043369 0.584153 0.391941 -0.134614
C11   C     C_R   0.543369 0.584153 0.108058 -0.134614
C12   C     C_R   0.456631 0.415847 0.891942 -0.134614
C13   C     C_R   0.456631 0.084153 0.891942 -0.134614
C14   C     C_R   0.543369 0.915847 0.108058 -0.134614
C15   C     C_R   0.043369 0.915847 0.391941 -0.134614
C16   C     C_R   0.956631 0.084153 0.608058 -0.134614
C17   C     C_R   0.229736 0.484955 0.451081 0.392476
C18   C     C_R   0.770264 0.515045 0.548919 0.392476
C19   C     C_R   0.270264 0.515045 0.951081 0.392476
C20   C     C_R   0.729736 0.484955 0.048919 0.392476
C21   C     C_R   0.729736 0.015045 0.048919 0.392476
C22   C     C_R   0.270264 0.984955 0.951081 0.392476
C23   C     C_R   0.770264 0.984955 0.548919 0.392476
C24   C     C_R   0.229736 0.015045 0.451081 0.392476
C25   C     C_R   0.208086 0.538288 0.396772 -0.226849
C26   C     C_R   0.791914 0.461711 0.603228 -0.226849
C27   C     C_R   0.291914 0.461711 0.896772 -0.226849
C28   C     C_R   0.708086 0.538288 0.103227 -0.226849
C29   C     C_R   0.708086 0.961711 0.103227 -0.226848
C30   C     C_R   0.291914 0.038289 0.896772 -0.226848
C31   C     C_R   0.791914 0.038289 0.603228 -0.226849
C32   C     C_R   0.208086 0.961711 0.396772 -0.226849
C33   C     C_R   0.896304 0.575070 0.441896 -0.203108
C34   C     C_R   0.103696 0.424930 0.558104 -0.203108
C35   C     C_R   0.603696 0.424930 0.941896 -0.203108
C36   C     C_R   0.396304 0.575070 0.058104 -0.203108
C37   C     C_R   0.396304 0.924930 0.058104 -0.203108
C38   C     C_R   0.603696 0.075070 0.941896 -0.203108
C39   C     C_R   0.103696 0.075070 0.558104 -0.203108
C40   C     C_R   0.896304 0.924930 0.441896 -0.203108
C41   C     C_R   0.915737 0.522594 0.497594 0.050389
C42   C     C_R   0.084263 0.477406 0.502406 0.050389
C43   C     C_R   0.584263 0.477406 0.997594 0.050389
C44   C     C_R   0.415737 0.522594 0.002406 0.050389
C45   C     C_R   0.415737 0.977406 0.002406 0.050389
C46   C     C_R   0.584263 0.022594 0.997594 0.050389
C47   C     C_R   0.084263 0.022594 0.502406 0.050389
C48   C     C_R   0.915737 0.977406 0.497594 0.050389
H1    H     H_    0.229776 0.389232 0.561421 0.179254
H2    H     H_    0.770224 0.610768 0.438579 0.179254
H3    H     H_    0.270224 0.610768 0.061421 0.179254
H4    H     H_    0.729776 0.389232 0.938579 0.179254
H5    H     H_    0.729776 0.110768 0.938579 0.179254
H6    H     H_    0.270224 0.889232 0.061421 0.179254
H7    H     H_    0.770224 0.889232 0.438579 0.179254
H8    H     H_    0.229776 0.110768 0.561421 0.179254
H9    H     H_    0.677725 0.455486 0.641793 0.119710
H10   H     H_    0.322274 0.544514 0.358207 0.119710
H11   H     H_    0.822274 0.544514 0.141793 0.119710
H12   H     H_    0.177725 0.455486 0.858207 0.119710
H13   H     H_    0.177726 0.044514 0.858207 0.119710
H14   H     H_    0.822274 0.955486 0.141793 0.119710
H15   H     H_    0.322274 0.955486 0.358207 0.119710
H16   H     H_    0.677725 0.044514 0.641793 0.119710
O21   O     O_3   0.392425 0.440370 0.455171 -0.643694
H17   H     H_    0.481092 0.453483 0.416021 0.293120
O22   O     O_3   0.607575 0.559630 0.544829 -0.643694
H18   H     H_    0.518908 0.546517 0.583979 0.293120
O23   O     O_3   0.107575 0.559630 0.955171 -0.643695
H19   H     H_    0.018908 0.546517 0.916021 0.293120
O24   O     O_3   0.892425 0.440370 0.044829 -0.643695
H20   H     H_    0.981092 0.453483 0.083979 0.293120
O25   O     O_3   0.892425 0.059630 0.044829 -0.643695
H21   H     H_    0.981092 0.046517 0.083979 0.293120
O26   O     O_3   0.107575 0.940370 0.955171 -0.643695
H22   H     H_    0.018908 0.953483 0.916021 0.293120
O27   O     O_3   0.607575 0.940370 0.544829 -0.643694
H23   H     H_    0.518908 0.953483 0.583979 0.293120
O28   O     O_3   0.392425 0.059630 0.455171 -0.643694
H24   H     H_    0.481092 0.046517 0.416021 0.293120

loop_
_geom_bond_atom_site_label_1
_geom_bond_atom_site_label_2
_ccdc_geom_bond_type
C33   H2    S    
C17   O21   S    
C22   O26   S    
O27   H23   S    
C23   O27   S    
C28   H11   S    
O13   V4    S    
O24   H20   S    
C9    C34   A    
O14   V3    S    
C12   C35   A    
O25   H21   S    
O5    C4    A    
C15   C40   A    
O11   C3    A    
O23   H19   S    
C16   C39   A    
O20   V1    S    
C38   C46   A    
C18   O22   S    
C31   H16   S    
C22   C45   A    
C38   H5    S    
C35   C43   A    
C34   C42   A    
C15   C32   A    
C19   C44   A    
C18   C41   A    
C8    C14   S    
C29   H14   S    
O4    V1    S    
O9    V1    S    
C14   C37   A    
C4    C10   S    
C20   C28   A    
O17   V4    S    
O15   C7    A    
O11   V3    S    
O18   V3    S    
O16   C8    A    
O12   V4    S    
O19   V2    S    
C22   C30   A    
C17   C25   A    
C13   C38   A    
O5    V1    S    
C39   H8    S    
O17   V1    S    
O7    V3    S    
O19   V3    S    
C43   C44   A    
O8    V4    S    
O20   V4    S    
C3    C9    S    
O22   H18   S    
C32   H15   S    
C9    C26   A    
C7    C13   S    
C24   O28   S    
C34   H1    S    
O1    V4    S    
C11   C36   A    
C25   H10   S    
O3    V2    S    
O6    C3    A    
C10   C33   A    
O10   V2    S    
O26   H22   S    
C5    C15   S    
C37   H6    S    
O7    C2    A    
C6    C16   S    
O12   C4    A    
O13   C5    A    
C12   C27   A    
C18   C26   A    
C13   C30   A    
O9    C1    A    
O6    V2    S    
C39   C47   A    
O18   V2    S    
C40   H7    S    
C24   C47   A    
O2    C7    A    
O15   V2    S    
C23   C31   A    
C37   C45   A    
C24   C32   A    
C10   C25   A    
C21   C46   A    
C33   C41   A    
C20   C43   A    
C16   C31   A    
C30   H13   S    
C17   C42   A    
C36   H3    S    
O8    C1    A    
O14   C6    A    
O16   V1    S    
C47   C48   A    
C20   O24   S    
C21   O25   S    
O4    C5    A    
C11   C28   A    
C19   C27   A    
C14   C29   A    
O10   C2    A    
C35   H4    S    
C19   O23   S    
C40   C48   A    
C45   C46   A    
C23   C48   A    
C21   C29   A    
C36   C44   A    
O1    C8    A    
C41   C42   A    
O28   H24   S    
O2    V3    S    
O3    C6    A    
C1    C11   S    
O21   H17   S    
C2    C12   S    
C27   H12   S    
C26   H9    S    
