data_mof_unit_7409.cif
_audit_creation_date              2013-03-05T16:00:53-0500
_audit_creation_method            fapswitch 2.2
_symmetry_space_group_name_H-M    P1
_symmetry_Int_Tables_number       1
_space_group_crystal_system       triclinic
_cell_length_a                    20.834137
_cell_length_b                    21.699713
_cell_length_c                    14.187534
_cell_angle_alpha                 89.512286
_cell_angle_beta                  91.105997
_cell_angle_gamma                 89.504407
_cell_volume                      6412.43375534

loop_
_atom_site_label
_atom_site_type_symbol
_atom_site_description
_atom_site_fract_x
_atom_site_fract_y
_atom_site_fract_z
_atom_type_partial_charge
O1    O     O_R   0.066090 0.433930 0.580280 -0.632237
O2    O     O_R   0.933910 0.566070 0.419720 -0.630545
O3    O     O_R   0.933910 0.566070 0.580280 -0.643230
O4    O     O_R   0.066090 0.433930 0.419720 -0.635608
O5    O     O_R   0.933910 0.433930 0.419720 -0.640757
O6    O     O_R   0.066090 0.566070 0.580280 -0.617575
O7    O     O_R   0.066090 0.566070 0.419720 -0.651966
O8    O     O_R   0.933910 0.433930 0.580280 -0.611252
O9    O     O_R   0.566090 0.933930 0.580280 -0.635053
O10   O     O_R   0.433910 0.066070 0.419720 -0.627585
O11   O     O_R   0.433910 0.066070 0.580280 -0.636487
O12   O     O_R   0.566090 0.933930 0.419720 -0.635374
O13   O     O_R   0.433910 0.933930 0.419720 -0.631177
O14   O     O_R   0.566090 0.066070 0.580280 -0.626979
O15   O     O_R   0.566090 0.066070 0.419720 -0.645290
O16   O     O_R   0.433910 0.933930 0.580280 -0.625211
C1    C     C_R   0.087720 0.414808 0.501007 0.943967
C2    C     C_R   0.914230 0.587027 0.499233 0.944124
C3    C     C_R   0.913499 0.413146 0.500100 0.934193
C4    C     C_R   0.086822 0.586662 0.499836 0.890457
C5    C     C_R   0.587482 0.914645 0.501065 0.942457
C6    C     C_R   0.413106 0.086098 0.499218 0.933303
C7    C     C_R   0.413052 0.913760 0.500162 0.895676
C8    C     C_R   0.585458 0.088302 0.499984 0.892847
Zn1   Zn    Zn3+2 0.000000 0.500000 0.607200 0.927845
Zn2   Zn    Zn3+2 1.000000 0.500000 0.392800 0.914148
Zn3   Zn    Zn3+2 0.500000 0.000000 0.607200 0.920815
Zn4   Zn    Zn3+2 0.500000 0.000000 0.392800 0.915689
C9    C     C_R   0.139453 0.675217 0.419325 0.006802
C10   C     C_R   0.873982 0.315091 0.569542 0.016560
C11   C     C_R   0.884772 0.694169 0.462976 0.006858
C12   C     C_R   0.130360 0.316707 0.555548 0.000689
C13   C     C_R   0.647632 0.168627 0.413165 0.014838
C14   C     C_R   0.360179 0.825410 0.578346 0.015247
C15   C     C_R   0.384524 0.193091 0.461221 0.009591
C16   C     C_R   0.627909 0.814474 0.550630 0.006434
C17   C     C_R   0.134433 0.635716 0.499045 -0.134516
C18   C     C_R   0.868472 0.362094 0.500523 -0.099323
C19   C     C_R   0.867916 0.636498 0.498684 -0.082452
C20   C     C_R   0.139992 0.370982 0.504934 -0.089246
C21   C     C_R   0.634458 0.136772 0.498581 -0.144296
C22   C     C_R   0.363043 0.867475 0.501784 -0.122574
C23   C     C_R   0.367245 0.136005 0.498738 -0.079170
C24   C     C_R   0.639148 0.870340 0.505142 -0.086617
C25   C     C_R   0.175110 0.643803 0.578857 0.125622
C26   C     C_R   0.818835 0.360710 0.432381 0.102387
C27   C     C_R   0.807772 0.626063 0.537393 0.087963
C28   C     C_R   0.199916 0.385372 0.465883 0.099717
C29   C     C_R   0.670798 0.149976 0.581384 0.095212
C30   C     C_R   0.314731 0.867774 0.430821 0.123449
C31   C     C_R   0.307615 0.127153 0.540251 0.086329
C32   C     C_R   0.700177 0.885803 0.471711 0.093911
C33   C     C_R   0.211550 0.697641 0.586049 0.095404
C34   C     C_R   0.787660 0.305082 0.415950 0.113702
C35   C     C_R   0.768606 0.676813 0.557259 0.108837
C36   C     C_R   0.247303 0.338125 0.460985 0.091444
C37   C     C_R   0.729511 0.180840 0.572659 0.094701
C38   C     C_R   0.276265 0.815604 0.421639 0.096725
C39   C     C_R   0.270718 0.179021 0.562243 0.114600
C40   C     C_R   0.747014 0.838389 0.464747 0.092213
C41   C     C_R   0.221123 0.732841 0.503252 -0.051345
C42   C     C_R   0.786389 0.261857 0.490696 -0.030544
C43   C     C_R   0.781523 0.733851 0.511914 -0.034469
C44   C     C_R   0.237279 0.282898 0.513965 -0.036316
C45   C     C_R   0.738854 0.216611 0.490660 -0.046190
C46   C     C_R   0.267943 0.778600 0.502860 -0.041478
C47   C     C_R   0.283012 0.234988 0.513707 -0.033940
C48   C     C_R   0.735618 0.781544 0.512661 -0.037234
C49   C     C_R   0.185192 0.721556 0.420253 0.080919
C50   C     C_R   0.829087 0.267072 0.568616 0.034926
C51   C     C_R   0.839462 0.742331 0.463840 0.044358
C52   C     C_R   0.180376 0.274148 0.565205 0.045762
C53   C     C_R   0.697718 0.210771 0.411301 0.081659
C54   C     C_R   0.306807 0.787182 0.583901 0.060655
C55   C     C_R   0.339852 0.241840 0.462406 0.040622
C56   C     C_R   0.677377 0.771320 0.559684 0.050333
C57   C     C_R   0.241153 0.716375 0.671983 0.199276
C58   C     C_R   0.752863 0.293752 0.331518 0.181155
C59   C     C_R   0.715939 0.672247 0.618099 0.209465
C60   C     C_R   0.303835 0.342798 0.405704 0.218634
C61   C     C_R   0.777603 0.180243 0.644932 0.212725
C62   C     C_R   0.243324 0.801059 0.336667 0.197354
C63   C     C_R   0.220280 0.176436 0.627143 0.209265
C64   C     C_R   0.804100 0.844563 0.411614 0.215170
C65   C     C_R   0.826373 0.223860 0.642512 -0.234516
C66   C     C_R   0.196878 0.755567 0.337923 -0.203941
C67   C     C_R   0.174205 0.222782 0.624818 -0.235704
C68   C     C_R   0.850332 0.797695 0.415849 -0.224611
C69   C     C_R   0.290728 0.758658 0.668926 -0.224848
C70   C     C_R   0.708013 0.246753 0.330310 -0.207150
C71   C     C_R   0.669425 0.718158 0.614843 -0.235462
C72   C     C_R   0.350164 0.296044 0.411480 -0.224254
H1    H     H_    0.861254 0.224148 0.700031 0.147024
H2    H     H_    0.171713 0.745339 0.272418 0.178777
H3    H     H_    0.133923 0.218391 0.671380 0.150008
H4    H     H_    0.893994 0.803854 0.376936 0.148151
H5    H     H_    0.314579 0.771317 0.734412 0.165757
H6    H     H_    0.680263 0.239698 0.265973 0.180588
H7    H     H_    0.627597 0.712213 0.657950 0.151726
H8    H     H_    0.393294 0.301015 0.370946 0.147264
C73   C     C_R   0.943534 0.507685 0.797429 0.171333
C74   C     C_R   0.056840 0.500728 0.202184 0.152375
C75   C     C_R   0.056141 0.491221 0.801342 0.151563
C76   C     C_R   0.943153 0.501523 0.199187 0.162961
C77   C     C_R   0.443691 0.004521 0.798127 0.166098
C78   C     C_R   0.556952 0.000810 0.202432 0.151017
C79   C     C_R   0.557264 0.996217 0.800192 0.159152
C80   C     C_R   0.443263 0.001849 0.198716 0.163925
N1    N     N_R   1.000000 0.500000 0.750030 -0.137364
N2    N     N_R   0.000000 0.500000 0.249970 -0.138406
N3    N     N_R   0.500000 0.000000 0.750030 -0.138062
N4    N     N_R   0.500000 0.000000 0.249970 -0.138287
C81   C     C_R   0.058981 0.500675 0.901330 -0.003718
C82   C     C_R   0.941502 0.507899 0.098923 -0.001948
C83   C     C_R   0.941675 0.504146 0.897707 -0.007486
C84   C     C_R   0.057976 0.508955 0.102302 -0.002526
C85   C     C_R   0.560140 0.004522 0.900939 -0.005556
C86   C     C_R   0.441469 0.010698 0.098106 -0.004765
C87   C     C_R   0.443576 0.015577 0.896901 -0.002623
C88   C     C_R   0.558487 0.010673 0.102725 -0.002100
C89   C     C_R   0.000230 0.505261 0.949652 -0.077120
C90   C     C_R   0.999895 0.507278 0.050184 -0.076959
C91   C     C_R   0.501565 0.011550 0.949241 -0.077141
C92   C     C_R   0.500499 0.011819 0.050061 -0.077142
C93   C     C_R   0.117957 0.506446 0.954530 0.188607
C94   C     C_R   0.882934 0.512292 0.045828 0.195260
C95   C     C_R   0.882857 0.502579 0.947444 0.193582
C96   C     C_R   0.115979 0.517600 0.053136 0.206204
C97   C     C_R   0.619027 0.007923 0.955075 0.188299
C98   C     C_R   0.383125 0.020151 0.043846 0.190819
C99   C     C_R   0.386239 0.029552 0.944763 0.208202
C100  C     C_R   0.616937 0.018201 0.054016 0.206021
N5    N     N_3   0.100707 0.668038 0.335160 -0.475876
H9    H     H_    0.113695 0.627382 0.301319 0.208185
H10   H     H_    0.052204 0.668250 0.351558 0.227992
N6    N     N_3   0.922658 0.318600 0.642315 -0.423431
H11   H     H_    0.900360 0.324584 0.707027 0.185036
H12   H     H_    0.948460 0.277116 0.644336 0.174601
N7    N     N_3   0.947228 0.702106 0.424015 -0.474043
H13   H     H_    0.969969 0.738792 0.457885 0.186365
H14   H     H_    0.942066 0.712002 0.352018 0.185181
N8    N     N_3   0.068604 0.305372 0.595423 -0.447020
H15   H     H_    0.073222 0.304336 0.668915 0.183499
H16   H     H_    0.051799 0.262953 0.571280 0.180928
N9    N     N_3   0.607398 0.163639 0.330072 -0.475908
H17   H     H_    0.615226 0.121225 0.298062 0.209901
H18   H     H_    0.559288 0.169686 0.347268 0.221579
N10   N     N_3   0.409527 0.823153 0.651214 -0.446484
H19   H     H_    0.413139 0.778539 0.679208 0.166392
H20   H     H_    0.453561 0.827356 0.618773 0.212911
N11   N     N_3   0.446482 0.199668 0.419749 -0.469092
H21   H     H_    0.470200 0.236596 0.451469 0.182473
H22   H     H_    0.440396 0.208429 0.347558 0.186034
N12   N     N_3   0.565494 0.802571 0.587332 -0.482415
H23   H     H_    0.568919 0.799197 0.660811 0.183230
H24   H     H_    0.548267 0.761283 0.559469 0.179861
C101  C     C_3   0.190635 0.589925 0.644036 -0.888543
H25   H     H_    0.240679 0.591890 0.671938 0.243623
H26   H     H_    0.156705 0.589161 0.703120 0.254400
H27   H     H_    0.188631 0.546003 0.605116 0.223785
C102  C     C_3   0.782804 0.419915 0.410272 -0.948194
H28   H     H_    0.740468 0.413994 0.362966 0.265928
H29   H     H_    0.763922 0.438009 0.477256 0.244207
H30   H     H_    0.814074 0.454532 0.379323 0.242451
C103  C     C_3   0.781012 0.561569 0.534572 -0.941628
H31   H     H_    0.800903 0.532803 0.592900 0.242432
H32   H     H_    0.727840 0.561141 0.535558 0.263427
H33   H     H_    0.793875 0.540776 0.466564 0.232493
C104  C     C_3   0.215311 0.452365 0.445188 -0.917513
H34   H     H_    0.261716 0.464505 0.479628 0.247924
H35   H     H_    0.215993 0.461819 0.368703 0.252271
H36   H     H_    0.179862 0.484880 0.474227 0.213812
C105  C     C_3   0.639757 0.147476 0.677295 -0.836501
H37   H     H_    0.660529 0.182226 0.725764 0.234866
H38   H     H_    0.587990 0.159808 0.671150 0.250849
H39   H     H_    0.645553 0.101385 0.710105 0.242664
C106  C     C_3   0.289465 0.928413 0.391012 -0.918324
H40   H     H_    0.240189 0.936607 0.416937 0.248507
H41   H     H_    0.318991 0.967284 0.414704 0.232625
H42   H     H_    0.287210 0.930269 0.313581 0.254109
C107  C     C_3   0.277217 0.064223 0.533992 -0.948062
H43   H     H_    0.305360 0.028938 0.573918 0.240442
H44   H     H_    0.226749 0.063154 0.556637 0.267132
H45   H     H_    0.274671 0.052122 0.458507 0.236359
C108  C     C_3   0.717205 0.953440 0.461195 -0.907384
H46   H     H_    0.765099 0.961984 0.493773 0.248058
H47   H     H_    0.715634 0.968185 0.386408 0.247227
H48   H     H_    0.684142 0.984151 0.499716 0.218621
C109  C     C_3   0.217229 0.698099 0.768050 -0.921905
H49   H     H_    0.165818 0.685331 0.764725 0.254850
H50   H     H_    0.246844 0.659807 0.798399 0.241348
H51   H     H_    0.220348 0.737713 0.817002 0.239157
C110  C     C_3   0.764872 0.327584 0.240169 -0.930941
H52   H     H_    0.721631 0.354900 0.218704 0.240587
H53   H     H_    0.806804 0.358555 0.245346 0.259804
H54   H     H_    0.775217 0.293777 0.183996 0.242168
C111  C     C_3   0.710316 0.623187 0.693724 -0.929665
H55   H     H_    0.756480 0.598758 0.707901 0.259139
H56   H     H_    0.696975 0.644819 0.761377 0.237790
H57   H     H_    0.672429 0.589835 0.673725 0.242846
C112  C     C_3   0.314137 0.391567 0.330733 -0.913899
H58   H     H_    0.327114 0.436252 0.362667 0.247877
H59   H     H_    0.354316 0.379449 0.283763 0.229452
H60   H     H_    0.271012 0.395512 0.283880 0.247227
C113  C     C_3   0.782193 0.130899 0.720536 -0.935794
H61   H     H_    0.763496 0.148738 0.787851 0.243671
H62   H     H_    0.756058 0.088736 0.699453 0.251014
H63   H     H_    0.833061 0.116559 0.732316 0.239806
C114  C     C_3   0.262088 0.825863 0.241443 -0.932238
H64   H     H_    0.228698 0.863558 0.218933 0.245211
H65   H     H_    0.312552 0.841867 0.242102 0.247686
H66   H     H_    0.259528 0.788942 0.187728 0.238631
C115  C     C_3   0.216692 0.128952 0.705353 -0.939493
H67   H     H_    0.260342 0.099511 0.710562 0.265289
H68   H     H_    0.212540 0.152576 0.774153 0.244095
H69   H     H_    0.173811 0.099631 0.694524 0.241231
C116  C     C_3   0.814565 0.895298 0.339831 -0.911528
H70   H     H_    0.829517 0.938516 0.374552 0.247073
H71   H     H_    0.853313 0.883270 0.290318 0.230549
H72   H     H_    0.770633 0.902273 0.295414 0.248602
N13   N     N_3   0.886087 0.524059 0.746777 -0.473739
H73   H     H_    0.887817 0.570464 0.727305 0.217343
H74   H     H_    0.879350 0.494778 0.690025 0.233558
N14   N     N_3   0.115148 0.482869 0.249828 -0.471685
H75   H     H_    0.122355 0.509991 0.308893 0.230425
H76   H     H_    0.112423 0.436325 0.268224 0.219787
N15   N     N_3   0.110839 0.466909 0.755504 -0.470741
H77   H     H_    0.118834 0.492355 0.694869 0.239845
H78   H     H_    0.101863 0.420889 0.739363 0.213121
N16   N     N_3   0.885380 0.486287 0.245074 -0.473395
H79   H     H_    0.878425 0.516083 0.300810 0.227820
H80   H     H_    0.888806 0.440334 0.266662 0.216783
N17   N     N_3   0.384677 0.987253 0.752964 -0.461948
H81   H     H_    0.376322 0.014491 0.693663 0.226907
H82   H     H_    0.387804 0.940921 0.734481 0.230120
N18   N     N_3   0.614916 0.981539 0.249943 -0.470581
H83   H     H_    0.622364 0.007645 0.310062 0.229947
H84   H     H_    0.611426 0.934819 0.266928 0.217498
N19   N     N_3   0.613260 0.975951 0.752701 -0.474963
H85   H     H_    0.619970 0.001612 0.691712 0.235711
H86   H     H_    0.608056 0.929303 0.737143 0.213045
N20   N     N_3   0.385928 0.986459 0.245129 -0.481162
H87   H     H_    0.378764 0.015879 0.301215 0.236746
H88   H     H_    0.390195 0.940533 0.266519 0.222592
C117  C     C_3   0.182995 0.502790 0.907642 -0.883215
H89   H     H_    0.224714 0.509446 0.955657 0.237871
H90   H     H_    0.190752 0.455889 0.879368 0.253746
H91   H     H_    0.185990 0.538302 0.851258 0.246110
C118  C     C_3   0.820989 0.533790 0.090385 -0.885926
H92   H     H_    0.788775 0.557495 0.038137 0.240885
H93   H     H_    0.795010 0.494013 0.120648 0.252797
H94   H     H_    0.830905 0.568789 0.145304 0.247145
C119  C     C_3   0.820345 0.483284 0.899675 -0.892347
H95   H     H_    0.829241 0.446704 0.847119 0.245209
H96   H     H_    0.786956 0.462189 0.950481 0.241903
H97   H     H_    0.795941 0.523711 0.865943 0.251776
C120  C     C_3   0.173241 0.546976 0.102556 -0.893851
H98   H     H_    0.209773 0.511353 0.122288 0.249691
H99   H     H_    0.194819 0.582543 0.056508 0.238118
H100  H     H_    0.159070 0.572883 0.165956 0.238531
C121  C     C_3   0.684293 0.002033 0.909320 -0.882707
H101  H     H_    0.725850 0.005441 0.958557 0.239450
H102  H     H_    0.689752 0.955450 0.878780 0.250944
H103  H     H_    0.689851 0.038605 0.854965 0.246655
C122  C     C_3   0.317562 0.021763 0.089480 -0.881165
H104  H     H_    0.276747 0.030510 0.040107 0.238639
H105  H     H_    0.306911 0.975946 0.120443 0.249083
H106  H     H_    0.316042 0.058424 0.143537 0.249036
C123  C     C_3   0.331493 0.062527 0.892449 -0.900246
H107  H     H_    0.312151 0.100599 0.935668 0.240246
H108  H     H_    0.348096 0.085746 0.827469 0.246431
H109  H     H_    0.292666 0.029671 0.874459 0.253301
C124  C     C_3   0.675089 0.045131 0.104534 -0.893414
H110  H     H_    0.698462 0.080017 0.059234 0.238083
H111  H     H_    0.661548 0.071222 0.167975 0.238624
H112  H     H_    0.710013 0.008083 0.124379 0.249930

loop_
_geom_bond_atom_site_label_1
_geom_bond_atom_site_label_2
_geom_bond_distance
_ccdc_geom_bond_type
C111  H57   1.110000 S    
C9    N5    1.438697 S    
C68   H4    1.081838 S    
C103  H31   1.104391 S    
C59   C111  1.511900 S    
C17   C25   1.414229 A    
O10   Zn4   2.023059 S    
O2    C2    1.292633 A    
C104  H35   1.103025 S    
C104  H34   1.109604 S    
C28   C104  1.518848 S    
C93   C117  1.522723 S    
N19   H85   1.037380 S    
C14   C22   1.415338 A    
C23   C31   1.399166 A    
N14   H75   1.037407 S    
C114  H66   1.111327 S    
C29   C105  1.518602 S    
N9    H17   1.042735 S    
C108  H46   1.109292 S    
C47   C55   1.410199 A    
C74   N14   1.427755 S    
C91   C92   1.431042 A    
C12   C52   1.390383 A    
C78   N4    1.376270 A    
C107  H43   1.105858 S    
O10   C6    1.293371 A    
C116  H72   1.109710 S    
C10   C18   1.410305 A    
C118  H92   1.110350 S    
C94   C95   1.413400 A    
O7    Zn2   2.029892 S    
C78   N18   1.429220 S    
C32   C40   1.417257 A    
O12   Zn4   2.008363 S    
C94   C118  1.519507 S    
C83   C89   1.413535 A    
C54   C69   1.398920 A    
C19   C27   1.397253 A    
C75   C81   1.435230 A    
C39   C63   1.411644 A    
C53   C70   1.404683 A    
C48   C56   1.414215 A    
C38   C62   1.414990 A    
C121  H101  1.105307 S    
C82   C94   1.423627 A    
C108  H47   1.105421 S    
O6    Zn1   2.035294 S    
C81   C93   1.436520 A    
C75   N15   1.422669 S    
C46   C54   1.408036 A    
C70   H6    1.083692 S    
C124  H112  1.110467 S    
C29   C37   1.406680 A    
N18   H83   1.037838 S    
O13   C7    1.302632 A    
O3    C2    1.291036 A    
C109  H50   1.109639 S    
C120  H98   1.110455 S    
C112  H58   1.107199 S    
O14   C8    1.305795 A    
C111  H56   1.111115 S    
C27   C35   1.398812 A    
C20   C28   1.411955 A    
C16   C56   1.389864 A    
C51   C68   1.398189 A    
C10   C50   1.406206 A    
C43   C48   1.403327 A    
C98   C122  1.523129 S    
C65   H1    1.082292 S    
C41   C46   1.397979 A    
C38   C46   1.413176 A    
C101  H25   1.109365 S    
C60   C112  1.513592 S    
C11   C19   1.396353 A    
C113  H63   1.111076 S    
C26   C102  1.509922 S    
C35   C43   1.420242 A    
C93   C96   1.423100 A    
N20   H88   1.041849 S    
N11   H21   1.045567 S    
C36   C44   1.428214 A    
O13   Zn4   2.035296 S    
C80   N20   1.416168 S    
O11   Zn3   2.008363 S    
O14   Zn3   2.035294 S    
C15   C23   1.396896 A    
N17   H81   1.035189 S    
Zn2   N2    2.026407 S    
C116  H71   1.111149 S    
C12   N8    1.437774 S    
O9    Zn3   2.023059 S    
Zn1   N1    2.026405 S    
C97   C100  1.424651 A    
C39   C47   1.418667 A    
C106  H42   1.099027 S    
O16   Zn3   2.029895 S    
C105  H38   1.110589 S    
C77   N3    1.371719 A    
C83   C95   1.426342 A    
Zn3   N3    2.026405 S    
N12   H24   1.045909 S    
C101  H26   1.107035 S    
C95   C119  1.520204 S    
C123  H107  1.110544 S    
N11   H22   1.045231 S    
O1    Zn1   2.023059 S    
C8    C21   1.472362 S    
C112  H59   1.111145 S    
C42   C50   1.411450 A    
C109  H49   1.108896 S    
C14   N10   1.444110 S    
C97   C121  1.522883 S    
C21   C29   1.417933 A    
C63   C115  1.511163 S    
C114  H64   1.110028 S    
C9    C49   1.391306 A    
C107  H44   1.105740 S    
C66   H2    1.083764 S    
O4    Zn2   2.008363 S    
C118  H93   1.110424 S    
O8    C3    1.292924 A    
C18   C26   1.402655 A    
N9    H18   1.043624 S    
C16   N12   1.434732 S    
C30   C38   1.398215 A    
C44   C47   1.404209 A    
C80   C86   1.438376 A    
O3    Zn1   2.008363 S    
C30   C106  1.513751 S    
C25   C101  1.513321 S    
N10   H19   1.044826 S    
O2    Zn2   2.023059 S    
C45   C53   1.409006 A    
C37   C45   1.410600 A    
C121  H102  1.108983 S    
C108  H48   1.109090 S    
C102  H29   1.109129 S    
C34   C42   1.410553 A    
C106  H41   1.099388 S    
C116  H70   1.107347 S    
C105  H37   1.109856 S    
O5    C3    1.303083 A    
C79   N19   1.426504 S    
O12   C5    1.293969 A    
O7    C4    1.292762 A    
Zn4   N4    2.026407 S    
C80   N4    1.375921 A    
C69   H5    1.083730 S    
C120  H99   1.110564 S    
C1    C20   1.439574 S    
C64   C68   1.394804 A    
C60   C72   1.395108 A    
C109  H51   1.111266 S    
C33   C57   1.419805 A    
C2    C19   1.437067 S    
N13   H73   1.043010 S    
C86   C98   1.438444 A    
C3    C18   1.457868 S    
C121  H103  1.110196 S    
C5    C24   1.437028 S    
C35   C59   1.412761 A    
C79   N3    1.378813 A    
C119  H96   1.110069 S    
N15   H77   1.035242 S    
C99   C123  1.519212 S    
C40   C64   1.427035 A    
C115  H67   1.107778 S    
C110  H54   1.110679 S    
C57   C69   1.388505 A    
C26   C34   1.394923 A    
C110  H53   1.108507 S    
C124  H110  1.110592 S    
C89   C90   1.427499 A    
N19   H86   1.043968 S    
C7    C22   1.453785 S    
C86   C92   1.417868 A    
C76   N16   1.419642 S    
N16   H80   1.042094 S    
C52   C67   1.401740 A    
N17   H82   1.042984 S    
N12   H23   1.045447 S    
C43   C51   1.410563 A    
C84   C90   1.406774 A    
C87   C99   1.417258 A    
C22   C30   1.409775 A    
C76   C82   1.427759 A    
O4    C1    1.293764 A    
C55   C72   1.395552 A    
C13   C53   1.393950 A    
O15   C8    1.298955 A    
N15   H78   1.044079 S    
C14   C54   1.396085 A    
C106  H40   1.110579 S    
C103  H33   1.105300 S    
C10   N6    1.436126 S    
C12   C20   1.392212 A    
C123  H108  1.109435 S    
N5    H9    1.044103 S    
C73   C83   1.425406 A    
C112  H60   1.109553 S    
N8    H16   1.045703 S    
C16   C24   1.392243 A    
C31   C39   1.398326 A    
C32   C108  1.519721 S    
C33   C41   1.414044 A    
C102  H30   1.093345 S    
C85   C97   1.437602 A    
C72   H8    1.081830 S    
N6    H12   1.044386 S    
C61   C113  1.510264 S    
C122  H104  1.105312 S    
C115  H69   1.110312 S    
C41   C49   1.407489 A    
C28   C36   1.420208 A    
C113  H61   1.109840 S    
C67   H3    1.082372 S    
C114  H65   1.109985 S    
C118  H94   1.110473 S    
C107  H45   1.105230 S    
C42   C45   1.400563 A    
N20   H87   1.036629 S    
C122  H106  1.110379 S    
C88   C100  1.421685 A    
C77   N17   1.429792 S    
C59   C71   1.383655 A    
C15   C55   1.403345 A    
C74   C84   1.427451 A    
N10   H20   1.038656 S    
N6    H11   1.045489 S    
C31   C107  1.512816 S    
C117  H91   1.109009 S    
N14   H76   1.043317 S    
C63   C67   1.384003 A    
C119  H97   1.110334 S    
C105  H39   1.104265 S    
N7    H13   1.045642 S    
C24   C32   1.407909 A    
C87   C91   1.407512 A    
C101  H27   1.106243 S    
O16   C7    1.290394 A    
O6    C4    1.304801 A    
O11   C6    1.291664 A    
O1    C1    1.290143 A    
C36   C60   1.431423 A    
C75   N1    1.376679 A    
C120  H100  1.108272 S    
C57   C109  1.511227 S    
C96   C120  1.519759 S    
C62   C114  1.509757 S    
C117  H90   1.108800 S    
C98   C99   1.421542 A    
C85   C91   1.418810 A    
C115  H68   1.110875 S    
C13   C21   1.422533 A    
N16   H79   1.037228 S    
N13   H74   1.038089 S    
C122  H105  1.109428 S    
C62   C66   1.388558 A    
O8    Zn1   2.029895 S    
C76   N2    1.374358 A    
C4    C17   1.461384 S    
N7    H14   1.045310 S    
O9    C5    1.288785 A    
O15   Zn4   2.029892 S    
C119  H95   1.110524 S    
C102  H28   1.107013 S    
C58   C70   1.389125 A    
C27   C103  1.511502 S    
C100  C124  1.519494 S    
C11   C51   1.402522 A    
C124  H111  1.107227 S    
N18   H84   1.043523 S    
C50   C65   1.402878 A    
C78   C88   1.429908 A    
C44   C52   1.415928 A    
C73   N13   1.424869 S    
C111  H55   1.108323 S    
C37   C61   1.419642 A    
C15   N11   1.436637 S    
C74   N2    1.376010 A    
C64   C116  1.513413 S    
C58   C110  1.510215 S    
C56   C71   1.401301 A    
C25   C33   1.402151 A    
O5    Zn2   2.035296 S    
C82   C90   1.410931 A    
C88   C92   1.408115 A    
C81   C89   1.417604 A    
C40   C48   1.427256 A    
C103  H32   1.108267 S    
C110  H52   1.110302 S    
C84   C96   1.419979 A    
C123  H109  1.110377 S    
C9    C17   1.419332 A    
N5    H10   1.041309 S    
N8    H15   1.045287 S    
C77   C87   1.423800 A    
C104  H36   1.104851 S    
C71   H7    1.082257 S    
C117  H89   1.105171 S    
C113  H62   1.109072 S    
C73   N1    1.375877 A    
C79   C85   1.442350 A    
C6    C23   1.437883 S    
C61   C65   1.395301 A    
C49   C66   1.402762 A    
C13   N9    1.438649 S    
C11   N7    1.434715 S    
C34   C58   1.412627 A    
