data_mof_unit_53553.cif
_audit_creation_date              2013-03-05T16:25:59-0500
_audit_creation_method            fapswitch 2.2
_symmetry_space_group_name_H-M    P1
_symmetry_Int_Tables_number       1
_space_group_crystal_system       triclinic
_cell_length_a                    18.316954
_cell_length_b                    18.294424
_cell_length_c                    18.4415
_cell_angle_alpha                 120.221404
_cell_angle_beta                  90.028806
_cell_angle_gamma                 119.643728
_cell_volume                      4377.40477624

loop_
_atom_site_label
_atom_site_type_symbol
_atom_site_description
_atom_site_fract_x
_atom_site_fract_y
_atom_site_fract_z
_atom_type_partial_charge
Zn1   Zn    Zn3+2 0.956630 0.413250 0.869870 0.953592
Zn2   Zn    Zn3+2 0.130130 0.586750 0.043370 1.038749
Zn3   Zn    Zn3+2 0.956630 0.413250 0.043380 0.995442
Zn4   Zn    Zn3+2 0.956610 0.586750 0.043370 1.047359
O1    O     O_3   0.000000 0.500000 0.000000 -0.508215
O2    O     O_R   0.055050 0.731580 0.115780 -0.634507
O3    O     O_R   0.884220 0.268410 0.823490 -0.643886
O4    O     O_R   0.176520 0.560720 0.944920 -0.626757
O5    O     O_R   0.884200 0.439290 0.115800 -0.647768
O6    O     O_R   0.176530 0.560720 0.115800 -0.610859
O7    O     O_R   0.884180 0.560710 0.944910 -0.605684
O8    O     O_R   0.055100 0.439290 0.115810 -0.649740
O9    O     O_R   0.884190 0.439280 0.823480 -0.659385
O10   O     O_R   0.055090 0.439280 0.823480 -0.659302
O11   O     O_R   0.884180 0.560710 0.115790 -0.603266
O12   O     O_R   0.176500 0.731590 0.115790 -0.607246
O13   O     O_R   0.884220 0.268420 0.944930 -0.634811
C1    C     C_R   0.139752 0.779761 0.139898 0.826845
C2    C     C_R   0.859826 0.220052 0.860030 0.827243
C3    C     C_R   0.139425 0.502270 0.859632 0.790766
C4    C     C_R   0.860344 0.500575 0.140516 0.851288
C5    C     C_R   0.139852 0.500726 0.140572 0.818827
C6    C     C_R   0.856903 0.498442 0.860963 0.842492
H1    H     H_    0.756905 0.350366 0.691579 0.190171
C7    C     C_R   0.805756 0.654776 0.933746 0.345688
C8    C     C_R   0.825400 0.751271 0.961950 -0.262914
H2    H     H_    0.842095 0.809129 0.031532 0.224696
C9    C     C_R   0.821249 0.773288 0.900796 -0.221426
H3    H     H_    0.841450 0.850272 0.924897 0.222750
C10   C     C_R   0.788474 0.696012 0.809407 0.358888
C11   C     C_R   0.761049 0.595117 0.780313 -0.095832
C12   C     C_R   0.787622 0.581896 0.842186 -0.057841
C13   C     C_R   0.795798 0.497634 0.808249 -0.082715
C14   C     C_R   0.753537 0.416254 0.718132 -0.243817
C15   C     C_R   0.704589 0.416734 0.661299 0.300412
C16   C     C_R   0.706237 0.506083 0.692677 -0.143528
C17   C     C_R   0.784983 0.052707 0.713263 0.135776
C18   C     C_R   0.797626 0.108518 0.803911 -0.121922
C19   C     C_R   0.743486 0.055927 0.838108 -0.255442
H4    H     H_    0.746493 0.098806 0.906610 0.212983
C20   C     C_R   0.685115 0.947643 0.784148 0.313294
C21   C     C_R   0.684620 0.891753 0.695619 -0.182058
C22   C     C_R   0.730314 0.946608 0.660562 0.022012
C23   C     C_3   0.791097 0.937765 0.607973 -0.342078
C24   C     C_3   0.851760 0.054943 0.666441 -0.460960
H5    H     H_    0.820630 0.901359 0.617274 0.227296
H6    H     H_    0.760532 0.904696 0.537685 0.254493
H7    H     H_    0.916572 0.086875 0.710026 0.206504
H8    H     H_    0.856475 0.089130 0.629652 0.213747
C25   C     C_R   0.796292 0.583221 0.244206 0.056075
C26   C     C_R   0.812581 0.507459 0.203964 -0.120261
C27   C     C_R   0.789658 0.443644 0.233126 -0.250456
H9    H     H_    0.808924 0.390499 0.210029 0.213596
C28   C     C_R   0.739730 0.445688 0.290865 0.302402
C29   C     C_R   0.709061 0.510327 0.317180 -0.228405
C30   C     C_R   0.746279 0.585125 0.299924 0.035353
C31   C     C_3   0.708866 0.626394 0.271165 0.149419
C32   C     C_3   0.763181 0.622263 0.208228 -0.398493
H10   H     H_    0.635549 0.573431 0.237085 0.183471
H11   H     H_    0.721223 0.563409 0.136863 0.230402
H12   H     H_    0.817508 0.699083 0.225314 0.266902
C33   C     C_R   0.160956 0.948581 0.220881 0.005170
C34   C     C_R   0.196074 0.890885 0.194880 -0.046463
C35   C     C_R   0.289765 0.944977 0.223813 -0.130974
H13   H     H_    0.321241 0.904257 0.205580 0.230990
C36   C     C_R   0.344075 0.053208 0.277656 -0.152421
H14   H     H_    0.415649 0.092598 0.299498 0.215087
C37   C     C_R   0.305556 0.108989 0.303104 -0.072158
C38   C     C_R   0.213279 0.052764 0.271862 0.024975
C39   C     C_3   0.134973 0.059589 0.273772 0.503628
C40   C     C_3   0.075589 0.940276 0.215522 -0.496619
H15   H     H_    0.036682 0.905826 0.249046 0.243153
H16   H     H_    0.037551 0.903733 0.146424 0.218506
C41   C     C_R   0.287165 0.559632 0.220342 -0.019060
C42   C     C_R   0.195053 0.502642 0.198495 -0.061677
C43   C     C_R   0.156868 0.444449 0.233423 -0.182319
H17   H     H_    0.085565 0.399139 0.219412 0.192319
C44   C     C_R   0.210869 0.443456 0.286499 -0.160712
H18   H     H_    0.179528 0.397985 0.312260 0.202264
C45   C     C_R   0.303998 0.500317 0.305321 -0.055711
C46   C     C_R   0.339162 0.557154 0.270105 -0.027472
C47   C     C_3   0.423976 0.625542 0.261830 0.233404
C48   C     C_3   0.362683 0.624761 0.200841 0.232670
C49   C     C_R   0.284741 0.560130 0.836572 0.013112
C50   C     C_R   0.192977 0.505988 0.801656 -0.101907
C51   C     C_R   0.155995 0.454325 0.707827 0.081742
C52   C     C_R   0.211927 0.451614 0.655381 -0.210962
H19   H     H_    0.183505 0.410589 0.584285 0.199031
C53   C     C_R   0.303761 0.503339 0.694059 -0.062910
C54   C     C_R   0.337408 0.559100 0.785488 0.069810
C55   C     C_3   0.421122 0.626471 0.861271 -0.445950
C56   C     C_3   0.361359 0.628051 0.920087 0.121923
H20   H     H_    0.450267 0.584499 0.857860 0.182695
H21   H     H_    0.468252 0.701621 0.871472 0.275522
H22   H     H_    0.358560 0.590426 0.952844 0.102946
Zn5   Zn    Zn3+2 0.543330 0.586660 0.630080 1.064351
Zn6   Zn    Zn3+2 0.543320 0.586660 0.456570 1.027364
Zn7   Zn    Zn3+2 0.369830 0.413160 0.456580 1.050214
Zn8   Zn    Zn3+2 0.543350 0.413170 0.456590 1.109461
O14   O     O_3   0.499960 0.499910 0.499960 -0.537431
O15   O     O_R   0.615770 0.439200 0.384160 -0.584383
O16   O     O_R   0.444870 0.560630 0.676470 -0.625986
O17   O     O_R   0.615730 0.731500 0.555020 -0.658781
O18   O     O_R   0.323450 0.268330 0.384170 -0.598630
O19   O     O_R   0.444860 0.560620 0.384150 -0.633842
O20   O     O_R   0.615780 0.439200 0.555040 -0.577779
O21   O     O_R   0.323420 0.439190 0.384160 -0.628276
O22   O     O_R   0.615760 0.560630 0.676470 -0.639947
O23   O     O_R   0.615740 0.731500 0.676460 -0.562237
O24   O     O_R   0.444900 0.268330 0.384170 -0.637312
O25   O     O_R   0.615750 0.560630 0.384150 -0.621823
O26   O     O_R   0.323430 0.439200 0.555040 -0.635375
C57   C     C_R   0.642522 0.501703 0.362181 0.854848
C58   C     C_R   0.360131 0.500376 0.639638 0.821149
C59   C     C_R   0.637756 0.779911 0.640021 0.886109
C60   C     C_R   0.360319 0.220143 0.359795 0.840166
C61   C     C_R   0.360070 0.499744 0.359956 0.845303
C62   C     C_R   0.642629 0.501545 0.639223 0.870569
N1    N     N_R   0.720821 0.381354 0.320675 0.233473
O27   O     O_R   0.750727 0.423700 0.405187 -0.296024
O28   O     O_R   0.691984 0.285316 0.263687 -0.332359
N2    N     N_R   0.740459 0.732212 0.342774 0.250936
O29   O     O_R   0.822872 0.799794 0.395614 -0.370771
O30   O     O_R   0.686730 0.760677 0.351761 -0.376216
N3    N     N_R   0.787457 0.625927 0.994482 0.237143
O31   O     O_R   0.827809 0.695680 0.079748 -0.403781
O32   O     O_R   0.724052 0.531821 0.965606 -0.395860
N4    N     N_R   0.128144 0.107678 0.363158 0.209698
O33   O     O_R   0.119883 0.183920 0.395935 -0.337077
O34   O     O_R   0.134866 0.078165 0.412510 -0.389118
N5    N     N_R   0.126094 0.102181 0.227555 0.214667
O35   O     O_R   0.192475 0.153425 0.208195 -0.380060
O36   O     O_R   0.050739 0.088618 0.205333 -0.340408
C63   C     C_3   0.493466 0.730240 0.351988 -0.320915
C64   C     C_3   0.455711 0.773683 0.424653 -0.405406
C65   C     C_3   0.530071 0.878890 0.507003 -0.770896
H23   H     H_    0.578966 0.872394 0.534144 0.258449
H24   H     H_    0.564651 0.935161 0.490178 0.285205
H25   H     H_    0.501587 0.907881 0.558906 0.259111
H26   H     H_    0.407057 0.782114 0.400405 0.280554
H27   H     H_    0.421314 0.720673 0.444765 0.219552
H28   H     H_    0.538119 0.719493 0.379881 0.261449
H29   H     H_    0.536251 0.788285 0.338994 0.261098
N6    N     N_R   0.465580 0.572997 0.213671 0.197885
O37   O     O_R   0.447782 0.490977 0.206651 -0.410902
O38   O     O_R   0.529306 0.615866 0.187305 -0.368154
N7    N     N_R   0.380287 0.726703 0.238721 0.207672
O39   O     O_R   0.450617 0.795631 0.236636 -0.326929
O40   O     O_R   0.321663 0.745316 0.264602 -0.381045
C66   C     C_3   0.352342 0.569518 0.099924 -0.361777
C67   C     C_3   0.303021 0.451082 0.043691 -0.370229
C68   C     C_3   0.297848 0.406856 0.946721 -0.841269
H30   H     H_    0.257187 0.419572 0.915983 0.240252
H31   H     H_    0.365615 0.443437 0.941945 0.276697
H32   H     H_    0.265732 0.322486 0.909032 0.270480
H33   H     H_    0.336865 0.428940 0.069710 0.286865
H34   H     H_    0.233881 0.414179 0.044944 0.215304
H35   H     H_    0.314649 0.586031 0.070533 0.240407
H36   H     H_    0.419129 0.605140 0.093049 0.251841
C69   C     C_3   0.060720 0.407410 0.660685 -0.366691
C70   C     C_3   0.000251 0.291624 0.619993 -0.324730
C71   C     C_3   0.903265 0.247308 0.579935 -0.759475
H37   H     H_    0.878752 0.283426 0.632829 0.266750
H38   H     H_    0.896567 0.261292 0.529042 0.279027
H39   H     H_    0.861420 0.162802 0.547483 0.250739
H40   H     H_    0.021814 0.250421 0.566823 0.251771
H41   H     H_    0.005185 0.277456 0.671126 0.240545
H42   H     H_    0.034564 0.449768 0.705126 0.228226
H43   H     H_    0.059133 0.417498 0.606142 0.198791
N8    N     N_R   0.377878 0.729584 0.980176 0.257323
O41   O     O_R   0.379809 0.781724 0.950687 -0.329788
O42   O     O_R   0.387764 0.766957 0.063718 -0.316462
N9    N     N_R   0.792813 0.723847 0.748241 0.207455
O43   O     O_R   0.811245 0.680440 0.676756 -0.394277
O44   O     O_R   0.792783 0.803593 0.770571 -0.390445
N10   N     N_R   0.655423 0.326396 0.571620 0.212930
O45   O     O_R   0.684990 0.327499 0.507809 -0.275977
O46   O     O_R   0.595444 0.238188 0.557026 -0.374523
N11   N     N_R   0.627538 0.896897 0.820072 0.232184
O47   O     O_R   0.542986 0.826907 0.775107 -0.384972
O48   O     O_R   0.655841 0.932635 0.903024 -0.336664

loop_
_geom_bond_atom_site_label_1
_geom_bond_atom_site_label_2
_geom_bond_distance
_ccdc_geom_bond_type
C36   C37   1.410629 A    
C29   C30   1.397958 A    
C47   C63   1.559971 S    
C17   C24   1.493477 S    
Zn5   O16   1.942505 S    
O15   C57   1.274522 A    
C20   C21   1.421732 A    
C15   C16   1.416563 A    
C41   C48   1.504626 S    
C52   H19   1.084212 S    
N4    O33   1.301498 A    
O26   C58   1.278840 A    
C70   C71   1.526423 S    
C31   C32   1.526397 S    
C64   C65   1.525823 S    
C19   C20   1.406047 A    
C50   C51   1.437142 A    
O6    C5    1.280749 A    
C8    H2    1.082860 S    
O4    C3    1.290740 A    
Zn1   O1    1.955937 S    
C15   N10   1.432547 S    
C67   H34   1.109114 S    
C9    H3    1.082672 S    
N7    O40   1.302076 A    
C43   C44   1.404093 A    
C11   C16   1.415500 A    
C10   C11   1.425765 A    
Zn6   O25   1.938311 S    
C44   C45   1.411762 A    
C1    C34   1.440306 S    
C31   H10   1.111875 S    
C63   H28   1.110262 S    
N8    O41   1.302199 A    
C32   H11   1.111727 S    
O8    C5    1.279976 A    
C30   C31   1.495134 S    
O9    C6    1.296681 A    
C14   C15   1.385104 A    
C7    N3    1.437337 S    
Zn3   O8    1.941994 S    
C31   N2    1.464214 S    
O18   C60   1.274984 A    
N7    O39   1.301189 A    
C23   H5    1.112182 S    
C37   C38   1.389055 A    
C6    C13   1.471757 S    
C69   H43   1.112998 S    
C39   C40   1.546374 S    
Zn2   O12   1.932963 S    
C10   N9    1.440932 S    
C70   H40   1.111963 S    
C23   H6    1.111039 S    
C48   C66   1.561311 S    
Zn6   O19   1.941742 S    
C32   H12   1.111345 S    
N10   O46   1.300860 A    
C36   H14   1.083067 S    
Zn5   O22   1.937192 S    
C28   N1    1.433787 S    
O20   C62   1.270724 A    
O19   C61   1.280448 A    
C49   C54   1.348886 A    
C5    C42   1.445938 S    
C65   H25   1.110351 S    
C27   C28   1.402224 A    
C46   C47   1.507256 S    
C71   H38   1.110869 S    
N9    O44   1.301520 A    
C64   H26   1.105889 S    
O2    C1    1.278176 A    
Zn7   O26   1.943587 S    
C41   C42   1.390092 A    
C19   H4    1.083438 S    
C26   C27   1.405648 A    
C25   C32   1.491090 S    
O10   C3    1.274112 A    
C43   H17   1.082942 S    
C47   N6    1.469510 S    
C66   H36   1.109970 S    
C56   N8    1.463339 S    
C55   C56   1.541607 S    
C40   H16   1.112165 S    
C44   H18   1.083041 S    
C45   C46   1.391216 A    
C29   C57   1.463453 S    
N5    O36   1.301134 A    
C7    C8    1.401254 A    
N9    O43   1.301647 A    
Zn8   O24   1.940387 S    
C56   H22   1.106824 S    
H1    C14   1.084407 S    
Zn7   O21   1.942322 S    
N11   O47   1.301501 A    
C33   C38   1.350330 A    
C35   C36   1.402633 A    
C17   C22   1.375540 A    
O17   C59   1.285564 A    
C42   C43   1.411281 A    
C17   C18   1.392160 A    
O16   C58   1.279983 A    
C2    C18   1.451171 S    
O22   C62   1.289030 A    
C55   H20   1.111519 S    
C71   H39   1.109809 S    
C11   C12   1.411063 A    
C68   H32   1.110384 S    
C24   H8    1.110260 S    
C67   C68   1.526088 S    
C3    C50   1.455407 S    
C33   C34   1.385735 A    
C25   C26   1.390920 A    
O25   C57   1.284613 A    
Zn6   O17   1.937713 S    
C67   H33   1.105644 S    
C49   C50   1.389553 A    
Zn4   O7    1.945663 S    
Zn3   O5    1.938356 S    
C70   H41   1.110714 S    
N1    O28   1.301142 A    
C37   C60   1.440596 S    
C48   N7    1.470880 S    
N6    O38   1.301115 A    
N10   O45   1.300864 A    
Zn8   O15   1.946224 S    
C68   H31   1.110910 S    
O3    C2    1.282870 A    
C52   C53   1.406587 A    
C22   C23   1.492519 S    
N3    O31   1.301177 A    
Zn4   O2    1.940239 S    
Zn1   O9    1.937341 S    
C21   C22   1.395847 A    
C41   C46   1.354649 A    
N2    O30   1.299004 A    
N5    O35   1.301752 A    
Zn2   O6    1.942371 S    
O24   C60   1.276229 A    
C4    C26   1.453280 S    
Zn6   O14   1.954979 S    
C16   C62   1.468624 S    
C23   C24   1.519325 S    
C51   C52   1.410850 A    
C65   H24   1.110837 S    
C71   H37   1.111210 S    
C24   H7    1.112203 S    
C39   N4    1.468355 S    
Zn8   O20   1.945618 S    
C28   C29   1.424480 A    
C66   H35   1.110170 S    
Zn1   O3    1.937199 S    
C8    C9    1.388293 A    
C20   N11   1.436787 S    
Zn2   O4    1.943332 S    
C65   H23   1.109711 S    
Zn3   O1    1.954831 S    
N4    O34   1.302035 A    
N1    O27   1.301194 A    
N2    O29   1.302450 A    
C63   C64   1.542130 S    
Zn5   O23   1.937199 S    
Zn7   O14   1.953998 S    
Zn8   O14   1.939080 S    
N6    O37   1.301939 A    
C12   C13   1.430962 A    
Zn4   O11   1.946223 S    
C9    C10   1.400106 A    
C53   C58   1.441478 S    
C40   H15   1.111619 S    
C35   H13   1.083202 S    
C55   H21   1.111850 S    
O5    C4    1.275186 A    
C54   C55   1.489226 S    
C18   C19   1.405162 A    
O11   C4    1.280199 A    
N8    O42   1.300260 A    
C7    C12   1.426215 A    
Zn7   O18   1.932773 S    
Zn4   O1    1.939229 S    
Zn5   O14   1.955786 S    
C45   C61   1.445815 S    
O7    C6    1.266812 A    
C39   N5    1.467578 S    
O13   C2    1.283559 A    
C13   C14   1.394823 A    
C33   C40   1.492527 S    
Zn3   O13   1.937613 S    
C69   H42   1.109061 S    
C38   C39   1.498960 S    
C69   C70   1.534595 S    
C25   C30   1.375764 A    
O23   C59   1.282453 A    
C34   C35   1.413033 A    
Zn2   O1    1.953996 S    
C21   C59   1.457526 S    
C64   H27   1.110353 S    
C68   H30   1.110790 S    
O12   C1    1.272797 A    
C47   C48   1.578714 S    
N3    O32   1.301889 A    
C66   C67   1.544998 S    
C63   H29   1.110106 S    
Zn1   O10   1.942504 S    
C49   C56   1.493942 S    
C53   C54   1.381640 A    
C51   C69   1.517776 S    
O21   C61   1.280452 A    
C27   H9    1.083467 S    
N11   O48   1.301313 A    
