data_mof_unit_29871.cif
_audit_creation_date              2012-10-26T21:32:55-0400
_audit_creation_method            fapswitch 2.2
_symmetry_space_group_name_H-M    P1
_symmetry_Int_Tables_number       1
_space_group_crystal_system       triclinic
_cell_length_a                    28.168608
_cell_length_b                    18.486214
_cell_length_c                    16.945951
_cell_angle_alpha                 90.360907
_cell_angle_beta                  60.982715
_cell_angle_gamma                 90.107477
_cell_volume                      7716.43861949

loop_
_atom_site_label
_atom_site_type_symbol
_atom_type_description
_atom_site_fract_x
_atom_site_fract_y
_atom_site_fract_z
_atom_type_partial_charge
C1    C     C_R   0.700894 0.266296 0.676820 1.004905
C2    C     C_R   0.931037 0.612964 0.553187 0.437261
C3    C     C_R   0.067105 0.893219 0.940378 0.930460
C4    C     C_R   0.571672 0.603129 0.936548 0.992641
C5    C     C_R   0.424817 0.401083 0.066992 0.970694
C6    C     C_R   0.427081 0.601429 0.064920 0.974117
C7    C     C_R   0.572753 0.398254 0.935311 0.988508
C8    C     C_R   0.549652 0.997704 0.502077 -0.026454
C9    C     C_R   0.452823 0.002688 0.490551 -0.039848
C10   C     C_R   0.050732 0.492255 0.496580 -0.041473
C11   C     C_R   0.953219 0.491975 0.487897 -0.032611
C12   C     C_R   0.539250 0.057907 0.460335 -0.007843
C13   C     C_R   0.982368 0.385458 0.390520 0.426269
C14   C     C_R   0.463770 0.942290 0.531084 -0.019912
C15   C     C_R   0.491996 0.057954 0.449535 0.002211
C16   C     C_R   0.510451 0.942427 0.542889 -0.015087
C17   C     C_R   0.012639 0.548478 0.539581 0.003140
C18   C     C_R   0.990622 0.434089 0.448222 -0.009890
C19   C     C_R   0.965068 0.551082 0.529952 -0.006415
C20   C     C_R   0.037240 0.431419 0.459771 -0.018416
C21   C     C_R   0.609010 0.936276 0.549917 -0.027231
C22   C     C_R   0.392303 0.064089 0.445064 -0.028804
C23   C     C_R   0.369952 0.944291 0.507977 -0.072238
C24   C     C_R   0.021840 0.595048 0.597860 0.448916
C25   C     C_R   0.632371 0.055624 0.485720 -0.068271
C26   C     C_R   0.135279 0.433420 0.468488 -0.054618
C27   C     C_R   0.871444 0.554181 0.505582 -0.072601
C28   C     C_R   0.892716 0.434287 0.439932 -0.013543
C29   C     C_R   0.115460 0.554457 0.532512 -0.045494
C30   C     C_R   0.657470 0.935918 0.555995 -0.156367
C31   C     C_R   0.342997 0.064590 0.441180 -0.152674
C32   C     C_R   0.331085 0.939667 0.476591 -0.187655
C33   C     C_R   0.669986 0.060409 0.519556 -0.169538
C34   C     C_R   0.182009 0.434390 0.479476 -0.229813
C35   C     C_R   0.517523 0.893615 0.601193 0.423814
C36   C     C_R   0.831914 0.559825 0.475726 -0.171266
C37   C     C_R   0.843698 0.434935 0.436383 -0.181863
C38   C     C_R   0.169560 0.559571 0.518797 -0.183219
C39   C     C_R   0.679634 0.001288 0.560934 0.401906
C40   C     C_R   0.319829 0.999473 0.437819 0.401033
C41   C     C_R   0.204069 0.499825 0.484216 0.407390
C42   C     C_R   0.821520 0.501328 0.433616 0.392945
C43   C     C_R   0.597256 0.996190 0.511356 0.071499
C44   C     C_R   0.404783 0.004035 0.482290 0.067552
C45   C     C_R   0.100925 0.493961 0.497377 0.076640
C46   C     C_R   0.484419 0.106248 0.391432 0.440012
C47   C     C_R   0.905704 0.493400 0.478497 0.069859
C48   C     C_R   0.119616 0.372010 0.437572 -0.153353
C49   C     C_R   0.882464 0.610375 0.550612 -0.154777
C50   C     C_R   0.931753 0.380885 0.395008 -0.150267
C51   C     C_R   0.074188 0.603155 0.586778 -0.162475
C52   C     C_R   0.568385 0.885153 0.595345 -0.137136
C53   C     C_R   0.433015 0.115172 0.398877 -0.159832
C54   C     C_R   0.380284 0.887295 0.552105 -0.154624
C55   C     C_R   0.623439 0.112218 0.439430 -0.148264
C56   C     C_3   0.742482 0.004675 0.613708 0.108785
C57   C     C_R   0.429294 0.881604 0.551939 0.455029
C58   C     C_3   0.745426 0.951634 0.679139 -0.593541
C59   C     C_3   0.249629 0.994854 0.400008 0.108481
C60   C     C_3   0.239292 0.047039 0.341241 -0.564062
C61   C     C_3   0.290165 0.502769 0.366523 0.070138
C62   C     C_3   0.349860 0.507494 0.340467 -0.653731
C63   C     C_3   0.762861 0.489087 0.373769 0.106316
C64   C     C_3   0.743175 0.534523 0.321040 -0.605110
C65   C     C_3   0.588376 0.290359 0.086126 0.100923
C66   C     C_3   0.559764 0.311638 0.185412 -0.538231
C67   C     C_3   0.342144 0.573805 0.979476 0.151881
C68   C     C_R   0.574861 0.117954 0.437449 0.441390
C69   C     C_3   0.365846 0.536101 0.887834 -0.520239
C70   C     C_3   0.386884 0.312749 0.917738 0.109094
C71   C     C_3   0.401839 0.341040 0.824516 -0.689473
C72   C     C_3   0.657820 0.608019 0.039948 0.104230
C73   C     C_3   0.642005 0.589170 0.137011 -0.553605
C74   C     C_3   0.071794 0.757912 0.086320 0.086168
C75   C     C_3   0.051051 0.755294 0.187501 -0.585688
C76   C     C_3   0.849589 0.107540 0.950994 0.119831
C77   C     C_3   0.872301 0.087895 0.851769 -0.558442
C78   C     C_3   0.913386 0.784426 0.915387 0.077679
C79   C     C_R   0.739837 0.304534 0.935060 -0.139277
C80   C     C_3   0.940724 0.800252 0.814915 -0.521742
C81   C     C_3   0.206605 0.067315 0.910093 0.108950
C82   C     C_3   0.254125 0.074843 0.928818 -0.647628
C83   C     C_R   0.287062 0.750896 0.033196 -0.130326
C84   C     C_R   0.254018 0.292676 0.081504 -0.173358
C85   C     C_R   0.297431 0.729624 0.323822 0.981507
C86   C     C_R   0.702885 0.774287 0.972524 -0.169587
C87   C     C_R   0.219259 0.781506 0.957367 -0.106578
C88   C     C_R   0.799042 0.274757 0.026072 -0.158717
C89   C     C_R   0.761333 0.806919 0.063997 -0.144316
C90   C     C_R   0.199677 0.256659 0.983628 -0.190891
C91   C     C_R   0.795231 0.283459 0.884500 0.322651
C92   C     C_R   0.256509 0.815969 0.056823 0.384092
C93   C     C_R   0.208291 0.246298 0.121031 0.363344
C94   C     C_R   0.747074 0.823179 0.933865 0.378007
C95   C     C_R   0.251448 0.718740 0.934786 0.308610
C96   C     C_R   0.299972 0.264480 0.323213 0.897022
C97   C     C_R   0.758150 0.328473 0.060933 0.384898
C98   C     C_R   0.705261 0.790159 0.114725 0.335567
C99   C     C_R   0.225843 0.324711 0.970326 0.354525
C100  C     C_R   0.825726 0.271735 0.930087 0.312295
C101  C     C_R   0.223614 0.832194 0.017083 0.336850
C102  C     C_R   0.180958 0.228030 0.072032 0.355986
C103  C     C_R   0.774144 0.842845 0.982506 0.371753
C104  C     C_R   0.293943 0.716660 0.954005 0.299964
C105  C     C_R   0.729691 0.345154 0.013404 0.367669
C106  C     C_R   0.675376 0.776016 0.068671 0.312169
C107  C     C_R   0.702177 0.729863 0.676597 0.946733
C108  C     C_R   0.251072 0.343572 0.022294 0.346791
C109  C     C_R   0.646681 0.331676 0.945112 0.402103
C110  C     C_R   0.355736 0.670681 0.051385 0.386068
C111  C     C_R   0.344740 0.340341 0.067223 0.393161
C112  C     C_R   0.637084 0.684927 0.955462 0.410730
C113  C     C_R   0.132248 0.813431 0.957289 0.400539
C114  C     C_R   0.861322 0.182270 0.047821 0.404931
C115  C     C_R   0.854471 0.830517 0.054056 0.403332
C116  C     C_R   0.149889 0.163990 0.937636 0.439128
C117  C     C_R   0.615593 0.344401 0.900528 -0.312410
C118  C     C_R   0.203027 0.773124 0.675610 0.969255
C119  C     C_R   0.385356 0.656660 0.097961 -0.279420
C120  C     C_R   0.380410 0.349485 0.104659 -0.310341
C121  C     C_R   0.610545 0.662938 0.905754 -0.268848
C122  C     C_R   0.105580 0.833473 0.908420 -0.309878
C123  C     C_R   0.879072 0.146738 0.103821 -0.290499
C124  C     C_R   0.884955 0.844105 0.099144 -0.298095
C125  C     C_R   0.116262 0.154533 0.898110 -0.322941
C126  C     C_R   0.628692 0.311140 0.819726 0.240399
C127  C     C_R   0.372296 0.692191 0.177800 0.247605
C128  C     C_R   0.371319 0.312459 0.181621 0.252319
C129  C     C_R   0.794848 0.225177 0.325813 0.955429
C130  C     C_R   0.624980 0.694718 0.823238 0.256677
C131  C     C_R   0.124574 0.807733 0.821531 0.266810
C132  C     C_R   0.850842 0.153008 0.195796 0.228641
C133  C     C_R   0.871009 0.812361 0.180783 0.251808
C134  C     C_R   0.125597 0.195310 0.823347 0.258374
C135  C     C_R   0.678333 0.277391 0.773859 -0.244228
C136  C     C_R   0.319872 0.718578 0.226805 -0.265350
C137  C     C_R   0.324256 0.273380 0.226134 -0.201699
C138  C     C_R   0.677653 0.720987 0.774753 -0.265249
C139  C     C_R   0.179563 0.789975 0.771640 -0.255579
C140  C     C_R   0.798830 0.766902 0.323138 1.016132
C141  C     C_R   0.813113 0.206658 0.232104 -0.239890
C142  C     C_R   0.821034 0.779175 0.226488 -0.244473
C143  C     C_R   0.176486 0.227348 0.776222 -0.275744
C144  C     C_R   0.709948 0.263376 0.817655 0.340803
C145  C     C_R   0.288112 0.730074 0.182322 0.324629
C146  C     C_R   0.294681 0.254119 0.181796 0.336391
C147  C     C_R   0.707829 0.734686 0.821132 0.330044
C148  C     C_R   0.212348 0.792254 0.814360 0.311245
C149  C     C_R   0.789589 0.236462 0.181099 0.336094
C150  C     C_R   0.789130 0.766600 0.182747 0.337354
C151  C     C_R   0.201092 0.233241 0.677268 0.997103
C152  C     C_R   0.205300 0.245459 0.824972 0.335717
C153  C     C_R   0.699370 0.301298 0.897703 -0.002826
C154  C     C_R   0.312092 0.720015 0.087965 -0.003972
C155  C     C_R   0.296772 0.298028 0.112850 -0.019132
C156  C     C_R   0.680741 0.734852 0.916827 -0.000526
C157  C     C_R   0.187485 0.796124 0.909486 0.014930
C158  C     C_R   0.818260 0.233648 0.084988 -0.011375
C159  C     C_R   0.801102 0.803098 0.101959 0.004581
C160  C     C_R   0.182295 0.225953 0.917189 0.014575
C161  C     C_R   0.695984 0.127611 0.520090 0.936919
C162  C     C_R   0.069142 0.368233 0.442350 0.459140
C163  C     C_R   0.304543 0.872394 0.478114 0.928789
C164  C     C_R   0.309265 0.129694 0.462161 0.861073
C165  C     C_R   0.690976 0.870655 0.536671 0.870661
C166  C     C_R   0.193710 0.627525 0.526669 0.902110
C167  C     C_R   0.809231 0.370138 0.461533 0.843612
C168  C     C_R   0.804366 0.627337 0.479311 0.933035
C169  C     C_R   0.204157 0.369244 0.497279 0.912919
C170  C     C_R   0.075071 0.098796 0.932610 0.991105
C171  C     C_R   0.927604 0.897952 0.064232 0.958651
C172  C     C_R   0.924481 0.097823 0.067086 1.016385
Cl1   Cl    Cl    0.042181 0.280037 0.453392 -0.433127
Cl2   Cl    Cl    0.357287 0.728466 0.855587 -0.330742
Cl3   Cl    Cl    0.256505 0.435821 0.043449 -0.562534
Cl4   Cl    Cl    0.604009 0.788274 0.128733 -0.368417
Cl5   Cl    Cl    0.189432 0.915932 0.042265 -0.478675
Cl6   Cl    Cl    0.896672 0.287664 0.869312 -0.368560
Cl7   Cl    Cl    0.800146 0.931791 0.967571 -0.539164
Cl8   Cl    Cl    0.115229 0.189697 0.133575 -0.355092
Cl9   Cl    Cl    0.830947 0.298133 0.766437 -0.443088
Cl10  Cl    Cl    0.265600 0.882121 0.124336 -0.439731
Cl11  Cl    Cl    0.173996 0.232595 0.239436 -0.429860
Cl12  Cl    Cl    0.953282 0.701559 0.558508 -0.520040
Cl13  Cl    Cl    0.756212 0.878451 0.843097 -0.515729
Cl14  Cl    Cl    0.245691 0.646910 0.870705 -0.469620
Cl15  Cl    Cl    0.757293 0.391501 0.141039 -0.494731
Cl16  Cl    Cl    0.669342 0.811005 0.231587 -0.438675
Cl17  Cl    Cl    0.213783 0.393719 0.910125 -0.406595
Cl18  Cl    Cl    0.579394 0.301809 0.783102 -0.552622
Cl19  Cl    Cl    0.420766 0.701450 0.215892 -0.468478
Cl20  Cl    Cl    0.421501 0.305232 0.216349 -0.609916
Cl21  Cl    Cl    0.578227 0.698498 0.781226 -0.489497
Cl22  Cl    Cl    0.078255 0.797563 0.779369 -0.607997
Cl23  Cl    Cl    0.036789 0.346426 0.293051 -0.457760
Cl24  Cl    Cl    0.851350 0.081553 0.266366 -0.553829
Cl25  Cl    Cl    0.919833 0.804000 0.218309 -0.590854
Cl26  Cl    Cl    0.077203 0.200760 0.785021 -0.456863
Cl27  Cl    Cl    0.746425 0.180674 0.792518 -0.539351
Cl28  Cl    Cl    0.216247 0.738767 0.243316 -0.544797
Cl29  Cl    Cl    0.285497 0.160593 0.174133 -0.558458
Cl30  Cl    Cl    0.779388 0.723104 0.763403 -0.546617
Cl31  Cl    Cl    0.283954 0.797278 0.750615 -0.517838
Cl32  Cl    Cl    0.717739 0.244683 0.236608 -0.525694
Cl33  Cl    Cl    0.748923 0.687427 0.209345 -0.588364
Cl34  Cl    Cl    0.967917 0.623028 0.703082 -0.542656
Cl35  Cl    Cl    0.274922 0.270306 0.769357 -0.558629
Cl36  Cl    Cl    0.462120 0.861384 0.701942 -0.422551
Cl37  Cl    Cl    0.539648 0.133903 0.287846 -0.543927
Cl38  Cl    Cl    0.451920 0.791631 0.547764 -0.435702
Cl39  Cl    Cl    0.554441 0.208061 0.435167 -0.521540
Cl40  Cl    Cl    0.705003 0.434215 0.024266 -0.551530
H1    H     H_    0.145288 0.324740 0.412437 0.217217
H2    H     H_    0.770641 0.988734 0.542480 0.158516
H3    H     H_    0.788497 0.939119 0.658111 0.229892
H4    H     H_    0.725878 0.976299 0.747651 0.289120
H5    H     H_    0.723616 0.900925 0.682146 0.260011
H6    H     H_    0.224748 0.009387 0.472759 0.136936
H7    H     H_    0.234588 0.942110 0.389568 0.205339
H8    H     H_    0.260704 0.098491 0.335008 0.287314
H9    H     H_    0.254554 0.023333 0.272744 0.296295
H10   H     H_    0.195099 0.057688 0.371069 0.208818
H11   H     H_    0.280044 0.549941 0.336698 0.125899
H12   H     H_    0.855729 0.656024 0.579486 0.234097
H13   H     H_    0.284063 0.451754 0.337190 0.118282
H14   H     H_    0.357776 0.558332 0.367372 0.266383
H15   H     H_    0.361405 0.460506 0.368113 0.259719
H16   H     H_    0.375006 0.507020 0.265866 0.214551
H17   H     H_    0.730481 0.490257 0.445893 0.154929
H18   H     H_    0.769241 0.433487 0.345155 0.201279
H19   H     H_    0.774917 0.536908 0.248980 0.298306
H20   H     H_    0.705861 0.510248 0.325498 0.220395
H21   H     H_    0.733554 0.589992 0.349755 0.275397
H22   H     H_    0.611200 0.239138 0.077442 0.178275
H23   H     H_    0.925616 0.341452 0.353177 0.189684
H24   H     H_    0.556736 0.281355 0.065608 0.162033
H25   H     H_    0.539750 0.365117 0.194645 0.243786
H26   H     H_    0.528237 0.271108 0.225310 0.258897
H27   H     H_    0.589557 0.314818 0.210502 0.273947
H28   H     H_    0.345105 0.536402 0.028182 0.158399
H29   H     H_    0.298475 0.585214 0.004053 0.173163
H30   H     H_    0.409333 0.523295 0.862934 0.224601
H31   H     H_    0.344015 0.485188 0.892429 0.254582
H32   H     H_    0.362374 0.571563 0.838302 0.278196
H33   H     H_    0.360692 0.264193 0.930493 0.148892
H34   H     H_    0.080606 0.641676 0.629099 0.203024
H35   H     H_    0.424942 0.296531 0.917823 0.178928
H36   H     H_    0.429058 0.388597 0.808492 0.243042
H37   H     H_    0.423183 0.298165 0.773136 0.237253
H38   H     H_    0.364562 0.357016 0.822122 0.277254
H39   H     H_    0.657687 0.558135 0.003188 0.202936
H40   H     H_    0.699759 0.630320 0.007410 0.144047
H41   H     H_    0.603124 0.558819 0.168487 0.243253
H42   H     H_    0.674050 0.555738 0.139010 0.258948
H43   H     H_    0.637146 0.639299 0.176687 0.274651
H44   H     H_    0.093738 0.706196 0.056307 0.156745
H45   H     H_    0.573240 0.845724 0.638004 0.210273
H46   H     H_    0.036429 0.762611 0.074274 0.170047
H47   H     H_    0.029225 0.806205 0.219893 0.284416
H48   H     H_    0.022816 0.708983 0.217190 0.219916
H49   H     H_    0.085656 0.748572 0.200965 0.258136
H50   H     H_    0.848668 0.058101 0.988711 0.200554
H51   H     H_    0.807213 0.127222 0.977238 0.143116
H52   H     H_    0.913167 0.063156 0.825206 0.240563
H53   H     H_    0.845065 0.048934 0.843367 0.253947
H54   H     H_    0.875538 0.137057 0.812164 0.276906
H55   H     H_    0.890491 0.732709 0.928350 0.173706
H56   H     H_    0.427806 0.154515 0.356501 0.203187
H57   H     H_    0.945696 0.778606 0.934890 0.154170
H58   H     H_    0.960893 0.853931 0.801220 0.247191
H59   H     H_    0.971930 0.758562 0.777034 0.262428
H60   H     H_    0.910133 0.800279 0.791409 0.274099
H61   H     H_    0.195574 0.009458 0.913168 0.209876
H62   H     H_    0.220286 0.084026 0.838957 0.090397
H63   H     H_    0.241147 0.061311 0.000165 0.312804
H64   H     H_    0.287398 0.037696 0.883917 0.231216
H65   H     H_    0.269702 0.131145 0.915744 0.222002
H66   H     H_    0.353063 0.842666 0.581152 0.238850
H67   H     H_    0.651681 0.156281 0.410368 0.227710
H68   H     H_    0.757571 0.056947 0.625482 0.210554
O1    O     O_R   0.746490 0.236330 0.638080 -0.574643
O2    O     O_R   0.325830 0.813840 0.483730 -0.610824
O3    O     O_R   0.325830 0.186160 0.483730 -0.607856
O4    O     O_R   0.674170 0.813840 0.516270 -0.594430
O5    O     O_R   0.174170 0.686160 0.516270 -0.616658
O6    O     O_R   0.825830 0.313840 0.483730 -0.591177
O7    O     O_R   0.825830 0.686160 0.483730 -0.621028
O8    O     O_R   0.174170 0.313840 0.516270 -0.610487
O9    O     O_R   0.739960 0.127620 0.525000 -0.640486
O10   O     O_R   0.260040 0.872380 0.475000 -0.664048
O11   O     O_R   0.260040 0.127620 0.475000 -0.657337
O12   O     O_R   0.253510 0.763670 0.361920 -0.569559
O13   O     O_R   0.739960 0.872380 0.525000 -0.648961
O14   O     O_R   0.239960 0.627620 0.525000 -0.561321
O15   O     O_R   0.760040 0.372380 0.475000 -0.669772
O16   O     O_R   0.760040 0.627620 0.475000 -0.631376
O17   O     O_R   0.239960 0.372380 0.525000 -0.555253
O18   O     O_R   0.680700 0.294870 0.629350 -0.568575
O19   O     O_R   0.319300 0.705130 0.370650 -0.589759
O20   O     O_R   0.319300 0.294870 0.370650 -0.598975
O21   O     O_R   0.680700 0.705130 0.629350 -0.584530
O22   O     O_R   0.180700 0.794870 0.629350 -0.588511
O23   O     O_R   0.253510 0.236330 0.361920 -0.632355
O24   O     O_R   0.819300 0.205130 0.370650 -0.579247
O25   O     O_R   0.819300 0.794870 0.370650 -0.559166
O26   O     O_R   0.180700 0.205130 0.629350 -0.571952
O27   O     O_R   0.062020 0.072840 0.007170 -0.554530
O28   O     O_R   0.937980 0.927160 0.992830 -0.594289
O29   O     O_R   0.937980 0.072840 0.992830 -0.595633
O30   O     O_R   0.062020 0.927160 0.007170 -0.558717
O31   O     O_R   0.562020 0.572840 0.007170 -0.581513
O32   O     O_R   0.437980 0.427160 0.992830 -0.601753
O33   O     O_R   0.437980 0.572840 0.992830 -0.587548
O34   O     O_R   0.746490 0.763670 0.638080 -0.597531
O35   O     O_R   0.562020 0.427160 0.007170 -0.583409
O36   O     O_R   0.947860 0.073950 0.109290 -0.567432
O37   O     O_R   0.052140 0.926050 0.890710 -0.595163
O38   O     O_R   0.052140 0.073950 0.890710 -0.583636
O39   O     O_R   0.947860 0.926050 0.109290 -0.564076
O40   O     O_R   0.447860 0.573950 0.109290 -0.597318
O41   O     O_R   0.552140 0.426050 0.890710 -0.578732
O42   O     O_R   0.552140 0.573950 0.890710 -0.574764
O43   O     O_R   0.447860 0.426050 0.109290 -0.597229
O44   O     O_3   0.687656 0.013314 0.634853 -0.597810
O45   O     O_R   0.246490 0.736330 0.638080 -0.569607
O46   O     O_3   0.306241 0.989640 0.369267 -0.576365
O47   O     O_3   0.258396 0.503559 0.461639 -0.561121
O48   O     O_3   0.812718 0.516744 0.361298 -0.597336
O49   O     O_3   0.624194 0.346515 0.036308 -0.560175
O50   O     O_3   0.371626 0.638451 0.968599 -0.545938
O51   O     O_3   0.359497 0.367633 0.982609 -0.580615
O52   O     O_3   0.619516 0.657705 0.041072 -0.546134
O53   O     O_3   0.106306 0.818208 0.050410 -0.544158
O54   O     O_3   0.883212 0.160864 0.958674 -0.545419
O55   O     O_3   0.877973 0.842115 0.962223 -0.558336
O56   O     O_R   0.753510 0.263670 0.361920 -0.600815
O57   O     O_3   0.160824 0.105398 0.976813 -0.540267
O58   O     O_R   0.753510 0.736330 0.361920 -0.584191
O59   O     O_R   0.246490 0.263670 0.638080 -0.558766
O60   O     O_R   0.674170 0.186160 0.516270 -0.620005
Zn1   Zn    Zn3+2 0.792340 0.208750 0.507670 1.101017
Zn2   Zn    Zn3+2 0.494040 0.500000 0.919480 1.075665
Zn3   Zn    Zn3+2 0.005960 1.000000 0.080520 1.188222
Zn4   Zn    Zn3+2 0.994040 0.000000 0.919480 1.082113
Zn5   Zn    Zn3+2 0.207660 0.791250 0.492330 1.071153
Zn6   Zn    Zn3+2 0.207660 0.208750 0.492330 1.057740
Zn7   Zn    Zn3+2 0.792340 0.791250 0.507670 1.080100
Zn8   Zn    Zn3+2 0.292340 0.708750 0.507670 1.140640
Zn9   Zn    Zn3+2 0.707660 0.291250 0.492330 1.075431
Zn10  Zn    Zn3+2 0.707660 0.708750 0.492330 1.082336
Zn11  Zn    Zn3+2 0.292340 0.291250 0.507670 1.115416
Zn12  Zn    Zn3+2 0.505960 0.500000 0.080520 1.067815

loop_
_geom_bond_atom_site_label_1
_geom_bond_atom_site_label_2
_ccdc_geom_bond_type
C125  C134  A    
C28   C47   A    
C55   H67   S    
C56   H68   S    
C152  Cl35  S    
C36   C42   A    
C94   Cl13  S    
C83   C154  S    
C124  C133  A    
C146  Cl29  S    
C16   C35   A    
O30   Zn3   S    
C58   H5    S    
C69   H30   S    
C48   C162  A    
C62   H15   S    
C32   C163  S    
C67   H28   S    
C36   C168  S    
O33   Zn2   S    
C118  O22   A    
C166  O14   A    
C37   C42   A    
C86   C156  S    
C134  C143  A    
O3    Zn11  S    
C113  C122  A    
C10   C20   A    
C96   O23   A    
C88   C158  S    
C91   C100  A    
C117  C126  A    
C88   C97   A    
C70   H35   S    
C97   C105  A    
C24   C51   A    
C143  C151  S    
C171  O39   A    
C59   C60   S    
C54   H66   S    
C139  C148  A    
C150  C159  A    
O13   Zn7   S    
C59   O46   S    
C65   H22   S    
C127  C136  A    
C74   C75   S    
O22   Zn5   S    
C104  Cl2   S    
C56   H2    S    
C29   C45   A    
C80   H60   S    
C33   C161  S    
C39   O44   S    
C5    O32   A    
O59   Zn11  S    
C63   H18   S    
C13   C18   A    
C49   H12   S    
C130  C138  A    
C96   C137  S    
C83   C104  A    
C6    O40   A    
C97   Cl15  S    
C14   C57   A    
C76   H50   S    
C48   H1    S    
C133  Cl25  S    
O39   Zn3   S    
C2    C19   A    
C25   C55   A    
C166  O5    A    
C72   C73   S    
C113  O53   S    
C64   H19   S    
C69   H32   S    
C115  O55   S    
C98   C106  A    
C107  C138  S    
C9    C15   A    
C92   Cl10  S    
C1    O1    A    
C93   Cl11  S    
C6    O33   A    
C122  C131  A    
C46   C53   A    
C84   C93   A    
C3    O37   A    
C70   H33   S    
C73   H42   S    
O11   Zn6   S    
C35   Cl36  S    
C78   O55   S    
C113  C157  A    
C111  C155  A    
C71   H37   S    
C95   Cl14  S    
C75   H49   S    
C11   C18   A    
O58   Zn10  S    
C123  C132  A    
C7    O41   A    
C169  O8    A    
C102  Cl8   S    
C7    C117  S    
C65   H24   S    
C121  C130  A    
C130  Cl21  S    
C100  Cl6   S    
C60   H9    S    
C25   C43   A    
C109  O49   S    
C99   C108  A    
C12   C68   A    
C133  C142  A    
C105  Cl40  S    
C110  C154  A    
C167  O6    A    
C78   C80   S    
C124  C171  S    
C108  Cl3   S    
O14   Zn8   S    
C77   H54   S    
C81   H62   S    
C78   H57   S    
C111  O51   S    
C126  Cl18  S    
C90   C102  A    
C107  O21   A    
C26   C45   A    
C87   C101  A    
O8    Zn6   S    
C87   C95   A    
C29   C38   A    
C149  C158  A    
C170  O27   A    
C103  Cl7   S    
C123  C172  S    
C72   O52   S    
C66   H26   S    
C165  O4    A    
C86   C106  A    
O25   Zn7   S    
O21   Zn10  S    
O36   Zn3   S    
C89   C159  S    
C74   H46   S    
C171  O28   A    
C63   O48   S    
C38   C41   A    
O27   Zn3   S    
C165  O13   A    
O38   Zn4   S    
C127  Cl19  S    
C87   C157  S    
C128  Cl20  S    
C161  O9    A    
O37   Zn4   S    
C79   C153  S    
C170  O38   A    
O32   Zn2   S    
C8    C12   A    
C20   C162  A    
C10   C45   A    
C116  O57   S    
C34   C169  S    
C114  C123  A    
C75   H47   S    
C116  C125  A    
O43   Zn12  S    
C3    O30   A    
C145  C154  A    
C90   C99   A    
C65   O49   S    
C29   C51   A    
C27   C47   A    
C132  C141  A    
C85   O12   A    
C31   C164  S    
O24   Zn1   S    
C30   C165  S    
C110  C119  A    
C89   C98   A    
C78   H55   S    
C61   O47   S    
C82   H63   S    
C112  C121  A    
O20   Zn11  S    
C89   C103  A    
C85   O19   A    
C28   C37   A    
C62   H16   S    
C24   Cl34  S    
C56   C58   S    
C30   C39   A    
O29   Zn4   S    
C148  C157  A    
C72   H39   S    
C61   C62   S    
C163  O10   A    
C131  C139  A    
C85   C136  S    
C13   C50   A    
C131  Cl22  S    
C8    C16   A    
C112  C156  A    
C84   C155  S    
C106  Cl4   S    
C15   C46   A    
O56   Zn9   S    
C1    C135  S    
C27   C49   A    
C25   C33   A    
C54   C57   A    
C119  C127  A    
O12   Zn5   S    
C6    C119  S    
C11   C47   A    
C8    C43   A    
C42   O48   S    
C55   C68   A    
C109  C117  A    
C37   C167  S    
C67   O50   S    
C11   C19   A    
C172  O36   A    
C140  C142  S    
C116  C160  A    
C60   H8    S    
C129  C141  S    
O2    Zn8   S    
C31   C40   A    
O4    Zn10  S    
C114  C158  A    
C98   Cl16  S    
C118  O45   A    
O26   Zn6   S    
C146  C155  A    
C70   C71   S    
O45   Zn8   S    
C109  C153  A    
O34   Zn7   S    
C26   C48   A    
C63   H17   S    
C58   H3    S    
C34   C41   A    
C151  O59   A    
C71   H36   S    
O5    Zn5   S    
C5    C120  S    
O40   Zn12  S    
C145  Cl28  S    
C64   H20   S    
C69   H31   S    
C62   H14   S    
C23   C44   A    
C115  C159  A    
C9    C14   A    
C1    O18   A    
C163  O2    A    
C5    O43   A    
C2    Cl12  S    
O6    Zn1   S    
C147  C156  A    
C149  Cl32  S    
C88   C100  A    
C92   C101  A    
C73   H41   S    
C143  C152  A    
C76   O54   S    
C126  C135  A    
O7    Zn7   S    
C91   Cl9   S    
O23   Zn6   S    
C118  C139  S    
C38   C166  S    
C57   Cl38  S    
C151  O26   A    
C115  C124  A    
C114  O54   S    
O16   Zn10  S    
O31   Zn12  S    
C59   H6    S    
C60   H10   S    
C93   C102  A    
O42   Zn2   S    
C120  C128  A    
C27   C36   A    
C46   Cl37  S    
C21   C30   A    
C80   H59   S    
C23   C32   A    
C142  C150  A    
C140  O58   A    
C4    O31   A    
C144  Cl27  S    
C52   H45   S    
C7    O35   A    
C84   C108  A    
C77   H53   S    
C4    C121  S    
C81   H61   S    
O60   Zn9   S    
C90   C160  S    
C101  Cl5   S    
C13   Cl23  S    
C35   C52   A    
C152  C160  A    
C77   H52   S    
C66   H27   S    
O18   Zn9   S    
C110  O50   S    
C81   C82   S    
C67   H29   S    
C141  C149  A    
O41   Zn2   S    
C83   C92   A    
C33   C39   A    
C161  O60   A    
C10   C17   A    
C79   C105  A    
C137  C146  A    
C96   O20   A    
C144  C153  A    
C129  O56   A    
O9    Zn1   S    
O15   Zn9   S    
C168  O7    A    
C21   C43   A    
C28   C50   A    
C26   C34   A    
C22   C44   A    
C81   O57   S    
C12   C15   A    
C86   C94   A    
C71   H38   S    
C18   C20   A    
C136  C145  A    
C3    C122  S    
C140  O25   A    
C73   H43   S    
C4    O42   A    
C22   C53   A    
C167  O15   A    
C168  O16   A    
C17   C24   A    
C22   C31   A    
O28   Zn4   S    
C51   H34   S    
C76   C77   S    
C70   O51   S    
C99   Cl17  S    
C172  O29   A    
C61   H13   S    
C63   C64   S    
C164  O3    A    
C111  C120  A    
C67   C69   S    
C82   H64   S    
C128  C137  A    
C61   H11   S    
C125  C170  S    
C2    C49   A    
C138  C147  A    
C162  Cl1   S    
O1    Zn1   S    
C72   H40   S    
C40   O46   S    
C135  C144  A    
C76   H51   S    
C66   H25   S    
C14   C16   A    
C82   H65   S    
O35   Zn12  S    
C95   C104  A    
C23   C54   A    
C134  Cl26  S    
C9    C44   A    
C79   C91   A    
C147  Cl30  S    
C150  Cl33  S    
C74   O53   S    
C94   C103  A    
C164  O11   A    
C129  O24   A    
C53   H56   S    
O19   Zn8   S    
C41   O47   S    
O10   Zn5   S    
C64   H21   S    
C59   H7    S    
C107  O34   A    
O17   Zn11  S    
C17   C19   A    
C80   H58   S    
C32   C40   A    
C50   H23   S    
C112  O52   S    
C75   H48   S    
C65   C66   S    
C132  Cl24  S    
C56   O44   S    
C68   Cl39  S    
C169  O17   A    
C21   C52   A    
C74   H44   S    
C148  Cl31  S    
C58   H4    S    
