data_mof_unit_59481.cif
_audit_creation_date              2012-12-10T16:48:48-0500
_audit_creation_method            fapswitch 2.2
_symmetry_space_group_name_H-M    P1
_symmetry_Int_Tables_number       1
_space_group_crystal_system       triclinic
_cell_length_a                    17.387997
_cell_length_b                    8.68378
_cell_length_c                    7.432426
_cell_angle_alpha                 103.052699
_cell_angle_beta                  90.569896
_cell_angle_gamma                 92.65186
_cell_volume                      1091.84184977

loop_
_atom_site_label
_atom_site_type_symbol
_atom_type_description
_atom_site_fract_x
_atom_site_fract_y
_atom_site_fract_z
_atom_type_partial_charge
C1    C     C_R   0.497924 0.199655 0.453468 0.881491
C2    C     C_R   0.502266 0.800349 0.546499 0.882553
C3    C     C_2   0.496664 0.031764 0.427238 -0.377841
C4    C     C_2   0.503362 0.968229 0.572739 -0.375602
C5    C     C_R   0.351324 0.491172 0.523760 0.806568
C6    C     C_R   0.649121 0.505921 0.477108 0.810690
C7    C     C_R   0.267552 0.470433 0.537219 -0.109128
C8    C     C_R   0.733927 0.512306 0.472019 -0.129768
C9    C     C_R   0.220157 0.388589 0.385536 0.086889
C10   C     C_R   0.779261 0.539246 0.638580 0.100798
C11   C     C_R   0.140460 0.391155 0.403414 -0.245054
C12   C     C_R   0.855494 0.497571 0.626687 -0.243783
C13   C     C_R   0.106974 0.468703 0.568255 0.079221
C14   C     C_R   0.891628 0.461946 0.456785 0.038845
C15   C     C_R   0.153899 0.539956 0.722674 0.470359
C16   C     C_R   0.851391 0.475318 0.295464 0.503229
C17   C     C_R   0.234167 0.535863 0.706229 -0.355194
C18   C     C_R   0.771302 0.485634 0.301954 -0.321095
C19   C     C_2   0.023591 0.492472 0.576845 -0.196263
C20   C     C_2   0.971365 0.413599 0.451036 -0.233453
Cu1   Cu    Cu3+1 0.508700 0.517250 0.683000 0.936258
Cu2   Cu    Cu3+1 0.491300 0.482750 0.317000 0.934631
H1    H     H_    0.738848 0.478467 0.175079 0.170148
H2    H     H_    0.271035 0.588549 0.824177 0.165601
H3    H     H_    0.986502 0.320427 0.335644 0.169967
H4    H     H_    0.004856 0.588701 0.685209 0.176113
H5    H     H_    0.887456 0.496032 0.751805 0.180478
H6    H     H_    0.105144 0.337196 0.283718 0.148142
H7    H     H_    0.490223 0.960135 0.287066 0.179352
H8    H     H_    0.509755 0.039865 0.712926 0.180504
H9    H     H_    0.438339 0.382234 0.957773 0.216828
H10   H     H_    0.561348 0.618182 0.042426 0.217821
N1    N     N_2   0.478180 0.456750 0.041980 -0.221962
N2    N     N_2   0.521820 0.543250 0.958020 -0.221211
O1    O     O_R   0.505650 0.286040 0.618880 -0.583089
O2    O     O_R   0.494350 0.713960 0.381120 -0.584570
O3    O     O_R   0.490960 0.256910 0.309800 -0.583386
O4    O     O_R   0.509040 0.743090 0.690200 -0.585934
O5    O     O_R   0.394600 0.516230 0.672450 -0.595385
O6    O     O_R   0.605400 0.483770 0.327550 -0.591314
O7    O     O_R   0.379910 0.487100 0.363380 -0.586181
O8    O     O_R   0.620090 0.512900 0.636620 -0.585045
C21   C     C_3   0.250958 0.296563 0.203281 -0.385201
C22   C     C_3   0.293187 0.151484 0.228565 -0.325450
C23   C     C_3   0.330429 0.068846 0.049628 -0.840916
H11   H     H_    0.286263 0.030466 0.937635 0.236779
H12   H     H_    0.374036 0.149746 0.006501 0.256343
H13   H     H_    0.359813 0.963504 0.071329 0.236640
H14   H     H_    0.338398 0.184976 0.338222 0.219482
H15   H     H_    0.251333 0.067835 0.272384 0.213312
H16   H     H_    0.203051 0.253219 0.101481 0.183754
H17   H     H_    0.287972 0.374075 0.136921 0.214115
C24   C     C_3   0.751863 0.620940 0.829261 -0.368356
C25   C     C_3   0.732109 0.792636 0.833472 -0.343237
C26   C     C_3   0.706254 0.879045 0.023787 -0.834093
H18   H     H_    0.653908 0.818821 0.064438 0.243763
H19   H     H_    0.752369 0.884195 0.129244 0.244611
H20   H     H_    0.692696 0.002028 0.020095 0.250025
H21   H     H_    0.783808 0.857850 0.795775 0.215190
H22   H     H_    0.685524 0.795473 0.731226 0.226647
H23   H     H_    0.704161 0.553305 0.878397 0.220431
H24   H     H_    0.797757 0.624787 0.934079 0.205664
O9    O     O_3   0.119085 0.604008 0.889456 -0.631924
C27   C     C_3   0.155401 0.749701 0.984309 0.046304
H25   H     H_    0.109771 0.833668 0.031821 0.164121
H26   H     H_    0.191365 0.809055 0.893924 0.097423
C28   C     C_3   0.203547 0.725863 0.149983 -0.335542
H27   H     H_    0.215874 0.599298 0.131689 0.236026
H28   H     H_    0.259895 0.792035 0.156154 0.185338
C29   C     C_3   0.163646 0.780263 0.333915 -0.862011
H29   H     H_    0.149620 0.906489 0.356340 0.235436
H30   H     H_    0.202245 0.766827 0.448659 0.244829
H31   H     H_    0.109960 0.707386 0.336442 0.267043
O10   O     O_3   0.887703 0.479735 0.130758 -0.639309
C30   C     C_3   0.941447 0.612162 0.153713 0.049188
H32   H     H_    0.971665 0.603810 0.021426 0.183743
H33   H     H_    0.987702 0.606900 0.254311 0.174702
C31   C     C_3   0.904035 0.774234 0.201713 -0.414750
H34   H     H_    0.887680 0.809118 0.072307 0.212980
H35   H     H_    0.851480 0.769464 0.283939 0.227597
C32   C     C_3   0.958897 0.904298 0.312644 -0.890642
H36   H     H_    0.976978 0.874154 0.443815 0.258547
H37   H     H_    0.929387 0.017693 0.346432 0.260080
H38   H     H_    0.010393 0.920655 0.231124 0.250092

loop_
_geom_bond_atom_site_label_1
_geom_bond_atom_site_label_2
_ccdc_geom_bond_type
C22   H14   S    
C26   H18   S    
C19   C20   D    
C21   C22   S    
C32   H36   S    
C25   H22   S    
C24   C25   S    
C16   O10   S    
C31   H35   S    
C21   H17   S    
Cu2   O7    S    
C20   H3    S    
C22   H15   S    
C7    C9    A    
C3    H7    S    
C19   H4    S    
C24   H23   S    
Cu1   O4    S    
C7    C17   A    
H9    N1    S    
C29   H29   S    
C1    O3    A    
Cu1   Cu2   S    
C32   H37   S    
C25   H21   S    
C23   H12   S    
C9    C21   S    
C17   H2    S    
O10   C30   S    
C13   C19   S    
C12   H5    S    
C18   H1    S    
C27   C28   S    
C14   C20   S    
C10   C24   S    
C5    C7    S    
C31   H34   S    
C6    C8    S    
Cu1   N2    S    
C23   H11   S    
Cu2   O3    S    
C8    C18   A    
C28   H27   S    
C1    C3    S    
C27   H26   S    
C2    C4    S    
C30   H32   S    
C30   H33   S    
C24   H24   S    
C2    O4    A    
Cu1   O5    S    
Cu2   O6    S    
C29   H31   S    
N1    N2    D    
C26   H19   S    
C9    C11   A    
C10   C12   A    
C8    C10   A    
C12   C14   A    
C5    O5    A    
C6    O6    A    
C3    C4    D    
C32   H38   S    
C22   C23   S    
C1    O1    A    
C23   H13   S    
C2    O2    A    
C15   C17   A    
Cu2   N1    S    
C5    O7    A    
C25   C26   S    
O9    C27   S    
Cu1   O1    S    
Cu2   O2    S    
C28   C29   S    
C27   H25   S    
C13   C15   A    
C11   C13   A    
C31   C32   S    
C21   H16   S    
C11   H6    S    
C14   C16   A    
C30   C31   S    
Cu1   O8    S    
C16   C18   A    
C6    O8    A    
C26   H20   S    
C15   O9    S    
C29   H30   S    
C28   H28   S    
C4    H8    S    
H10   N2    S    
