data_mof_unit_61495.cif
_audit_creation_date              2012-10-26T18:02:49-0400
_audit_creation_method            fapswitch 2.2
_symmetry_space_group_name_H-M    P1
_symmetry_Int_Tables_number       1
_space_group_crystal_system       triclinic
_cell_length_a                    18.370941
_cell_length_b                    18.37457
_cell_length_c                    21.46869
_cell_angle_alpha                 90.019394
_cell_angle_beta                  89.974256
_cell_angle_gamma                 89.986935
_cell_volume                      7246.92975871

loop_
_atom_site_label
_atom_site_type_symbol
_atom_type_description
_atom_site_fract_x
_atom_site_fract_y
_atom_site_fract_z
_atom_type_partial_charge
C1    C     C_R   0.500009 0.139890 0.499994 0.583594
C2    C     C_R   0.139862 0.499993 0.500002 0.540647
C3    C     C_R   0.499720 0.999973 0.879668 0.592198
C4    C     C_R   0.499738 0.000027 0.120333 0.596436
C5    C     C_R   0.999766 0.499975 0.379665 0.589351
C6    C     C_R   0.999732 0.500028 0.620333 0.596140
C7    C     C_R   0.360034 0.000007 0.999984 0.604606
C8    C     C_R   0.860034 0.500007 0.499982 0.603016
C9    C     C_R   0.639692 0.500005 0.499989 0.548243
C10   C     C_R   0.139692 0.000005 0.999989 0.547632
C11   C     C_R   0.500010 0.360295 0.499995 0.548370
C12   C     C_R   0.500022 0.860110 0.500008 0.582789
C13   C     C_R   0.500019 0.639705 0.500005 0.548708
C14   C     C_R   0.000011 0.860295 0.999996 0.547559
C15   C     C_R   0.000021 0.139705 0.000005 0.548092
C16   C     C_R   0.360302 0.499995 0.500011 0.548334
C17   C     C_R   0.860302 0.999996 0.000011 0.547790
C18   C     C_1   0.717419 0.999982 0.000024 -0.002194
C19   C     C_1   0.217419 0.499982 0.500018 -0.007418
C20   C     C_1   0.282731 0.499985 0.500026 -0.005138
C21   C     C_1   0.782731 0.999986 0.000029 -0.000902
C22   C     C_1   0.282516 0.000018 0.999970 0.043692
C23   C     C_R   0.000009 0.639890 0.999994 0.583868
C24   C     C_1   0.782516 0.500018 0.499968 0.042716
C25   C     C_R   0.500024 0.998019 0.620311 0.600625
C26   C     C_R   0.500069 0.001930 0.379689 0.601745
C27   C     C_R   0.999999 0.497945 0.120305 0.601273
C28   C     C_R   0.000065 0.501942 0.879689 0.602059
C29   C     C_1   0.717227 0.500015 0.499967 0.015284
C30   C     C_1   0.217227 0.000015 0.999968 0.015856
C31   C     C_3   0.560511 0.966710 0.730442 0.126698
C32   C     C_3   0.443319 0.040029 0.270110 0.192773
C33   C     C_3   0.561459 0.031611 0.269493 0.111506
C34   C     C_R   0.000022 0.360110 0.000008 0.583194
C35   C     C_3   0.442179 0.961487 0.729973 0.144089
C36   C     C_3   0.059866 0.465502 0.230386 0.123520
C37   C     C_3   0.943077 0.539705 0.770109 0.194188
C38   C     C_3   0.061265 0.531984 0.769493 0.111521
C39   C     C_3   0.941452 0.462433 0.230024 0.138854
C40   C     C_3   0.502639 0.929602 0.771995 -0.168218
C41   C     C_3   0.504560 0.070278 0.228015 -0.138030
C42   C     C_3   0.001371 0.429515 0.272019 -0.150314
C43   C     C_3   0.004139 0.570313 0.728013 -0.137713
C44   C     C_3   0.499262 0.999817 0.811647 -0.048650
C45   C     C_1   0.500005 0.282730 0.499996 0.027658
C46   C     C_3   0.499308 0.000181 0.188357 -0.051907
C47   C     C_3   0.999318 0.499826 0.311636 -0.051907
C48   C     C_3   0.999299 0.500185 0.688357 -0.052073
C49   C     C_3   0.557556 0.036057 0.770561 -0.027443
C50   C     C_3   0.437603 0.970877 0.229941 -0.029782
C51   C     C_3   0.556640 0.962378 0.229375 -0.032746
C52   C     C_3   0.438341 0.030771 0.770129 -0.031755
C53   C     C_3   0.058231 0.534965 0.270467 -0.041234
C54   C     C_3   0.937769 0.470521 0.729942 -0.029767
C55   C     C_3   0.056855 0.462722 0.729375 -0.032936
C56   C     C_1   0.500034 0.717269 0.500005 0.027157
C57   C     C_3   0.938908 0.531798 0.270140 -0.031501
C58   C     C_3   0.496670 0.066700 0.728601 0.142148
C59   C     C_3   0.494973 0.933378 0.271397 0.137646
C60   C     C_3   0.997833 0.566623 0.228546 0.146927
C61   C     C_3   0.995361 0.433361 0.771398 0.137256
C62   C     C_3   0.500056 0.997415 0.688421 -0.005012
C63   C     C_3   0.500230 0.002536 0.311581 -0.014548
C64   C     C_3   0.999934 0.497262 0.188412 -0.004072
C65   C     C_3   0.000211 0.502550 0.811581 -0.014419
C66   C     C_1   0.500005 0.217430 0.499997 0.060911
C67   C     C_1   0.000007 0.782730 0.999996 0.027614
C68   C     C_1   0.500040 0.782570 0.500006 0.060183
C69   C     C_1   0.000006 0.717430 0.999997 0.060782
C70   C     C_1   0.000041 0.282570 0.000005 0.060914
C71   C     C_2   0.622304 0.077411 0.793933 0.321187
C72   C     C_2   0.367161 0.937247 0.209691 0.306343
C73   C     C_2   0.620281 0.919293 0.205971 0.323183
C74   C     C_2   0.368785 0.066269 0.790394 0.303995
C75   C     C_2   0.123482 0.575759 0.293560 0.299830
C76   C     C_2   0.867518 0.436478 0.709706 0.306232
C77   C     C_2   0.120743 0.420013 0.705961 0.323365
C78   C     C_1   0.000036 0.217269 0.000005 0.028140
C79   C     C_2   0.869997 0.568566 0.290370 0.304464
C80   C     C_R   0.639862 0.999993 0.000007 0.543904
Cu1   Cu    Cu3+1 0.427480 0.000000 0.500000 1.227402
Cu2   Cu    Cu3+1 0.500000 0.500000 0.437250 1.114319
Cu3   Cu    Cu3+1 1.000000 0.000000 0.062750 1.115239
Cu4   Cu    Cu3+1 1.000000 0.000000 0.937250 1.122054
Cu5   Cu    Cu3+1 0.927480 0.500000 0.000000 1.225610
Cu6   Cu    Cu3+1 0.572540 0.000000 0.500000 1.232295
Cu7   Cu    Cu3+1 0.072540 0.500000 0.000000 1.231628
Cu8   Cu    Cu3+1 0.499930 0.927480 0.000000 1.105017
Cu9   Cu    Cu3+1 0.499930 0.072520 0.000000 1.126197
Cu10  Cu    Cu3+1 0.999930 0.427480 0.500000 1.113273
Cu11  Cu    Cu3+1 0.999930 0.572520 0.500000 1.126596
Cu12  Cu    Cu3+1 0.500000 0.500000 0.562750 1.111828
H1    H     H_    0.505025 0.872997 0.789946 0.154339
H2    H     H_    0.786449 0.659751 0.750767 0.387479
H3    H     H_    0.155948 0.637938 0.709688 0.348004
H4    H     H_    0.856579 0.347238 0.288427 0.347946
H5    H     H_    0.676840 0.058097 0.783974 0.165255
H6    H     H_    0.329100 0.917719 0.244491 0.171739
H7    H     H_    0.675303 0.937392 0.215556 0.164723
H8    H     H_    0.331354 0.086945 0.755601 0.174098
H9    H     H_    0.177779 0.557834 0.281112 0.138896
H10   H     H_    0.829600 0.416691 0.744513 0.171610
H11   H     H_    0.175661 0.438378 0.715617 0.164836
H12   H     H_    0.508332 0.126811 0.210069 0.179751
H13   H     H_    0.833003 0.589968 0.255557 0.173898
H14   H     H_    0.447650 0.205160 0.781597 0.353535
H15   H     H_    0.442091 0.796234 0.218548 0.353217
H16   H     H_    0.951882 0.705835 0.281792 0.353719
H17   H     H_    0.943348 0.295918 0.718524 0.353464
H18   H     H_    0.002864 0.372900 0.290020 0.176603
H19   H     H_    0.007576 0.626868 0.710068 0.180039
H20   H     H_    0.652974 0.858326 0.789819 0.342972
H21   H     H_    0.287438 0.161059 0.250835 0.393014
H22   H     H_    0.656783 0.136957 0.209631 0.347721
H23   H     H_    0.359336 0.844615 0.788111 0.347563
H24   H     H_    0.186131 0.419719 0.297695 0.322147
O1    O     O_R   0.438760 0.105810 0.500000 -0.488127
O2    O     O_R   0.561260 0.894220 0.500000 -0.492154
O3    O     O_R   0.061260 0.605780 0.000000 -0.491873
O4    O     O_R   0.061260 0.394220 0.000000 -0.491496
O5    O     O_R   0.438760 0.000000 0.591570 -0.469410
O6    O     O_R   0.438760 0.000000 0.408430 -0.467856
O7    O     O_R   0.938760 0.500000 0.091570 -0.469610
O8    O     O_R   0.938760 0.500000 0.908430 -0.467704
O9    O     O_R   0.561260 0.000000 0.591560 -0.464451
O10   O     O_R   0.561260 0.000000 0.408440 -0.464043
O11   O     O_R   0.061260 0.500000 0.091560 -0.464609
O12   O     O_R   0.438760 0.894190 0.500000 -0.487334
O13   O     O_R   0.061260 0.500000 0.908440 -0.464120
O14   O     O_R   0.605760 0.938760 0.000000 -0.500731
O15   O     O_R   0.605760 0.061240 0.000000 -0.499264
O16   O     O_R   0.105760 0.438760 0.500000 -0.499439
O17   O     O_R   0.105760 0.561240 0.500000 -0.498480
O18   O     O_R   0.499930 0.938760 0.908410 -0.531642
O19   O     O_R   0.499930 0.938760 0.091590 -0.451658
O20   O     O_R   0.499930 0.061240 0.091590 -0.519918
O21   O     O_R   0.499930 0.061240 0.908410 -0.449786
O22   O     O_R   0.999930 0.438760 0.408410 -0.528872
O23   O     O_R   0.938760 0.605810 0.000000 -0.489007
O24   O     O_R   0.999930 0.438760 0.591590 -0.451415
O25   O     O_R   0.999930 0.561240 0.591590 -0.520256
O26   O     O_R   0.999930 0.561240 0.408410 -0.447936
O27   O     O_R   0.394110 0.938740 0.000000 -0.488482
O28   O     O_R   0.394110 0.061260 0.000000 -0.481229
O29   O     O_R   0.894110 0.438740 0.500000 -0.488565
O30   O     O_R   0.894110 0.561260 0.500000 -0.481465
O31   O     O_R   0.605830 0.500000 0.552990 -0.493839
O32   O     O_R   0.605830 0.500000 0.447010 -0.490028
O33   O     O_R   0.105830 0.000000 0.052990 -0.493204
O34   O     O_R   0.938760 0.394190 0.000000 -0.487895
O35   O     O_R   0.105830 0.000000 0.947010 -0.490717
O36   O     O_R   0.500010 0.394180 0.552980 -0.482335
O37   O     O_R   0.500010 0.394180 0.447020 -0.496685
O38   O     O_R   0.500010 0.605820 0.447020 -0.481660
O39   O     O_R   0.500010 0.605820 0.552980 -0.498608
O40   O     O_R   0.000010 0.894180 0.052980 -0.482962
O41   O     O_R   0.000010 0.894180 0.947020 -0.496098
O42   O     O_R   0.000010 0.105820 0.947020 -0.482067
O43   O     O_R   0.000010 0.105820 0.052980 -0.497428
O44   O     O_2   0.622387 0.858788 0.664056 -0.243470
O45   O     O_R   0.394180 0.500000 0.553000 -0.493488
O46   O     O_2   0.688828 0.974254 0.670430 -0.208349
O47   O     O_3   0.687415 0.891169 0.768150 -0.485936
O48   O     O_2   0.314625 0.046563 0.329656 -0.251107
O49   O     O_2   0.395464 0.152574 0.338636 -0.254977
O50   O     O_3   0.327937 0.131773 0.233493 -0.480626
O51   O     O_2   0.626352 0.137973 0.335540 -0.234064
O52   O     O_2   0.689551 0.020647 0.329377 -0.209531
O53   O     O_3   0.690393 0.103410 0.231455 -0.480476
O54   O     O_2   0.314014 0.958367 0.669576 -0.211072
O55   O     O_2   0.390440 0.849266 0.662551 -0.250711
O56   O     O_R   0.394180 0.500000 0.447000 -0.500621
O57   O     O_3   0.322292 0.874708 0.766670 -0.450207
O58   O     O_2   0.118029 0.359657 0.160069 -0.211804
O59   O     O_2   0.190893 0.470270 0.173771 -0.240212
O60   O     O_3   0.181029 0.379987 0.266828 -0.464601
O61   O     O_2   0.814328 0.545495 0.829626 -0.253775
O62   O     O_2   0.894535 0.651987 0.838600 -0.255481
O63   O     O_3   0.827167 0.630753 0.733446 -0.482785
O64   O     O_2   0.125496 0.638697 0.835599 -0.234252
O65   O     O_2   0.189410 0.521763 0.829389 -0.210179
O66   O     O_3   0.189764 0.604592 0.731506 -0.480230
O67   O     O_R   0.894180 0.000000 0.053000 -0.495313
O68   O     O_2   0.813186 0.461512 0.169732 -0.211600
O69   O     O_2   0.887612 0.351028 0.162816 -0.247583
O70   O     O_3   0.820052 0.377920 0.266948 -0.451060
O71   O     O_2   0.614001 0.132673 0.824624 -0.418876
O72   O     O_2   0.352163 0.931727 0.154555 -0.480351
O73   O     O_2   0.610532 0.864016 0.175626 -0.417875
O74   O     O_2   0.353784 0.072001 0.845525 -0.481088
O75   O     O_2   0.115845 0.629563 0.326213 -0.415675
O76   O     O_2   0.852514 0.430913 0.654575 -0.480210
O77   O     O_2   0.111314 0.364739 0.675538 -0.417354
O78   O     O_R   0.894180 0.000000 0.947000 -0.495509
O79   O     O_2   0.855017 0.574505 0.345489 -0.479913
O80   O     O_2   0.559142 0.170512 0.658739 -0.223365
O81   O     O_2   0.425861 0.166155 0.659137 -0.284412
O82   O     O_3   0.491644 0.217499 0.757120 -0.417408
O83   O     O_2   0.554782 0.827887 0.341101 -0.223468
O84   O     O_2   0.421664 0.835861 0.341005 -0.282394
O85   O     O_3   0.485853 0.782773 0.242868 -0.416971
O86   O     O_2   0.061911 0.669197 0.158398 -0.223213
O87   O     O_2   0.928572 0.667374 0.159299 -0.286047
O88   O     O_3   0.995831 0.717496 0.257014 -0.417278
O89   O     O_R   0.561260 0.105780 0.500000 -0.492247
O90   O     O_2   0.055773 0.328237 0.841129 -0.223239
O91   O     O_2   0.922611 0.335410 0.840987 -0.282639
O92   O     O_3   0.987163 0.282703 0.742874 -0.416057
S1    S     S_3+6 0.641589 0.921714 0.705645 0.047450
S2    S     S_3+6 0.488966 0.843092 0.301687 0.060974
S3    S     S_3+6 0.995753 0.657069 0.198215 0.059789
S4    S     S_3+6 0.989886 0.343043 0.801692 0.061195
S5    S     S_3+6 0.368332 0.093867 0.295781 0.054494
S6    S     S_3+6 0.643771 0.074386 0.294089 0.051821
S7    S     S_3+6 0.365543 0.909805 0.704552 0.067233
S8    S     S_3+6 0.139548 0.418305 0.205227 0.054991
S9    S     S_3+6 0.867765 0.593107 0.795752 0.051532
S10   S     S_3+6 0.143310 0.575244 0.794119 0.051561
S11   S     S_3+6 0.863864 0.412096 0.204742 0.067624
S12   S     S_3+6 0.493024 0.157108 0.698304 0.059735

loop_
_geom_bond_atom_site_label_1
_geom_bond_atom_site_label_2
_ccdc_geom_bond_type
C44   C49   S    
Cu12  O45   S    
C48   C55   S    
C58   C62   S    
C70   C78   T    
C18   C21   T    
C38   S10   S    
O62   S9    D    
C36   C42   S    
C19   C20   T    
Cu8   O14   S    
C40   H1    S    
Cu7   O11   S    
O47   S1    S    
C79   O79   D    
C5    O22   A    
C18   C80   S    
C72   H6    S    
C48   C54   S    
C39   C64   S    
C12   C68   S    
C6    C48   S    
C50   C59   S    
C39   S11   S    
O57   S7    S    
H15   O85   S    
Cu10  O29   S    
C52   C74   S    
C10   O33   A    
C23   O3    A    
C73   O73   D    
C55   C77   S    
C15   C78   S    
Cu6   O10   S    
C14   C67   S    
C39   C57   S    
Cu1   O1    S    
H14   O82   S    
Cu2   Cu12  S    
C31   C40   S    
C79   H13   S    
Cu5   O8    S    
C28   O13   A    
C26   O10   A    
C55   C61   S    
O52   S6    D    
C25   O9    A    
Cu5   O34   S    
C72   O72   D    
C50   C72   S    
C36   C53   S    
C3    O18   A    
Cu10  O22   S    
C74   O74   D    
Cu2   O37   S    
C27   O11   A    
O68   S11   D    
C13   O39   A    
C38   C55   S    
C8    O29   A    
Cu4   O78   S    
C37   C65   S    
Cu12  O36   S    
C2    O16   A    
C41   C46   S    
O60   S8    S    
Cu5   O7    S    
C3    O21   A    
C37   S9    S    
C35   C62   S    
O81   S12   D    
C1    O89   A    
C43   C48   S    
O86   S3    D    
Cu8   O27   S    
Cu1   Cu6   S    
Cu6   O9    S    
C59   S2    S    
O92   S4    S    
C47   C53   S    
C13   C56   S    
O55   S7    D    
C44   C52   S    
O53   S6    S    
C80   O15   A    
O63   S9    S    
Cu12  O31   S    
C76   H10   S    
C31   C62   S    
O87   S3    D    
C17   O78   A    
C53   C75   S    
C43   H19   S    
C57   C79   S    
C31   C49   S    
Cu6   O89   S    
C7    O27   A    
C7    O28   A    
O80   S12   D    
C53   C60   S    
C39   C42   S    
Cu5   Cu7   S    
C34   O4    A    
Cu2   O56   S    
C3    C44   S    
C2    O17   A    
C80   O14   A    
H24   O60   S    
C14   O41   A    
C5    C47   S    
H4    O70   S    
O51   S6    D    
C32   C63   S    
C15   O42   A    
C71   O71   D    
H21   O50   S    
C27   O7    A    
C34   C70   S    
C57   C60   S    
C74   H8    S    
Cu3   O40   S    
C56   C68   T    
C23   C69   S    
C9    O31   A    
C17   C21   S    
C49   C58   S    
Cu4   O41   S    
Cu1   O5    S    
C67   C69   T    
C61   S4    S    
C37   C43   S    
H17   O92   S    
C75   O75   D    
C26   C63   S    
C15   O43   A    
C76   O76   D    
C61   C65   S    
C10   O35   A    
C47   C57   S    
C71   H5    S    
C17   O67   A    
Cu10  O24   S    
Cu3   Cu4   S    
C31   S1    S    
C38   C65   S    
C16   C20   S    
C77   O77   D    
Cu7   O3    S    
C1    C66   S    
H22   O53   S    
Cu3   O67   S    
Cu6   O2    S    
C1    O1    A    
C6    O25   A    
C24   C29   T    
C32   C50   S    
C52   C58   S    
Cu11  O17   S    
C4    O19   A    
C12   O2    A    
C37   C54   S    
O49   S5    D    
C54   C61   S    
O66   S10   S    
Cu9   O21   S    
Cu1   O12   S    
O91   S4    D    
C16   O45   A    
C54   C76   S    
C10   C30   S    
C77   H11   S    
C51   C59   S    
C32   S5    S    
C32   C41   S    
Cu10  Cu11  S    
C7    C22   S    
O85   S2    S    
C35   C52   S    
C23   O23   A    
C73   H7    S    
H20   O47   S    
Cu5   O23   S    
Cu4   O42   S    
O69   S11   D    
C14   O40   A    
C2    C19   S    
O82   S12   S    
C8    O30   A    
C51   C73   S    
Cu8   O19   S    
O61   S9    D    
O65   S10   D    
Cu9   O20   S    
Cu2   O32   S    
C33   S6    S    
C28   O8    A    
H3    O66   S    
C12   O12   A    
O46   S1    D    
C9    C29   S    
O48   S5    D    
C33   C51   S    
Cu9   O28   S    
O70   S11   S    
C46   C50   S    
C9    O32   A    
C59   C63   S    
Cu9   O15   S    
C41   H12   S    
C4    O20   A    
Cu1   O6    S    
C60   C64   S    
O83   S2    D    
C33   C41   S    
O59   S8    D    
Cu11  O26   S    
O84   S2    D    
C28   C65   S    
C42   H18   S    
C4    C46   S    
Cu10  O16   S    
C38   C43   S    
H16   O88   S    
C22   C30   T    
C36   S8    S    
Cu7   O13   S    
C5    O26   A    
C25   O5    A    
O54   S7    D    
C46   C51   S    
O88   S3    S    
C8    C24   S    
O44   S1    D    
C58   S12   S    
C35   C40   S    
Cu12  O39   S    
O58   S8    D    
H2    O63   S    
C34   O34   A    
C6    O24   A    
C60   S3    S    
C33   C63   S    
C13   O38   A    
C11   C45   S    
C27   C64   S    
C11   O37   A    
O50   S5    S    
Cu8   O18   S    
Cu2   O38   S    
Cu4   O35   S    
O90   S4    D    
C11   O36   A    
C40   C44   S    
C42   C47   S    
Cu3   O43   S    
Cu8   Cu9   S    
H23   O57   S    
C49   C71   S    
C45   C66   T    
C75   H9    S    
O64   S10   D    
C26   O6    A    
C25   C62   S    
Cu11  O25   S    
C36   C64   S    
C35   S7    S    
Cu11  O30   S    
Cu7   O4    S    
C16   O56   A    
Cu3   O33   S    
