data_mof_unit_55268.cif
_audit_creation_date              2012-12-11T15:57:47-0500
_audit_creation_method            fapswitch 2.2
_symmetry_space_group_name_H-M    P1
_symmetry_Int_Tables_number       1
_space_group_crystal_system       triclinic
_cell_length_a                    10.790473
_cell_length_b                    10.759964
_cell_length_c                    17.041767
_cell_angle_alpha                 99.55991
_cell_angle_beta                  99.714596
_cell_angle_gamma                 61.407889
_cell_volume                      1704.08413094

loop_
_atom_site_label
_atom_site_type_symbol
_atom_type_description
_atom_site_fract_x
_atom_site_fract_y
_atom_site_fract_z
_atom_type_partial_charge
C1    C     C_R   0.357836 0.770191 0.399742 0.567098
C2    C     C_2   0.324909 0.316548 0.815940 0.303281
C3    C     C_2   0.329016 0.213591 0.757283 -0.066841
C4    C     C_R   0.366106 0.343206 0.358403 0.501742
C5    C     C_2   0.372254 0.204348 0.678528 0.265352
C6    C     C_1   0.816536 0.342323 0.708850 -0.025591
C7    C     C_1   0.843821 0.313815 0.776475 -0.022470
C8    C     C_1   0.338716 0.811460 0.708885 -0.030590
C9    C     C_1   0.312043 0.839735 0.776764 -0.035181
C10   C     C_R   0.895974 0.306390 0.086739 0.564534
C11   C     C_R   0.290758 0.260984 0.121789 0.583104
C12   C     C_2   0.833624 0.321743 0.158141 -0.072527
C13   C     C_R   0.295173 0.888713 0.082592 0.577817
C14   C     C_R   0.885785 0.297009 0.858611 0.545627
C15   C     C_R   0.307209 0.292058 0.893531 0.517039
C16   C     C_R   0.776540 0.377044 0.405024 0.551468
C17   C     C_R   0.277546 0.886193 0.856354 0.524788
C18   C     C_R   0.358403 0.769661 0.627065 0.568588
C19   C     C_R   0.364743 0.345067 0.578783 0.574485
C20   C     C_R   0.772211 0.381413 0.629864 0.530786
C21   C     C_1   0.322306 0.316639 0.276851 -0.087219
C22   C     C_1   0.302470 0.291911 0.206110 -0.040604
C23   C     C_2   0.882340 0.208135 0.200033 0.263939
C24   C     C_2   0.853335 0.328420 0.334063 0.244827
C25   C     C_3   0.966598 0.963619 0.180953 -0.024837
C26   C     C_3   0.580082 0.994608 0.701724 -0.088924
C27   C     C_3   0.369552 0.505863 0.873569 -0.091283
C28   C     C_3   0.060079 0.445630 0.614356 -0.103859
C29   C     C_3   0.641481 0.192375 0.239205 -0.102945
C30   C     C_3   0.998908 0.436532 0.377929 -0.125231
C31   C     C_3   0.665192 0.825262 0.242856 -0.118818
C32   C     C_3   0.234397 0.067858 0.333457 -0.092169
C33   C     C_2   0.831837 0.233521 0.278179 0.255601
C34   C     C_2   0.348043 0.828671 0.326691 0.240368
C35   C     C_2   0.351237 0.804811 0.150746 -0.022860
C36   C     C_2   0.455973 0.806945 0.205010 0.251718
C37   C     C_2   0.461831 0.764267 0.284003 -0.152984
C38   C     C_2   0.299604 0.319360 0.638208 0.309367
Cr1   Cr    Cr6+3 0.608020 0.610770 0.522990 1.007546
Cr2   Cr    Cr6+3 0.289390 0.599570 0.488050 1.024034
Cr3   Cr    Cr6+3 0.602610 0.289690 0.489020 1.064176
Cr4   Cr    Cr6+3 0.053780 0.052210 0.965970 1.034980
Cr5   Cr    Cr6+3 0.060060 0.372530 0.992430 1.027933
Cr6   Cr    Cr6+3 0.372600 0.061970 0.991430 1.032375
H1    H     H_    0.864633 0.978365 0.146236 0.090662
H2    H     H_    0.046690 0.348275 0.609801 0.099521
H3    H     H_    0.065330 0.468372 0.554159 0.101998
H4    H     H_    0.965609 0.537500 0.638357 0.182336
H5    H     H_    0.662516 0.166196 0.175523 0.110203
H6    H     H_    0.565931 0.307415 0.249107 0.118537
H7    H     H_    0.592330 0.127759 0.249707 0.187641
H8    H     H_    0.754854 0.426703 0.179883 0.068466
H9    H     H_    0.079058 0.449235 0.352872 0.163125
H10   H     H_    0.054992 0.351626 0.419323 0.072322
H11   H     H_    0.934256 0.541253 0.410162 0.153448
H12   H     H_    0.972255 0.944508 0.243794 0.187379
H13   H     H_    0.727513 0.707968 0.244530 0.143496
H14   H     H_    0.638203 0.880158 0.303533 0.131774
H15   H     H_    0.733900 0.861314 0.222334 0.138074
H16   H     H_    0.559732 0.676060 0.305986 0.102333
H17   H     H_    0.290761 0.754933 0.163393 0.066520
H18   H     H_    0.336956 0.062498 0.324644 0.124952
H19   H     H_    0.218766 0.090229 0.398117 0.105550
H20   H     H_    0.150057 0.157764 0.301787 0.191616
H21   H     H_    0.311560 0.126975 0.768885 0.070169
H22   H     H_    0.048986 0.865019 0.152685 0.138021
H23   H     H_    0.535028 0.941503 0.730102 0.121387
H24   H     H_    0.620865 0.056446 0.747657 0.131328
H25   H     H_    0.671743 0.909784 0.671377 0.150212
H26   H     H_    0.452146 0.441133 0.919284 0.099085
H27   H     H_    0.264700 0.568448 0.897618 0.139412
H28   H     H_    0.402113 0.581997 0.859097 0.142199
O1    O     O_R   0.749250 0.499990 0.439200 -0.541261
O2    O     O_R   0.411120 0.181190 0.091480 -0.517171
O3    O     O_R   0.364220 0.944920 0.062310 -0.455240
O4    O     O_R   0.477870 0.725740 0.440280 -0.523856
O5    O     O_R   0.158740 0.906940 0.874970 -0.507500
O6    O     O_R   0.930920 0.176940 0.885610 -0.499690
O7    O     O_R   0.910730 0.394510 0.895320 -0.510536
O8    O     O_R   0.185840 0.361180 0.920280 -0.502386
O9    O     O_R   0.399210 0.173040 0.915160 -0.539598
O10   O     O_R   0.353170 0.937370 0.898860 -0.512626
O11   O     O_3   0.162150 0.162240 0.983280 -0.281872
O12   O     O_R   0.299400 0.468710 0.556310 -0.495565
O13   O     O_R   0.260770 0.742210 0.412610 -0.494266
O14   O     O_R   0.297990 0.466320 0.394220 -0.522492
O15   O     O_R   0.487720 0.253870 0.385870 -0.503835
O16   O     O_R   0.721940 0.304340 0.422320 -0.456297
O17   O     O_R   0.750770 0.502570 0.614050 -0.540016
O18   O     O_R   0.479280 0.728140 0.602370 -0.487908
O19   O     O_R   0.262290 0.744790 0.587460 -0.495688
O20   O     O_3   0.994923 0.077582 0.176937 -0.516646
O21   O     O_3   0.479611 0.080918 0.643817 -0.580791
O22   O     O_3   0.360526 0.420036 0.802930 -0.553474
O23   O     O_R   0.489240 0.256450 0.560730 -0.479367
O24   O     O_3   0.179307 0.433456 0.667368 -0.557184
O25   O     O_3   0.765087 0.158367 0.292952 -0.590950
O26   O     O_3   0.916681 0.403273 0.312970 -0.638319
O27   O     O_3   0.541876 0.861736 0.188414 -0.550671
O28   O     O_3   0.224305 0.943399 0.300975 -0.565961
O29   O     O_R   0.723350 0.306730 0.584410 -0.489987
O30   O     O_3   0.500010 0.500010 0.500020 -0.263893
O31   O     O_R   0.170650 0.915100 0.051290 -0.509001
O32   O     O_R   0.941960 0.184500 0.049060 -0.456872
O33   O     O_R   0.922640 0.402670 0.071640 -0.516172
O34   O     O_R   0.196880 0.368740 0.083740 -0.502314

loop_
_geom_bond_atom_site_label_1
_geom_bond_atom_site_label_2
_ccdc_geom_bond_type
C28   H3    S    
C34   C37   D    
Cr5   O11   S    
Cr2   O12   S    
C30   H11   S    
C35   C36   D    
C25   H12   S    
Cr6   O11   S    
Cr4   O31   S    
C27   H27   S    
C15   O9    A    
C4    O15   A    
C29   H5    S    
C30   H10   S    
C12   C23   D    
C28   H2    S    
C24   O26   S    
C18   O19   A    
C31   H14   S    
C36   C37   S    
C13   C35   S    
Cr6   O10   S    
C4    O14   A    
C31   H15   S    
Cr3   O30   S    
C17   O10   A    
Cr5   O33   S    
Cr2   O14   S    
C10   O33   A    
C7    C14   S    
C13   O3    A    
C8    C9    T    
C23   C33   S    
C34   O28   S    
C31   O27   S    
C13   O31   A    
Cr1   O18   S    
C26   O21   S    
Cr1   O1    S    
C16   C24   S    
C21   C22   T    
C3    H21   S    
C12   H8    S    
C1    C34   S    
C29   H6    S    
C1    O13   A    
Cr3   O15   S    
C30   H9    S    
C25   H22   S    
C16   O1    A    
C18   O18   A    
C2    O22   S    
C32   H20   S    
Cr6   O9    S    
C20   O29   A    
Cr5   O8    S    
Cr1   O4    S    
C8    C18   S    
C32   O28   S    
Cr5   O34   S    
Cr2   O13   S    
Cr6   O3    S    
C19   C38   S    
C15   O8    A    
C11   O34   A    
C17   O5    A    
C35   H17   S    
C14   O7    A    
Cr6   O2    S    
C2    C15   S    
C27   H26   S    
C10   C12   S    
C9    C17   S    
Cr4   O6    S    
C26   H23   S    
C19   O12   A    
C25   H1    S    
C19   O23   A    
Cr1   O30   S    
C29   H7    S    
Cr3   O16   S    
C28   H4    S    
C25   O20   S    
C1    O4    A    
Cr4   O11   S    
C32   H19   S    
C3    C5    S    
C11   O2    A    
Cr4   O32   S    
C5    O21   S    
C6    C7    T    
C6    C20   S    
C20   O17   A    
C30   O26   S    
C11   C22   S    
C24   C33   D    
C29   O25   S    
C28   O24   S    
C26   H24   S    
C31   H13   S    
C10   O32   A    
C2    C3    D    
C32   H18   S    
C4    C21   S    
Cr3   O23   S    
Cr3   O29   S    
C36   O27   S    
C33   O25   S    
C14   O6    A    
Cr2   O19   S    
C37   H16   S    
Cr2   O30   S    
Cr4   O5    S    
C38   O24   S    
C16   O16   A    
C26   H25   S    
C23   O20   S    
C27   O22   S    
C5    C38   D    
Cr5   O7    S    
Cr1   O17   S    
C27   H28   S    
