data_mof_unit_20847.cif
_audit_creation_date              2013-03-05T16:44:36-0500
_audit_creation_method            fapswitch 2.2
_symmetry_space_group_name_H-M    P1
_symmetry_Int_Tables_number       1
_space_group_crystal_system       triclinic
_cell_length_a                    27.388987
_cell_length_b                    10.697802
_cell_length_c                    9.88327
_cell_angle_alpha                 89.097601
_cell_angle_beta                  91.304319
_cell_angle_gamma                 89.603854
_cell_volume                      2894.63149047

loop_
_atom_site_label
_atom_site_type_symbol
_atom_site_description
_atom_site_fract_x
_atom_site_fract_y
_atom_site_fract_z
_atom_type_partial_charge
O1    O     O_R   0.500010 0.316790 0.614690 -0.619945
O2    O     O_R   0.500000 0.316760 0.385350 -0.613900
C1    C     C_R   0.499446 0.260471 0.500806 0.909126
O3    O     O_R   0.428760 0.500040 0.614660 -0.604026
O4    O     O_R   0.428750 0.500000 0.385310 -0.613306
C2    C     C_R   0.405924 0.500227 0.498558 0.953064
Zn1   Zn    Zn3+2 0.500000 0.500020 0.653130 1.038173
Zn2   Zn    Zn3+2 0.500000 0.499980 0.346870 1.048760
O5    O     O_R   0.500000 0.683240 0.614650 -0.589483
O6    O     O_R   0.499990 0.683210 0.385310 -0.611981
O7    O     O_R   0.571250 0.500000 0.614690 -0.639714
O8    O     O_R   0.571240 0.499960 0.385340 -0.579856
C3    C     C_R   0.497686 0.739500 0.498617 0.897816
C4    C     C_R   0.594009 0.502303 0.501073 0.873147
C5    C     C_R   0.175752 0.517002 0.388380 0.629614
O9    O     O_2   0.200274 0.442455 0.304062 -0.472314
N1    N     N_R   0.201617 0.590990 0.474463 -0.344684
C6    C     C_R   0.179861 0.679800 0.550260 0.680549
C7    C     C_R   0.284959 0.641815 0.404807 -0.019298
C8    C     C_R   0.334507 0.613081 0.410238 -0.248676
C9    C     C_R   0.321614 0.445176 0.575443 -0.166392
C10   C     C_R   0.271329 0.474141 0.571870 0.278321
C11   C     C_R   0.253252 0.572113 0.486854 0.191225
C12   C     C_R   0.101078 0.616202 0.459186 -0.083731
C13   C     C_R   0.124316 0.520276 0.386482 -0.020300
C14   C     C_R   0.095699 0.429826 0.317540 -0.110474
C15   C     C_R   0.129086 0.699905 0.538618 -0.127058
C16   C     C_R   0.353060 0.516709 0.494051 -0.017438
C17   C     C_R   0.646381 0.526989 0.502150 -0.181079
C18   C     C_R   0.971066 0.573635 0.354980 0.088613
C19   C     C_R   0.975341 0.706048 0.552354 0.060252
C20   C     C_R   0.947488 0.640016 0.456613 0.076803
C21   C     C_R   0.943605 0.537543 0.240852 -0.212702
C22   C     C_R   0.892748 0.544925 0.238625 0.015939
C23   C     C_R   0.868671 0.581851 0.357672 -0.022173
C24   C     C_R   0.896203 0.636207 0.464494 -0.044998
C25   C     C_R   0.872944 0.683013 0.580473 -0.095068
C26   C     C_R   0.821660 0.672555 0.585545 0.615338
N2    N     N_R   0.796783 0.607546 0.488695 -0.319611
C27   C     C_R   0.818862 0.560919 0.377796 0.660401
C28   C     C_R   0.711663 0.668954 0.440032 -0.113151
C29   C     C_R   0.661879 0.640465 0.443482 0.241608
C30   C     C_R   0.680262 0.440841 0.560824 -0.175115
C31   C     C_R   0.730155 0.474421 0.568741 -0.016918
C32   C     C_R   0.745659 0.585586 0.502993 0.205193
O10   O     O_2   0.792731 0.489645 0.291599 -0.476372
C33   C     C_R   0.021703 0.548118 0.370041 0.055610
C34   C     C_R   0.049820 0.627610 0.454007 0.053297
C35   C     C_R   0.026346 0.717644 0.534425 0.005333
C36   C     C_R   0.044378 0.442662 0.311052 -0.120688
H1    H     H_    0.961957 0.506689 0.151163 0.121788
O11   O     O_2   0.207610 0.746827 0.636749 -0.421968
C37   C     C_R   0.105810 0.801295 0.602130 0.258495
H2    H     H_    0.359199 0.667395 0.349077 0.118623
C38   C     C_R   0.952358 0.749572 0.668200 -0.104891
C39   C     C_R   0.902031 0.736727 0.685580 -0.027417
O12   O     O_2   0.796260 0.727348 0.683868 -0.522570
C40   C     C_R   0.054635 0.813394 0.595083 -0.172494
H3    H     H_    0.974293 0.785595 0.751131 0.165395
C41   C     C_R   0.524457 0.059977 0.598026 -0.047813
C42   C     C_R   0.498724 0.128826 0.499768 -0.076915
C43   C     C_R   0.475824 0.069712 0.390399 -0.087023
H4    H     H_    0.456966 0.124895 0.312128 0.231596
C44   C     C_R   0.473474 0.940174 0.387652 -0.043895
C45   C     C_R   0.496973 0.871669 0.494794 -0.153437
C46   C     C_R   0.524463 0.932498 0.593698 0.129079
C47   C     C_3   0.524664 0.918146 0.744857 0.054916
C48   C     C_3   0.523763 0.060361 0.750085 -0.002258
H5    H     H_    0.491641 0.871427 0.784547 0.195685
H6    H     H_    0.556894 0.102488 0.797180 0.157091
C49   C     C_R   0.464842 0.562459 0.067540 0.061099
N3    N     N_R   0.499670 0.499140 0.142800 -0.110502
C50   C     C_R   0.536832 0.444108 0.076634 0.054308
H7    H     H_    0.565338 0.396660 0.135601 0.175258
C51   C     C_R   0.536728 0.441622 0.932890 0.060755
N4    N     N_R   0.499670 0.499180 0.857150 -0.151864
C52   C     C_R   0.465269 0.564242 0.925022 0.161983
C53   C     C_3   0.411274 0.544462 0.914078 0.018256
C54   C     C_3   0.410616 0.542418 0.068089 -0.007017
H8    H     H_    0.401105 0.454864 0.865823 0.164800
H9    H     H_    0.390381 0.621688 0.112851 0.139192
C55   C     C_2   0.340055 0.339950 0.663023 0.533576
H10   H     H_    0.320995 0.314312 0.754296 0.140235
O13   O     O_2   0.375713 0.278374 0.632439 -0.507616
C56   C     C_2   0.268270 0.743605 0.310079 0.562880
H11   H     H_    0.294899 0.794037 0.250956 0.089328
O14   O     O_2   0.225284 0.772641 0.295647 -0.518097
N5    N     N_R   0.134030 0.898133 0.664362 0.228179
O15   O     O_R   0.134295 0.910437 0.795123 -0.323492
O16   O     O_R   0.157690 0.977396 0.589713 -0.241228
C57   C     C_2   0.663253 0.312901 0.600565 0.501985
H12   H     H_    0.624707 0.293306 0.607714 0.033669
O17   O     O_2   0.691607 0.225258 0.617703 -0.503720
C58   C     C_2   0.882697 0.772413 0.818914 0.509398
H13   H     H_    0.853056 0.721332 0.863756 0.153671
O18   O     O_2   0.900993 0.857712 0.882764 -0.516701
C59   C     C_2   0.765644 0.396377 0.650218 0.563669
H14   H     H_    0.753769 0.348259 0.740999 0.130908
O19   O     O_2   0.808079 0.383975 0.617451 -0.553371
C60   C     C_2   0.032528 0.935452 0.632595 0.486898
H15   H     H_    0.048912 0.991102 0.712065 0.124184
O20   O     O_2   0.996832 0.977693 0.570730 -0.487366
C61   C     C_2   0.442839 0.881238 0.280158 0.497091
H16   H     H_    0.429115 0.787314 0.293028 0.027148
O21   O     O_2   0.431873 0.938268 0.175678 -0.486385
N6    N     N_R   0.237803 0.399985 0.648295 0.190310
O22   O     O_R   0.235523 0.279830 0.630939 -0.278882
O23   O     O_R   0.207388 0.453155 0.729023 -0.334180
N7    N     N_R   0.570342 0.862844 0.798171 0.237251
O24   O     O_R   0.612463 0.902577 0.757471 -0.292008
O25   O     O_R   0.568929 0.770664 0.885346 -0.332464
N8    N     N_R   0.477992 0.108726 0.803296 0.247738
O26   O     O_R   0.479293 0.185520 0.903859 -0.337499
O27   O     O_R   0.435908 0.070798 0.756427 -0.276645
C62   C     C_2   0.574999 0.367866 0.868092 0.470649
H17   H     H_    0.568168 0.327000 0.770998 0.082087
O28   O     O_2   0.614479 0.348688 0.924838 -0.552022
N9    N     N_R   0.384549 0.651866 0.855283 0.217359
O29   O     O_R   0.337100 0.653879 0.858238 -0.320982
O30   O     O_R   0.407002 0.739425 0.788807 -0.350135
N10   N     N_R   0.396271 0.420097 0.122260 0.240041
O31   O     O_R   0.421331 0.319638 0.097030 -0.312918
O32   O     O_R   0.354812 0.409283 0.182755 -0.319880
C63   C     C_2   0.117851 0.313088 0.265736 0.569314
H18   H     H_    0.110630 0.285353 0.162126 0.052065
O33   O     O_2   0.142395 0.244572 0.340726 -0.429326
N11   N     N_R   0.626543 0.728094 0.388233 0.177744
O34   O     O_R   0.618501 0.832177 0.450462 -0.363882
O35   O     O_R   0.609446 0.714552 0.265491 -0.331495
C64   C     C_2   0.727140 0.785165 0.367213 0.585554
H19   H     H_    0.701499 0.835589 0.300940 0.132185
O36   O     O_2   0.768201 0.827462 0.380376 -0.524278
C65   C     C_2   0.867495 0.517780 0.108113 0.502726
H20   H     H_    0.883479 0.451490 0.039500 0.061526
O37   O     O_2   0.830669 0.575022 0.071646 -0.512037
C66   C     C_2   0.015058 0.333847 0.264184 0.424359
H21   H     H_    0.024881 0.284450 0.173657 0.055008
O38   O     O_2   0.980778 0.295749 0.329729 -0.478109

loop_
_geom_bond_atom_site_label_1
_geom_bond_atom_site_label_2
_geom_bond_distance
_ccdc_geom_bond_type
C44   C61   1.489306 S    
C38   C39   1.400353 A    
C38   H3    1.082583 S    
C17   C29   1.409330 A    
C28   C29   1.400284 A    
C7    C11   1.410563 A    
C7    C8    1.389035 A    
C12   C15   1.418019 A    
C49   C52   1.408693 A    
C51   N4    1.382716 A    
C49   C54   1.502195 S    
C59   H14   1.084792 S    
C6    O11   1.348973 S    
C3    C45   1.413825 S    
C52   C53   1.497103 S    
C39   C58   1.485761 S    
C54   N10   1.465595 S    
C43   H4    1.084841 S    
C20   C24   1.409406 A    
C24   C25   1.420337 A    
C53   N9    1.463419 S    
O2    C1    1.282254 A    
N7    O25   1.300593 A    
C48   N8    1.464741 S    
C28   C64   1.495387 S    
Zn2   O6    2.002500 S    
O7    C4    1.296642 A    
C53   H8    1.111659 S    
C5    C13   1.408664 A    
N6    O22   1.301212 A    
C5    O9    1.349280 S    
C5    N1    1.361498 A    
C22   C23   1.421817 A    
C50   H7    1.082280 S    
O5    C3    1.286775 A    
N9    O29   1.300599 A    
C43   C44   1.388376 A    
C25   C39   1.425289 A    
C47   N7    1.463820 S    
C2    C16   1.456960 S    
C23   C24   1.417933 A    
C62   O28   1.221296 D    
N2    C32   1.431191 S    
C56   O14   1.220175 D    
C46   C47   1.499286 S    
C41   C46   1.365092 A    
C9    C10   1.409137 A    
C17   C30   1.411957 A    
C50   C51   1.421268 A    
C58   H13   1.081216 S    
C14   C63   1.487828 S    
C19   C35   1.418221 A    
O3    Zn1   1.979375 S    
N8    O27   1.302262 A    
N8    O26   1.299417 A    
C59   O19   1.220527 D    
Zn1   O7    1.996572 S    
C33   C36   1.423308 A    
C1    C42   1.408781 S    
C26   N2    1.364535 A    
Zn2   N3    2.016855 S    
C47   C48   1.523134 S    
C12   C34   1.408060 A    
C18   C33   1.415719 A    
C40   C60   1.491178 S    
C12   C13   1.417555 A    
C66   O38   1.221455 D    
N2    C27   1.363467 A    
C54   H9    1.112863 S    
C53   C54   1.522461 S    
N3    C50   1.358070 A    
C8    C16   1.397837 A    
C22   C65   1.483388 S    
C13   C14   1.421903 A    
C56   H11   1.085985 S    
C30   C57   1.498276 S    
C35   C40   1.420597 A    
C41   C42   1.386155 A    
O1    C1    1.284827 A    
C64   O36   1.220099 D    
C30   C31   1.416097 A    
N11   O35   1.300949 A    
C25   C26   1.411791 A    
C57   O17   1.220573 D    
C26   O12   1.347194 S    
C31   C59   1.490719 S    
C33   C34   1.416715 A    
Zn2   O8    1.979375 S    
C60   O20   1.221418 D    
N1    C6    1.361537 A    
C61   O21   1.221559 D    
N1    C11   1.429413 S    
N4    C52   1.362557 A    
C58   O18   1.221498 D    
N10   O31   1.301634 A    
C29   N11   1.435583 S    
C8    H2    1.083217 S    
C34   C35   1.418288 A    
C9    C16   1.412716 A    
N5    O16   1.301117 A    
C55   H10   1.084946 S    
C55   O13   1.220635 D    
C65   H20   1.085709 S    
O3    C2    1.294266 A    
C51   C62   1.471908 S    
C27   O10   1.348926 S    
C4    C17   1.460140 S    
N11   O34   1.300351 A    
C57   H12   1.081424 S    
C31   C32   1.418449 A    
C63   O33   1.221397 D    
Zn1   O5    1.990716 S    
C18   C21   1.402208 A    
O1    Zn1   2.002502 S    
C19   C20   1.404255 A    
O2    Zn2   1.990717 S    
C6    C15   1.407581 A    
O8    C4    1.290935 A    
C66   H21   1.084437 S    
C7    C56   1.487530 S    
O6    C3    1.282412 A    
O4    Zn2   1.996575 S    
C37   C40   1.406733 A    
C15   C37   1.416695 A    
Zn1   N4    2.016490 S    
C21   H1    1.083767 S    
C19   C38   1.403386 A    
C44   C45   1.417959 A    
C14   C36   1.411287 A    
C64   H19   1.084387 S    
C49   N3    1.365614 A    
C10   N6    1.437279 S    
N7    O24   1.302267 A    
C18   C20   1.405673 A    
C9    C55   1.487618 S    
O4    C2    1.294421 A    
N6    O23   1.300798 A    
C60   H15   1.083999 S    
C21   C22   1.394267 A    
C23   C27   1.402137 A    
C37   N5    1.434718 S    
C42   C43   1.399236 A    
N9    O30   1.301619 A    
N10   O32   1.300330 A    
N5    O15   1.300950 A    
C41   C48   1.503463 S    
C48   H6    1.111834 S    
C45   C46   1.392522 A    
C61   H16   1.081868 S    
C65   O37   1.220737 D    
C28   C32   1.412178 A    
C10   C11   1.412717 A    
C36   C66   1.492478 S    
C47   H5    1.112636 S    
C62   H17   1.073849 S    
C63   H18   1.084855 S    
