data_mof_unit_44527.cif
_audit_creation_date              2012-12-10T17:31:59-0500
_audit_creation_method            fapswitch 2.2
_symmetry_space_group_name_H-M    P1
_symmetry_Int_Tables_number       1
_space_group_crystal_system       triclinic
_cell_length_a                    11.992572
_cell_length_b                    11.542315
_cell_length_c                    12.845525
_cell_angle_alpha                 90.209757
_cell_angle_beta                  94.333736
_cell_angle_gamma                 86.430086
_cell_volume                      1769.57848199

loop_
_atom_site_label
_atom_site_type_symbol
_atom_type_description
_atom_site_fract_x
_atom_site_fract_y
_atom_site_fract_z
_atom_type_partial_charge
C1    C     C_R   0.476781 0.501675 0.299511 0.923065
C2    C     C_R   0.975432 0.547900 0.526703 -0.100457
C3    C     C_R   0.499688 0.281909 0.499845 0.918804
C4    C     C_R   0.500228 0.718083 0.499784 0.883136
C5    C     C_1   0.499136 0.161507 0.499392 -0.116845
C6    C     C_1   0.500487 0.838473 0.499202 -0.143623
C7    C     C_1   0.499345 0.059328 0.499040 0.062378
C8    C     C_1   0.500034 0.940655 0.498933 0.051687
C9    C     C_R   0.539189 0.491045 0.812956 -0.247506
C10   C     C_R   0.460025 0.503155 0.187705 -0.250427
C11   C     C_R   0.357566 0.566956 0.026973 0.383516
C12   C     C_R   0.523339 0.497756 0.700762 0.946245
C13   C     C_R   0.629567 0.403707 0.971148 0.285848
C14   C     C_R   0.366939 0.563756 0.136088 0.370286
C15   C     C_R   0.631116 0.427540 0.864183 0.358075
C16   C     C_R   0.542533 0.446214 0.133254 -0.210278
C17   C     C_R   0.452606 0.539979 0.867428 -0.188206
C18   C     C_R   0.540676 0.455389 0.025963 -0.060562
C19   C     C_R   0.449407 0.520903 0.972988 -0.064862
C20   C     C_3   0.804286 0.456461 0.811973 0.161046
C21   C     C_3   0.903555 0.398956 0.760345 -0.630297
C22   C     C_3   0.312970 0.732186 0.215790 0.119807
C23   C     C_R   0.045878 0.628374 0.577453 0.304622
C24   C     C_3   0.227038 0.788765 0.284365 -0.639955
C25   C     C_R   0.953458 0.375729 0.417089 0.374773
C26   C     C_R   0.162323 0.611342 0.573022 -0.086436
C27   C     C_R   0.837276 0.390855 0.424141 -0.026579
C28   C     C_R   0.142216 0.443954 0.467814 0.064659
C29   C     C_R   0.857641 0.557162 0.530677 -0.016229
C30   C     C_R   0.024225 0.454515 0.470011 -0.126023
H1    H     H_    0.387757 0.594313 0.825482 0.237813
H2    H     H_    0.970241 0.460991 0.756639 0.207495
H3    H     H_    0.938076 0.321665 0.805986 0.287290
H4    H     H_    0.312549 0.784371 0.143019 0.185006
H5    H     H_    0.397009 0.733709 0.259008 0.098013
H6    H     H_    0.225250 0.738104 0.357509 0.254139
H7    H     H_    0.249323 0.878484 0.304589 0.210424
H8    H     H_    0.142522 0.792240 0.242277 0.275622
H9    H     H_    0.132480 0.588266 0.818358 0.380628
H10   H     H_    0.841343 0.443407 0.082414 0.351061
H11   H     H_    0.131313 0.802822 0.747000 0.389268
H12   H     H_    0.611109 0.399234 0.177119 0.250602
H13   H     H_    0.935895 0.125161 0.242509 0.413323
H14   H     H_    0.816702 0.624718 0.574957 0.206454
H15   H     H_    0.183320 0.375412 0.424768 0.202096
H16   H     H_    0.781753 0.331596 0.384927 0.206893
H17   H     H_    0.217656 0.671557 0.611043 0.178934
H18   H     H_    0.832970 0.477893 0.893853 0.144218
H19   H     H_    0.777295 0.538676 0.769788 0.160038
H20   H     H_    0.876948 0.371078 0.679974 0.240440
N1    N     N_R   0.792200 0.479100 0.480660 -0.152939
N2    N     N_R   0.207800 0.520900 0.519340 -0.137697
O1    O     O_R   0.578300 0.494420 0.341180 -0.624418
O2    O     O_3   0.284516 0.617473 0.192534 -0.540176
O3    O     O_2   0.136611 0.637181 0.030169 -0.204317
O4    O     O_2   0.252729 0.746762 0.921849 -0.341494
O5    O     O_3   0.194857 0.543390 0.857696 -0.562455
O6    O     O_2   0.678484 0.214316 0.090848 -0.238197
O7    O     O_2   0.808687 0.245224 0.958640 -0.203945
O8    O     O_3   0.814852 0.378257 0.121913 -0.505029
O9    O     O_2   0.908940 0.820919 0.570049 -0.226953
O10   O     O_2   0.934484 0.716231 0.736064 -0.335298
O11   O     O_3   0.095490 0.839118 0.682204 -0.485824
O12   O     O_R   0.421700 0.505580 0.658820 -0.609058
O13   O     O_2   0.068625 0.305201 0.255721 -0.253591
O14   O     O_2   0.083702 0.179371 0.410198 -0.291166
O15   O     O_3   0.900102 0.182724 0.288908 -0.483706
O16   O     O_R   0.390690 0.507830 0.353590 -0.567282
O17   O     O_R   0.609310 0.492170 0.646410 -0.597453
O18   O     O_R   0.593810 0.327740 0.493800 -0.606754
O19   O     O_R   0.406190 0.672260 0.506200 -0.630849
O20   O     O_R   0.406190 0.341150 0.506220 -0.609899
O21   O     O_R   0.593810 0.658850 0.493780 -0.604293
O22   O     O_3   0.716426 0.379881 0.807754 -0.557333
S1    S     S_3+6 0.231674 0.627794 0.960133 0.037588
S2    S     S_3+6 0.734787 0.305394 0.034159 0.072918
S3    S     S_3+6 0.992379 0.752910 0.642878 0.033552
S4    S     S_3+6 0.005676 0.258483 0.341658 0.057497
Zn1   Zn    Zn3+2 0.625270 0.491050 0.491710 0.991563
Zn2   Zn    Zn3+2 0.374730 0.508950 0.508290 0.997588

loop_
_geom_bond_atom_site_label_1
_geom_bond_atom_site_label_2
_ccdc_geom_bond_type
O16   Zn2   S    
C12   O17   A    
H10   O8    S    
O10   S3    D    
O6    S2    D    
C7    C8    S    
C22   O2    S    
C22   H5    S    
C11   C19   A    
C24   H6    S    
C13   C18   A    
C2    C29   A    
O1    Zn1   S    
C29   N1    A    
C12   O12   A    
C11   C14   A    
C21   H3    S    
H9    O5    S    
C1    O16   A    
C18   C19   A    
C23   C26   A    
C1    O1    A    
O19   Zn2   S    
O9    S3    D    
C24   H8    S    
O3    S1    D    
O4    S1    D    
O12   Zn2   S    
O15   S4    S    
O14   S4    D    
C21   H20   S    
C27   N1    A    
C22   H4    S    
C21   H2    S    
C28   H15   S    
C25   S4    S    
C3    O18   A    
C4    C6    S    
C10   C14   A    
C5    C7    T    
C6    C8    T    
O8    S2    S    
C20   H19   S    
C26   N2    A    
C13   S2    S    
C24   H7    S    
O21   Zn1   S    
C20   O22   S    
C23   S3    S    
C4    O21   A    
C20   H18   S    
C26   H17   S    
C27   H16   S    
C16   C18   A    
C14   O2    S    
C13   C15   A    
C29   H14   S    
C17   H1    S    
C22   C24   S    
O17   Zn1   S    
H11   O11   S    
C16   H12   S    
O11   S3    S    
C9    C17   A    
C25   C30   A    
O13   S4    D    
O18   Zn1   S    
C1    C10   S    
C3    C5    S    
C25   C27   A    
C2    C30   A    
O5    S1    S    
C28   C30   A    
C3    O20   A    
C9    C15   A    
O20   Zn2   S    
C10   C16   A    
C28   N2    A    
C17   C19   A    
C9    C12   S    
N1    Zn1   S    
C15   O22   S    
C20   C21   S    
H13   O15   S    
C2    C23   A    
C11   S1    S    
N2    Zn2   S    
O7    S2    D    
C4    O19   A    
