data_mof_unit_44575.cif
_audit_creation_date              2012-12-11T16:28:25-0500
_audit_creation_method            fapswitch 2.2
_symmetry_space_group_name_H-M    P1
_symmetry_Int_Tables_number       1
_space_group_crystal_system       triclinic
_cell_length_a                    16.829616
_cell_length_b                    7.304328
_cell_length_c                    14.923174
_cell_angle_alpha                 89.99996
_cell_angle_beta                  94.369734
_cell_angle_gamma                 89.999874
_cell_volume                      1829.15877365

loop_
_atom_site_label
_atom_site_type_symbol
_atom_type_description
_atom_site_fract_x
_atom_site_fract_y
_atom_site_fract_z
_atom_type_partial_charge
O1    O     O_R   0.663460 0.361760 0.165970 -0.524343
O2    O     O_R   0.336540 0.638240 0.834030 -0.533331
O3    O     O_R   0.836540 0.861760 0.334030 -0.524336
O4    O     O_R   0.163460 0.138240 0.665970 -0.533331
O5    O     O_R   0.827100 0.689870 0.163730 -0.530341
O6    O     O_R   0.172900 0.310130 0.836270 -0.530954
O7    O     O_R   0.672900 0.189870 0.336270 -0.530346
O8    O     O_R   0.327100 0.810130 0.663730 -0.530953
C1    C     C_R   0.853774 0.523116 0.144445 0.833206
C2    C     C_R   0.146017 0.476819 0.855293 0.832700
C3    C     C_R   0.646226 0.023116 0.355556 0.833205
C4    C     C_R   0.353983 0.976819 0.644707 0.832701
O9    O     O_R   0.663490 0.691370 0.155500 -0.532392
O10   O     O_R   0.336510 0.308630 0.844500 -0.527031
O11   O     O_R   0.836510 0.191370 0.344500 -0.532398
O12   O     O_R   0.163490 0.808630 0.655500 -0.527031
O13   O     O_R   0.671770 0.863320 0.325740 -0.538963
O14   O     O_R   0.328230 0.136680 0.674260 -0.541116
O15   O     O_R   0.828230 0.363320 0.174260 -0.538968
O16   O     O_R   0.171770 0.636680 0.825740 -0.541116
C5    C     C_R   0.632581 0.523931 0.138408 0.824570
C6    C     C_R   0.365936 0.476838 0.863499 0.807156
C7    C     C_R   0.867419 0.023930 0.361592 0.824572
C8    C     C_R   0.134063 0.976838 0.636501 0.807157
O17   O     O_3   0.752910 0.528800 0.305860 -0.390195
O18   O     O_3   0.247090 0.471200 0.694140 -0.386145
O19   O     O_3   0.747090 0.028800 0.194140 -0.390197
O20   O     O_3   0.252910 0.971200 0.805860 -0.386145
V1    V     V_3+5 0.749460 0.803010 0.239640 1.449211
V2    V     V_3+5 0.250540 0.196990 0.760360 1.453915
V3    V     V_3+5 0.750540 0.303010 0.260360 1.449197
V4    V     V_3+5 0.249460 0.696990 0.739640 1.453916
C9    C     C_1   0.469154 0.994471 0.530514 -0.010649
C10   C     C_1   0.531168 0.005172 0.469879 -0.023858
C11   C     C_1   0.030846 0.494471 0.969486 -0.010646
C12   C     C_1   0.968832 0.505172 0.030122 -0.023854
C13   C     C_R   0.040757 0.071297 0.315454 -0.086251
C14   C     C_R   0.961365 0.964715 0.687134 -0.080400
C15   C     C_R   0.459243 0.571300 0.184545 -0.086262
C16   C     C_R   0.538635 0.464706 0.812867 -0.080399
C17   C     C_R   0.121639 0.072660 0.296733 0.532448
C18   C     C_R   0.879802 0.947328 0.704294 0.557207
C19   C     C_R   0.378361 0.572661 0.203267 0.532447
C20   C     C_R   0.620198 0.447312 0.795707 0.557208
C21   C     C_R   0.182525 0.045677 0.363478 -0.084882
C22   C     C_R   0.819022 0.960342 0.635778 -0.082372
C23   C     C_R   0.317475 0.545677 0.136522 -0.084888
C24   C     C_R   0.680978 0.460340 0.864223 -0.082373
C25   C     C_R   0.162121 0.014898 0.451060 0.465849
C26   C     C_R   0.839367 0.985088 0.547848 0.459933
C27   C     C_R   0.337879 0.514899 0.048940 0.465852
C28   C     C_R   0.660632 0.485097 0.952152 0.459933
C29   C     C_R   0.081229 0.011801 0.475560 -0.055602
C30   C     C_R   0.919955 0.994428 0.523839 -0.052524
C31   C     C_R   0.418771 0.511802 0.024440 -0.055601
C32   C     C_R   0.580045 0.494430 0.976161 -0.052524
C33   C     C_R   0.017921 0.034846 0.406272 -0.121491
C34   C     C_R   0.983134 0.982527 0.594083 -0.132272
C35   C     C_R   0.482079 0.534848 0.093728 -0.121492
C36   C     C_R   0.516866 0.482524 0.905918 -0.132272
C37   C     C_R   0.064440 0.987909 0.568102 -0.075187
C38   C     C_R   0.936684 0.018131 0.431030 -0.079504
C39   C     C_R   0.435559 0.487908 0.931898 -0.075186
C40   C     C_R   0.563315 0.518134 0.068970 -0.079502
C41   C     C_1   0.416583 0.986057 0.582320 -0.182707
C42   C     C_1   0.583755 0.013797 0.418102 -0.195832
C43   C     C_1   0.083417 0.486058 0.917680 -0.182706
C44   C     C_1   0.916246 0.513797 0.081898 -0.195833
F1    F     F_    0.224676 0.984596 0.511719 -0.721591
F2    F     F_    0.776686 0.001065 0.485952 -0.721347
F3    F     F_    0.275324 0.484597 0.988282 -0.721591
F4    F     F_    0.723314 0.501093 0.014047 -0.721346
F5    F     F_    0.139965 0.102585 0.210886 -0.739838
F6    F     F_    0.858602 0.914760 0.788193 -0.756788
F7    F     F_    0.360036 0.602582 0.289114 -0.739833
F8    F     F_    0.641398 0.414722 0.711809 -0.756789
C45   C     C_3   0.729483 0.949662 0.650082 -0.266162
C46   C     C_3   0.703044 0.940715 0.746664 -0.230697
C47   C     C_3   0.612318 0.942799 0.747051 -0.810627
H1    H     H_    0.587501 0.070878 0.716466 0.259871
H2    H     H_    0.586153 0.824408 0.708841 0.236973
H3    H     H_    0.595054 0.934100 0.817285 0.222124
H4    H     H_    0.724488 0.812894 0.780082 0.241299
H5    H     H_    0.726840 0.059072 0.786720 0.239658
H6    H     H_    0.700483 0.072638 0.617985 0.226488
H7    H     H_    0.704633 0.827958 0.612884 0.197229
C48   C     C_3   0.271537 0.054728 0.347489 -0.276531
C49   C     C_3   0.295275 0.059035 0.249635 -0.216906
C50   C     C_3   0.385502 0.063296 0.245503 -0.810792
H8    H     H_    0.407360 0.205193 0.254089 0.224435
H9    H     H_    0.415339 0.978507 0.299336 0.247496
H10   H     H_    0.401778 0.012730 0.179139 0.224966
H11   H     H_    0.271497 0.936492 0.212927 0.234530
H12   H     H_    0.271863 0.182931 0.214155 0.246057
H13   H     H_    0.297374 0.177100 0.383236 0.193504
H14   H     H_    0.300756 0.932210 0.379725 0.235308
C51   C     C_3   0.770517 0.449663 0.849918 -0.266164
C52   C     C_3   0.796956 0.440717 0.753336 -0.230702
C53   C     C_3   0.887681 0.442817 0.752948 -0.810629
H15   H     H_    0.912494 0.570903 0.783531 0.259866
H16   H     H_    0.913851 0.324433 0.791160 0.236978
H17   H     H_    0.904945 0.434118 0.682713 0.222124
H18   H     H_    0.775516 0.312890 0.719920 0.241306
H19   H     H_    0.773154 0.559067 0.713278 0.239646
H20   H     H_    0.799516 0.572642 0.882014 0.226486
H21   H     H_    0.795368 0.327961 0.887117 0.197231
C54   C     C_3   0.228463 0.554727 0.152513 -0.276527
C55   C     C_3   0.204727 0.559038 0.250367 -0.216913
C56   C     C_3   0.114501 0.563306 0.254501 -0.810810
H22   H     H_    0.092643 0.705199 0.245889 0.224444
H23   H     H_    0.084664 0.478477 0.200683 0.247507
H24   H     H_    0.098227 0.512791 0.320875 0.224968
H25   H     H_    0.228504 0.436493 0.287075 0.234535
H26   H     H_    0.228140 0.682933 0.285846 0.246062
H27   H     H_    0.202625 0.677099 0.116765 0.193504
H28   H     H_    0.199245 0.432209 0.120278 0.235308
C57   C     C_3   0.986063 0.119241 0.232822 -0.305812
C58   C     C_3   0.972804 0.955952 0.169518 -0.313129
C59   C     C_3   0.920621 0.007042 0.084923 -0.680721
H29   H     H_    0.861015 0.052186 0.101788 0.259021
H30   H     H_    0.948801 0.119011 0.048475 0.222793
H31   H     H_    0.913260 0.887477 0.039353 0.222546
H32   H     H_    0.030558 0.906764 0.147912 0.232667
H33   H     H_    0.946623 0.843079 0.206509 0.187718
H34   H     H_    0.931387 0.184981 0.247306 0.162420
H35   H     H_    0.012839 0.229876 0.194484 0.210439
C60   C     C_3   0.024142 0.967611 0.767915 -0.333305
C61   C     C_3   0.000078 0.955492 0.865395 -0.277247
C62   C     C_3   0.072646 0.972620 0.933340 -0.742151
H36   H     H_    0.125320 0.901380 0.910278 0.256763
H37   H     H_    0.088161 0.118109 0.945152 0.243928
H38   H     H_    0.059360 0.910834 0.998187 0.227473
H39   H     H_    0.957978 0.067024 0.879512 0.236834
H40   H     H_    0.972253 0.820315 0.876325 0.242916
H41   H     H_    0.062759 0.847353 0.761012 0.173608
H42   H     H_    0.056996 0.098319 0.764748 0.176732
C63   C     C_3   0.513936 0.619246 0.267177 -0.305809
C64   C     C_3   0.527197 0.455954 0.330479 -0.313121
C65   C     C_3   0.579379 0.507044 0.415076 -0.680726
H43   H     H_    0.638984 0.552190 0.398212 0.259022
H44   H     H_    0.551196 0.619011 0.451524 0.222795
H45   H     H_    0.586740 0.387479 0.460646 0.222545
H46   H     H_    0.469443 0.406759 0.352084 0.232670
H47   H     H_    0.553380 0.343086 0.293488 0.187716
H48   H     H_    0.568612 0.684988 0.252692 0.162418
H49   H     H_    0.487159 0.729880 0.305515 0.210445
C66   C     C_3   0.475858 0.467601 0.732085 -0.333306
C67   C     C_3   0.499923 0.455481 0.634606 -0.277249
C68   C     C_3   0.427355 0.472618 0.566660 -0.742152
H50   H     H_    0.374680 0.401379 0.589721 0.256762
H51   H     H_    0.411842 0.618109 0.554850 0.243927
H52   H     H_    0.440641 0.410835 0.501813 0.227475
H53   H     H_    0.542025 0.567008 0.620490 0.236829
H54   H     H_    0.527745 0.320301 0.623675 0.242920
H55   H     H_    0.437241 0.347344 0.738988 0.173611
H56   H     H_    0.443005 0.598310 0.735252 0.176731

loop_
_geom_bond_atom_site_label_1
_geom_bond_atom_site_label_2
_ccdc_geom_bond_type
O17   V3    S    
C48   C49   S    
C15   C63   S    
O1    C5    A    
C8    C37   S    
C16   C36   A    
C31   C35   A    
O19   V1    S    
O13   V1    S    
O3    C7    A    
C66   C67   S    
O15   V3    S    
C61   C62   S    
C10   C42   T    
C14   C60   S    
C9    C41   T    
C33   C38   A    
C45   C46   S    
O7    C3    A    
C24   C51   S    
C35   C40   A    
C26   C30   A    
C27   F3    S    
C36   C39   A    
O9    V1    S    
C21   C48   S    
C60   H41   S    
C14   C18   A    
C64   H46   S    
C56   H23   S    
O16   V4    S    
O4    C8    A    
C65   H45   S    
C25   C29   A    
C68   H50   S    
C52   H18   S    
O1    V3    S    
C55   C56   S    
O2    V4    S    
C18   C22   A    
C55   H26   S    
O3    V1    S    
C58   C59   S    
C5    C40   S    
C6    C39   S    
C14   C34   A    
C29   C37   A    
C46   H4    S    
C1    O15   A    
C7    C38   S    
C11   C12   S    
C2    O16   A    
C31   C39   A    
O2    C6    A    
C54   C55   S    
C32   C40   A    
O14   V2    S    
C11   C43   T    
C50   H9    S    
C66   H55   S    
C57   H35   S    
C16   C20   A    
C3    C42   S    
C62   H38   S    
C51   H20   S    
C34   C37   A    
O11   C7    A    
C45   H6    S    
O12   C8    A    
C25   F1    S    
C67   H54   S    
O10   V2    S    
C51   C52   S    
O5    V1    S    
C59   H30   S    
C19   F7    S    
C65   H43   S    
C49   H12   S    
C18   F6    S    
O7    V3    S    
C28   C32   A    
O8    V4    S    
C63   H49   S    
C60   H42   S    
C68   H52   S    
C47   H2    S    
C29   C33   A    
C46   C47   S    
C15   C19   A    
C30   C38   A    
C2    C43   S    
C32   C36   A    
C48   H13   S    
C55   H25   S    
O5    C1    A    
C28   F4    S    
C61   H40   S    
C22   C45   S    
C4    C41   S    
C53   H15   S    
C21   C25   A    
O8    C4    A    
C15   C35   A    
C48   H14   S    
C9    C10   S    
O9    C5    A    
C58   H33   S    
C67   C68   S    
C50   H10   S    
C66   H56   S    
C54   H27   S    
C51   H21   S    
O6    V2    S    
C45   H7    S    
C23   C54   S    
C56   H24   S    
C67   H53   S    
C4    O14   A    
C60   C61   S    
C62   H36   S    
C30   C34   A    
C59   H31   S    
C63   H48   S    
C49   H11   S    
C3    O13   A    
C16   C66   S    
C53   H16   S    
O6    C2    A    
C47   H3    S    
C23   C27   A    
C59   H29   S    
C12   C44   T    
O11   V3    S    
O18   V4    S    
O12   V4    S    
C63   C64   S    
C22   C26   A    
O10   C6    A    
C68   H51   S    
C26   F2    S    
C1    C44   S    
C64   H47   S    
C61   H39   S    
C65   H44   S    
C19   C23   A    
C52   H19   S    
O20   V2    S    
C27   C31   A    
C58   H32   S    
C13   C17   A    
O4    V2    S    
C54   H28   S    
C64   C65   S    
C17   F5    S    
C47   H1    S    
C46   H5    S    
C24   C28   A    
C53   H17   S    
C13   C57   S    
C49   C50   S    
C52   C53   S    
C56   H22   S    
C17   C21   A    
C20   F8    S    
C50   H8    S    
C57   C58   S    
C57   H34   S    
C13   C33   A    
C20   C24   A    
C62   H37   S    
