data_mof_unit_27246.cif
_audit_creation_date              2012-12-10T18:09:03-0500
_audit_creation_method            fapswitch 2.2
_symmetry_space_group_name_H-M    P1
_symmetry_Int_Tables_number       1
_space_group_crystal_system       triclinic
_cell_length_a                    12.627439
_cell_length_b                    13.179619
_cell_length_c                    13.638864
_cell_angle_alpha                 90.899192
_cell_angle_beta                  95.725708
_cell_angle_gamma                 98.110063
_cell_volume                      2234.91234804

loop_
_atom_site_label
_atom_site_type_symbol
_atom_type_description
_atom_site_fract_x
_atom_site_fract_y
_atom_site_fract_z
_atom_type_partial_charge
C1    C     C_R   0.560047 0.691223 0.511552 0.859251
C2    C     C_R   0.456194 0.030594 0.487138 -0.082069
C3    C     C_R   0.370981 0.999068 0.547459 -0.160851
C4    C     C_R   0.517090 0.496389 0.318509 0.868814
C5    C     C_R   0.369645 0.906660 0.598261 0.543524
C6    C     C_R   0.451570 0.848115 0.590131 -0.281545
C7    C     C_R   0.468390 0.132453 0.454342 0.409182
C8    C     C_R   0.309834 0.164392 0.530356 -0.372703
C9    C     C_R   0.597551 0.800415 0.504252 -0.110048
C10   C     C_R   0.893471 0.351518 0.644535 0.347993
C11   C     C_R   0.215950 0.638485 0.397480 -0.117714
C12   C     C_1   0.528691 0.494183 0.217510 -0.158250
C13   C     C_R   0.120959 0.683292 0.397226 0.475568
C14   C     C_R   0.037785 0.631737 0.445453 -0.274920
C15   C     C_R   0.045325 0.535797 0.486971 0.027969
C16   C     C_R   0.439831 0.309138 0.488618 0.892660
C17   C     C_R   0.146735 0.504083 0.498243 0.157493
C18   C     C_R   0.958576 0.476568 0.526570 -0.200227
C19   C     C_R   0.979460 0.401839 0.597282 -0.172798
C20   C     C_R   0.084996 0.378532 0.617132 0.528975
C21   C     C_R   0.165315 0.425776 0.562738 -0.319118
C22   C     C_R   0.850910 0.482667 0.491726 0.507298
C23   C     C_R   0.291541 0.063075 0.558949 0.573110
C24   C     C_R   0.792329 0.384074 0.627022 0.444591
C25   C     C_R   0.482494 0.502749 0.681404 0.882576
C26   C     C_1   0.469103 0.500977 0.781996 -0.185622
C27   C     C_2   0.452374 0.495899 0.970579 0.408006
C28   C     C_2   0.543392 0.492250 0.028456 0.401781
C29   C     C_1   0.538289 0.492749 0.131930 -0.033094
C30   C     C_1   0.458239 0.498730 0.867294 -0.065023
C31   C     C_3   0.725724 0.376360 0.776845 -0.159541
C32   C     C_3   0.187996 0.341426 0.757061 -0.213918
C33   C     C_3   0.872943 0.179018 0.659757 -0.141033
C34   C     C_R   0.401440 0.199965 0.485410 -0.218126
C35   C     C_3   0.807454 0.573555 0.351379 -0.195211
C36   C     C_3   0.198351 0.836695 0.331578 -0.332025
C37   C     C_3   0.223420 0.795711 0.631492 -0.244464
C38   C     C_3   0.108561 0.027753 0.548264 -0.260203
C39   C     C_R   0.684685 0.829021 0.450221 -0.334551
C40   C     C_R   0.688918 0.917778 0.395672 0.452666
C41   C     C_R   0.607735 0.978612 0.399606 -0.091100
C42   C     C_R   0.530957 0.962112 0.469465 0.030487
C43   C     C_R   0.527574 0.870970 0.522542 -0.005634
H1    H     H_    0.454387 0.782482 0.636742 0.167482
H2    H     H_    0.751581 0.460771 0.784812 0.152048
H3    H     H_    0.785055 0.334882 0.819011 0.193047
H4    H     H_    0.177725 0.418994 0.785078 0.136283
H5    H     H_    0.268822 0.342621 0.731281 0.141551
H6    H     H_    0.183667 0.289404 0.820121 0.211498
H7    H     H_    0.890062 0.116894 0.710299 0.180407
H8    H     H_    0.916864 0.170614 0.593880 0.151861
H9    H     H_    0.784703 0.168207 0.637995 0.176998
H10   H     H_    0.786016 0.627494 0.406609 0.127871
H11   H     H_    0.742304 0.561809 0.290158 0.180634
H12   H     H_    0.284150 0.673768 0.362230 0.153846
H13   H     H_    0.877854 0.606972 0.314419 0.170963
H14   H     H_    0.230817 0.803981 0.267196 0.186038
H15   H     H_    0.259593 0.848092 0.396760 0.143512
H16   H     H_    0.178658 0.913521 0.311218 0.201603
H17   H     H_    0.298865 0.500755 0.954884 0.331089
H18   H     H_    0.166261 0.775947 0.687254 0.192417
H19   H     H_    0.175823 0.814616 0.562975 0.172688
H20   H     H_    0.262817 0.726957 0.618805 0.148658
H21   H     H_    0.041107 0.990900 0.587522 0.189273
H22   H     H_    0.110297 0.980513 0.480154 0.159292
H23   H     H_    0.969648 0.670429 0.455407 0.145789
H24   H     H_    0.091434 0.105901 0.529143 0.172690
H25   H     H_    0.531392 0.222358 0.357918 0.330905
H26   H     H_    0.817173 0.891995 0.337191 0.337894
H27   H     H_    0.242577 0.402412 0.575049 0.214431
H28   H     H_    0.257758 0.217449 0.552198 0.200715
H29   H     H_    0.741631 0.777026 0.440535 0.138615
H30   H     H_    0.604928 0.033954 0.342861 0.223059
H31   H     H_    0.696993 0.487714 0.044046 0.340506
H32   H     H_    0.649162 0.359183 0.810751 0.203717
N1    N     N_R   0.773270 0.445590 0.549770 -0.192526
N2    N     N_R   0.227520 0.553880 0.450750 -0.137444
O1    O     O_R   0.631100 0.627590 0.523760 -0.631441
O2    O     O_3   0.707312 0.342234 0.677053 -0.573799
O3    O     O_3   0.106673 0.302177 0.681975 -0.566717
O4    O     O_3   0.908059 0.274193 0.709785 -0.565380
O5    O     O_3   0.823983 0.477824 0.390062 -0.564186
O6    O     O_3   0.103229 0.775117 0.353093 -0.612738
O7    O     O_3   0.355844 0.498049 0.010040 -0.778629
O8    O     O_3   0.298339 0.880893 0.667714 -0.546988
O9    O     O_3   0.204782 0.031873 0.611383 -0.540616
O10   O     O_3   0.554557 0.170842 0.404660 -0.765227
O11   O     O_3   0.766007 0.942737 0.331708 -0.753587
O12   O     O_R   0.455900 0.662370 0.491970 -0.621341
O13   O     O_R   0.600200 0.480080 0.377830 -0.585005
O14   O     O_R   0.425000 0.514870 0.346040 -0.586905
O15   O     O_R   0.544100 0.337630 0.508030 -0.517812
O16   O     O_R   0.368900 0.372410 0.476240 -0.639379
O17   O     O_R   0.575000 0.485130 0.653960 -0.567170
O18   O     O_R   0.399800 0.519920 0.622170 -0.645719
O19   O     O_3   0.639862 0.489926 0.988924 -0.810526
Zn1   Zn    Zn3+2 0.616980 0.476780 0.521230 1.013428
Zn2   Zn    Zn3+2 0.383020 0.523220 0.478770 0.930173

loop_
_geom_bond_atom_site_label_1
_geom_bond_atom_site_label_2
_ccdc_geom_bond_type
C15   C18   A    
C12   C29   T    
C35   H10   S    
C11   C13   A    
C41   C42   A    
C3    C23   A    
C19   C20   A    
C22   N1    A    
C36   H16   S    
C37   H19   S    
O18   Zn2   S    
C33   H9    S    
C16   O16   A    
C38   O9    S    
C22   O5    S    
C37   O8    S    
C27   O7    S    
C36   H15   S    
C5    C6    A    
C36   O6    S    
C33   H7    S    
C9    C39   A    
C8    C23   A    
C18   C19   A    
C11   N2    A    
C16   C34   S    
C7    O10   S    
C2    C7    A    
C31   H3    S    
C39   H29   S    
C4    C12   S    
O13   Zn1   S    
C38   H21   S    
C4    O14   A    
C5    O8    S    
C25   O17   A    
C6    H1    S    
C13   C14   A    
C35   H11   S    
C1    O1    A    
C32   H5    S    
C37   H20   S    
C35   O5    S    
O15   Zn1   S    
C4    O13   A    
C9    C43   A    
C20   O3    S    
H31   O19   S    
C1    C9    S    
C36   H14   S    
C39   C40   A    
C24   N1    A    
O17   Zn1   S    
C10   C24   A    
C25   C26   S    
O12   Zn2   S    
C23   O9    S    
C17   C21   A    
C32   O3    S    
C24   O2    S    
C31   H32   S    
C38   H22   S    
C10   C19   A    
O1    Zn1   S    
C17   N2    A    
C14   H23   S    
N2    Zn2   S    
C8    C34   A    
C38   H24   S    
H26   O11   S    
C40   C41   A    
C25   O18   A    
C6    C43   A    
C32   H4    S    
C16   O15   A    
C42   C43   A    
C11   H12   S    
C15   C17   A    
C28   C29   S    
C8    H28   S    
C1    O12   A    
C35   H13   S    
C18   C22   A    
C3    C5    A    
C37   H18   S    
C31   O2    S    
C33   H8    S    
C13   O6    S    
C10   O4    S    
C21   H27   S    
C28   O19   S    
C40   O11   S    
C2    C3    A    
N1    Zn1   S    
H17   O7    S    
C2    C42   A    
C7    C34   A    
O14   Zn2   S    
C32   H6    S    
C41   H30   S    
C20   C21   A    
C31   H2    S    
C27   C28   D    
H25   O10   S    
C14   C15   A    
C33   O4    S    
O16   Zn2   S    
C27   C30   S    
C26   C30   T    
