data_mof_unit_29486.cif
_audit_creation_date              2012-10-26T21:02:34-0400
_audit_creation_method            fapswitch 2.2
_symmetry_space_group_name_H-M    P1
_symmetry_Int_Tables_number       1
_space_group_crystal_system       triclinic
_cell_length_a                    12.359993
_cell_length_b                    13.132287
_cell_length_c                    14.92808
_cell_angle_alpha                 77.121192
_cell_angle_beta                  100.46039
_cell_angle_gamma                 116.795953
_cell_volume                      2099.27707706

loop_
_atom_site_label
_atom_site_type_symbol
_atom_type_description
_atom_site_fract_x
_atom_site_fract_y
_atom_site_fract_z
_atom_type_partial_charge
C1    C     C_R   0.854467 0.285743 0.513430 0.574862
C2    C     C_R   0.950735 0.399206 0.824897 -0.152786
C3    C     C_R   0.006647 0.505089 0.768258 0.008179
C4    C     C_R   0.002027 0.503402 0.670620 0.535919
C5    C     C_R   0.085457 0.605212 0.807116 0.002375
C6    C     C_R   0.275522 0.030427 0.388536 0.249777
C7    C     C_R   0.227273 0.837028 0.472610 -0.066296
C8    C     C_R   0.799811 0.089328 0.606018 0.181091
C9    C     C_R   0.706828 0.992011 0.649745 -0.070502
C10   C     C_R   0.585288 0.966176 0.620485 0.219379
C11   C     C_R   0.553984 0.024373 0.534252 -0.033675
C12   C     C_R   0.126276 0.592399 0.092499 0.024792
C13   C     C_R   0.647265 0.123243 0.489514 -0.090478
C14   C     C_R   0.433426 0.987158 0.490992 -0.067614
C15   C     C_R   0.400969 0.062469 0.419145 0.025691
C16   C     C_R   0.144966 0.713824 0.487070 0.514809
C17   C     C_R   0.494170 0.160544 0.374667 0.283349
C18   C     C_R   0.616388 0.182082 0.403745 0.248170
C19   C     C_R   0.347183 0.872662 0.511429 -0.151012
C20   C     C_R   0.190259 0.917689 0.415533 -0.102175
C21   C     C_R   0.769054 0.161803 0.531637 0.007309
C22   C     C_R   0.316429 0.294525 0.625174 -0.019483
C23   C     C_R   0.873033 0.302422 0.067793 -0.051842
C24   C     C_R   0.760286 0.648414 0.376080 0.368459
C25   C     C_R   0.655921 0.665734 0.340077 -0.082810
C26   C     C_R   0.545730 0.596511 0.377551 0.199342
C27   C     C_R   0.541923 0.518022 0.460878 -0.018954
C28   C     C_R   0.005817 0.506668 0.328459 0.540420
C29   C     C_R   0.647574 0.497248 0.491363 0.086609
C30   C     C_R   0.437715 0.458820 0.513760 -0.045389
C31   C     C_R   0.429124 0.362345 0.583775 0.014314
C32   C     C_R   0.534940 0.342214 0.613532 -0.014614
C33   C     C_R   0.640658 0.410749 0.567371 -0.079472
C34   C     C_R   0.879476 0.294371 0.977550 0.240237
C35   C     C_R   0.343271 0.495330 0.502050 -0.011218
C36   C     C_R   0.235226 0.344786 0.617814 0.413908
C37   C     C_R   0.107011 0.605150 0.180252 -0.003468
C38   C     C_R   0.015044 0.510750 0.231236 0.027409
C39   C     C_R   0.940891 0.410477 0.194038 -0.129587
C40   C     C_R   0.949315 0.403393 0.104560 -0.035960
C41   C     C_R   0.037470 0.496562 0.052179 0.015809
C42   C     C_3   0.172711 0.721220 0.214305 -0.305265
C43   C     C_3   0.086097 0.769549 0.226368 -0.426343
C44   C     C_3   0.539939 0.257988 0.701458 -0.291386
C45   C     C_R   0.954539 0.394394 0.919867 0.004655
C46   C     C_3   0.665410 0.273190 0.746848 -0.453144
C47   C     C_3   0.266603 0.163854 0.658543 -0.296452
C48   C     C_3   0.265217 0.099857 0.584449 -0.429968
C49   C     C_3   0.122527 0.724625 0.748326 -0.284690
C50   C     C_3   0.013220 0.752850 0.714305 -0.429443
C51   C     C_3   0.343026 0.709476 0.899772 -0.270014
C52   C     C_3   0.377530 0.611198 0.900459 -0.415555
C53   C     C_3   0.357789 0.716423 0.100050 -0.277583
C54   C     C_3   0.421400 0.849346 0.081147 -0.444057
C55   C     C_R   0.035679 0.494154 0.958694 -0.002097
C56   C     C_R   0.115264 0.592311 0.903883 0.026241
C57   C     C_R   0.227067 0.664765 0.948213 0.018158
C58   C     C_R   0.233484 0.664549 0.045107 0.013331
Cu1   Cu    Cu3+1 0.098270 0.475420 0.521130 1.023950
Cu2   Cu    Cu3+1 0.901730 0.524580 0.478870 0.992679
H1    H     H_    0.374506 0.808309 0.553686 0.194968
H2    H     H_    0.008853 0.750560 0.171608 0.171423
H3    H     H_    0.052530 0.732365 0.294868 0.220220
H4    H     H_    0.135327 0.864724 0.223635 0.163324
H5    H     H_    0.229898 0.714053 0.279943 0.163901
H6    H     H_    0.231260 0.787761 0.163138 0.170725
H7    H     H_    0.536752 0.297070 0.278760 0.369149
H8    H     H_    0.280948 0.182676 0.352782 0.353981
H9    H     H_    0.925346 0.060364 0.692265 0.307029
H10   H     H_    0.436259 0.916506 0.675590 0.313972
H11   H     H_    0.766752 0.226430 0.352885 0.304373
H12   H     H_    0.728653 0.942047 0.712473 0.129666
H13   H     H_    0.165978 0.262498 0.733128 0.288783
H14   H     H_    0.711139 0.247871 0.703998 0.143083
H15   H     H_    0.720098 0.363988 0.758502 0.165141
H16   H     H_    0.655451 0.215617 0.814560 0.199704
H17   H     H_    0.496173 0.269996 0.754552 0.156876
H18   H     H_    0.492245 0.168096 0.687055 0.159341
H19   H     H_    0.199834 0.108506 0.524879 0.183278
H20   H     H_    0.356303 0.134971 0.559797 0.155534
H21   H     H_    0.236539 0.006734 0.612726 0.133328
H22   H     H_    0.312905 0.140469 0.724774 0.118619
H23   H     H_    0.875703 0.337428 0.234937 0.133961
H24   H     H_    0.170098 0.126314 0.673326 0.178257
H25   H     H_    0.858359 0.775295 0.287271 0.291303
H26   H     H_    0.378387 0.520508 0.330008 0.328294
H27   H     H_    0.849591 0.180335 0.901983 0.322964
H28   H     H_    0.947349 0.694903 0.666605 0.191751
H29   H     H_    0.966159 0.745343 0.773827 0.151326
H30   H     H_    0.044874 0.842908 0.676750 0.135463
H31   H     H_    0.184932 0.793604 0.788981 0.137477
H32   H     H_    0.169314 0.731185 0.688975 0.147935
H33   H     H_    0.464663 0.646202 0.868964 0.160628
H34   H     H_    0.347527 0.572303 0.455482 0.179665
H35   H     H_    0.388761 0.567785 0.972028 0.153054
H36   H     H_    0.306040 0.546296 0.859691 0.170658
H37   H     H_    0.334220 0.748892 0.827141 0.163210
H38   H     H_    0.421059 0.778828 0.931344 0.159510
H39   H     H_    0.366426 0.886095 0.029104 0.158957
H40   H     H_    0.437864 0.884814 0.145813 0.159384
H41   H     H_    0.511703 0.879355 0.055868 0.158706
H42   H     H_    0.350675 0.686628 0.175103 0.199632
H43   H     H_    0.417885 0.681490 0.084674 0.158676
H44   H     H_    0.658356 0.728741 0.278704 0.120006
H45   H     H_    0.718809 0.396207 0.592789 0.190996
H46   H     H_    0.809839 0.228183 0.110022 0.147383
H47   H     H_    0.899981 0.323133 0.792697 0.116249
H48   H     H_    0.095882 0.892338 0.388582 0.177463
N1    N     N_R   0.246280 0.438190 0.553160 -0.224228
N2    N     N_R   0.754320 0.561190 0.447410 -0.208065
O1    O     O_R   0.972510 0.318130 0.526570 -0.395508
O2    O     O_3   0.232553 0.105942 0.333253 -0.663901
O3    O     O_3   0.919926 0.120300 0.640208 -0.655049
O4    O     O_3   0.501679 0.890705 0.681719 -0.733512
O5    O     O_3   0.702387 0.254085 0.343261 -0.699722
O6    O     O_3   0.140652 0.299154 0.672693 -0.613119
O7    O     O_3   0.868291 0.715419 0.337356 -0.691781
O8    O     O_3   0.443460 0.600640 0.325342 -0.747820
O9    O     O_3   0.808357 0.189108 0.948707 -0.724628
O10   O     O_R   0.806530 0.359650 0.490890 -0.507675
O11   O     O_R   0.082980 0.479210 0.647590 -0.442205
O12   O     O_R   0.917000 0.520730 0.611900 -0.551192
O13   O     O_R   0.193470 0.640350 0.509110 -0.522407
O14   O     O_R   0.027490 0.681870 0.473430 -0.461704
O15   O     O_R   0.083000 0.479270 0.388100 -0.516801
O16   O     O_R   0.917020 0.520790 0.352410 -0.435454
O17   O     O_3   0.464576 0.223761 0.294975 -0.672447

loop_
_geom_bond_atom_site_label_1
_geom_bond_atom_site_label_2
_ccdc_geom_bond_type
C51   H37   S    
C55   C56   A    
C1    C21   S    
C27   C29   A    
C5    C56   A    
C9    H12   S    
C5    C49   S    
C46   H16   S    
C43   H3    S    
C53   C54   S    
H10   O4    S    
H9    O3    S    
C24   O7    S    
C37   C38   A    
H13   O6    S    
C13   C18   A    
C48   H19   S    
C44   H17   S    
C16   O13   A    
C53   H43   S    
C30   C31   A    
C11   C14   A    
C23   C40   A    
C29   C33   A    
C2    H47   S    
C12   C37   A    
C48   H21   S    
C52   H35   S    
H8    O2    S    
C47   H22   S    
C37   C42   S    
Cu2   O14   S    
C41   C55   A    
C54   H41   S    
C6    C15   A    
C50   H30   S    
C47   C48   S    
C28   O16   A    
C8    C9    A    
C42   H5    S    
Cu1   O1    S    
C52   H36   S    
C51   C57   S    
C9    C10   A    
C10   O4    S    
C50   H28   S    
C12   C58   A    
C51   H38   S    
C22   C47   S    
Cu1   Cu2   S    
C27   C30   A    
C54   H40   S    
C49   H31   S    
C46   H15   S    
C44   C46   S    
C43   H4    S    
C8    C21   A    
C2    C45   A    
Cu1   O13   S    
C22   C31   A    
H11   O5    S    
C51   C52   S    
C29   N2    A    
C24   N2    A    
C24   C25   A    
C39   C40   A    
C17   O17   S    
C25   C26   A    
C23   H46   S    
C1    O10   A    
H25   O7    S    
H27   O9    S    
C12   C41   A    
H7    O17   S    
C50   H29   S    
C31   C32   A    
C28   C38   S    
C53   H42   S    
C23   C34   A    
C17   C18   A    
C26   C27   A    
C4    O12   A    
C52   H33   S    
H26   O8    S    
C34   C45   A    
C47   H24   S    
Cu2   O12   S    
C45   C55   A    
C8    O3    S    
C30   C35   A    
C7    C16   S    
C7    C20   A    
C7    C19   A    
C54   H39   S    
C56   C57   A    
C49   H32   S    
C3    C4    S    
C36   O6    S    
C46   H14   S    
C6    C20   A    
C28   O15   A    
C35   H34   S    
C34   O9    S    
C15   C17   A    
C40   C41   A    
C6    O2    S    
C14   C19   A    
C26   O8    S    
C3    C5    A    
C35   N1    A    
C18   O5    S    
C53   C58   S    
C25   H44   S    
Cu1   O15   S    
C22   C36   A    
C33   H45   S    
C32   C33   A    
C48   H20   S    
C44   H18   S    
C2    C3    A    
C16   O14   A    
C39   H23   S    
C13   C21   A    
C11   C13   A    
C57   C58   A    
C38   C39   A    
C19   H1    S    
Cu2   O16   S    
Cu1   N1    S    
C4    O11   A    
Cu2   O10   S    
Cu2   N2    S    
C10   C11   A    
Cu1   O11   S    
C32   C44   S    
C49   C50   S    
C42   C43   S    
C36   N1    A    
C42   H6    S    
C14   C15   A    
C1    O1    A    
C43   H2    S    
C20   H48   S    
