data_mof_unit_32251.cif
_audit_creation_date              2012-12-10T17:09:32-0500
_audit_creation_method            fapswitch 2.2
_symmetry_space_group_name_H-M    P1
_symmetry_Int_Tables_number       1
_space_group_crystal_system       triclinic
_cell_length_a                    10.517207
_cell_length_b                    10.745558
_cell_length_c                    10.024053
_cell_angle_alpha                 89.269593
_cell_angle_beta                  90.052569
_cell_angle_gamma                 89.4387
_cell_volume                      1132.70386485

loop_
_atom_site_label
_atom_site_type_symbol
_atom_type_description
_atom_site_fract_x
_atom_site_fract_y
_atom_site_fract_z
_atom_type_partial_charge
C1    C     C_R   0.496501 0.262685 0.500767 0.942017
C2    C     C_2   0.590644 0.547155 0.074097 -0.286262
C3    C     C_R   0.257250 0.501185 0.500020 0.853629
C4    C     C_R   0.494580 0.737397 0.498553 0.909092
C5    C     C_R   0.742495 0.497939 0.500025 0.878212
C6    C     C_3   0.040530 0.502315 0.627190 -0.157267
C7    C     C_3   0.960089 0.397081 0.567554 -0.163973
C8    C     C_3   0.877181 0.496971 0.499813 -0.005260
C9    C     C_3   0.954489 0.602112 0.559736 -0.167695
C10   C     C_3   0.037364 0.599366 0.433624 0.190734
C11   C     C_3   0.660668 0.757464 0.893482 0.113274
C12   C     C_3   0.958025 0.495025 0.372943 -0.152836
C13   C     C_3   0.750823 0.835113 0.808882 -0.841842
C14   C     C_3   0.081020 0.714719 0.357029 -0.429163
C15   C     C_3   0.967642 0.791643 0.306415 -0.872249
C16   C     C_3   0.379030 0.884741 0.269291 -0.349756
C17   C     C_3   0.272172 0.970147 0.217340 -0.928670
C18   C     C_3   0.044108 0.395595 0.441061 -0.211741
C19   C     C_3   0.122029 0.500991 0.500412 -0.035288
C20   C     C_2   0.447828 0.937639 0.389760 0.203236
C21   C     C_2   0.493804 0.869793 0.493898 -0.415472
C22   C     C_2   0.474908 0.069455 0.389123 -0.154487
C23   C     C_2   0.474666 0.132424 0.502787 -0.395386
C24   C     C_2   0.582295 0.561820 0.923507 0.492265
H1    H     H_    0.923322 0.314424 0.622140 0.138115
H2    H     H_    0.543053 0.912335 0.576553 0.138937
H3    H     H_    0.492450 0.115032 0.293585 0.177971
H4    H     H_    0.686122 0.770786 0.000091 0.118880
H5    H     H_    0.561872 0.792390 0.875288 0.137239
H6    H     H_    0.729680 0.822718 0.701342 0.250579
H7    H     H_    0.739495 0.935067 0.833587 0.204595
H8    H     H_    0.850721 0.805826 0.828762 0.247564
H9    H     H_    0.907900 0.735573 0.238812 0.256398
H10   H     H_    0.908798 0.824024 0.391374 0.254800
H11   H     H_    0.001785 0.874331 0.250153 0.252966
H12   H     H_    0.450021 0.089851 0.598052 0.155385
H13   H     H_    0.139680 0.772377 0.424057 0.204130
H14   H     H_    0.139472 0.685071 0.270694 0.215239
H15   H     H_    0.206638 0.995215 0.299837 0.272199
H16   H     H_    0.311151 0.056259 0.171569 0.258213
H17   H     H_    0.217392 0.921279 0.139417 0.252089
H18   H     H_    0.448782 0.868589 0.187959 0.197525
H19   H     H_    0.333259 0.795409 0.294623 0.219685
H20   H     H_    0.442141 0.439670 0.899692 0.104973
H21   H     H_    0.675453 0.580541 0.123203 0.180689
H22   H     H_    0.417092 0.479432 0.102437 0.153702
H23   H     H_    0.077487 0.505269 0.730880 0.152867
H24   H     H_    0.913884 0.686087 0.607640 0.145464
H25   H     H_    0.920985 0.492129 0.269255 0.145971
H26   H     H_    0.084964 0.311653 0.393120 0.145831
N1    N     N_2   0.501360 0.501330 0.852150 -0.221341
N2    N     N_2   0.501400 0.501360 0.147810 -0.210761
O1    O     O_R   0.499980 0.319060 0.613040 -0.623433
O2    O     O_R   0.500020 0.319100 0.386900 -0.608359
O3    O     O_R   0.313930 0.499950 0.613050 -0.628515
O4    O     O_R   0.313970 0.499990 0.386910 -0.631151
O5    O     O_R   0.499980 0.680900 0.613100 -0.589189
O6    O     O_R   0.500020 0.680940 0.386960 -0.620588
O7    O     O_R   0.686030 0.500010 0.613090 -0.561603
O8    O     O_R   0.686070 0.500050 0.386950 -0.626261
O9    O     O_3   0.673256 0.631407 0.857360 -0.567011
Zn1   Zn    Zn3+2 0.499970 0.499970 0.650990 0.971001
Zn2   Zn    Zn3+2 0.500030 0.500030 0.349010 0.920095

loop_
_geom_bond_atom_site_label_1
_geom_bond_atom_site_label_2
_ccdc_geom_bond_type
C4    O5    A    
C5    C8    S    
C21   H2    S    
C3    C19   S    
C24   O9    S    
C6    C19   S    
C16   H18   S    
C14   H14   S    
C17   H16   S    
C9    C10   S    
C15   H10   S    
C7    H1    S    
C16   C20   S    
C10   C19   S    
C8    C12   S    
C7    C18   S    
C24   N1    D    
C12   H25   S    
C20   C22   S    
O4    Zn2   S    
O5    Zn1   S    
C14   H13   S    
C4    C21   S    
C11   C13   S    
C16   H19   S    
C11   H5    S    
C6    C7    S    
N1    Zn1   S    
C2    N2    D    
C11   H4    S    
C6    C9    S    
O8    Zn2   S    
C10   C12   S    
H20   N1    S    
C15   H11   S    
C15   H9    S    
C1    C23   S    
C22   H3    S    
C22   C23   D    
C2    H21   S    
C2    C24   S    
C3    O4    A    
C17   H17   S    
O1    Zn1   S    
C16   C17   S    
C6    H23   S    
C5    O7    A    
C12   C18   S    
O3    Zn1   S    
H22   N2    S    
C13   H6    S    
C7    C8    S    
C20   C21   D    
C18   H26   S    
C9    H24   S    
C23   H12   S    
C17   H15   S    
C4    O6    A    
O6    Zn2   S    
C1    O1    A    
O2    Zn2   S    
C18   C19   S    
O7    Zn1   S    
C13   H8    S    
C5    O8    A    
C14   C15   S    
C3    O3    A    
C1    O2    A    
C13   H7    S    
C10   C14   S    
C8    C9    S    
C11   O9    S    
N2    Zn2   S    
