data_mof_unit_44208.cif
_audit_creation_date              2012-12-11T16:51:14-0500
_audit_creation_method            fapswitch 2.2
_symmetry_space_group_name_H-M    P1
_symmetry_Int_Tables_number       1
_space_group_crystal_system       triclinic
_cell_length_a                    24.508878
_cell_length_b                    17.207755
_cell_length_c                    15.499812
_cell_angle_alpha                 90.195204
_cell_angle_beta                  129.034354
_cell_angle_gamma                 90.105613
_cell_volume                      5077.58761361

loop_
_atom_site_label
_atom_site_type_symbol
_atom_type_description
_atom_site_fract_x
_atom_site_fract_y
_atom_site_fract_z
_atom_type_partial_charge
C1    C     C_R   0.832626 0.890568 0.199986 -0.082875
C2    C     C_R   0.185759 0.110024 0.500934 0.024445
C3    C     C_R   0.314339 0.610232 0.499179 0.031810
C4    C     C_R   0.685974 0.609884 0.501188 0.023062
C5    C     C_R   0.878750 0.180747 0.202692 0.041240
C6    C     C_R   0.121047 0.181743 0.796638 0.044273
C7    C     C_R   0.387264 0.687128 0.222556 0.055060
C8    C     C_R   0.621034 0.681772 0.796587 0.040356
C9    C     C_R   0.852734 0.702144 0.604755 0.015491
C10   C     C_R   0.147979 0.702409 0.395266 0.011159
C11   C     C_R   0.351878 0.202911 0.604137 0.009538
C12   C     C_R   0.168133 0.895941 0.802191 -0.097228
C13   C     C_R   0.648225 0.203611 0.394009 0.012271
C14   C     C_R   0.829625 0.739777 0.506326 0.041856
C15   C     C_R   0.171279 0.741075 0.493484 0.039481
C16   C     C_R   0.328031 0.241328 0.505902 0.042811
C17   C     C_R   0.671316 0.241593 0.492530 0.041712
C18   C     C_R   0.774542 0.703621 0.405297 -0.158293
C19   C     C_R   0.226266 0.705797 0.594652 -0.155945
C20   C     C_R   0.273130 0.205156 0.404750 -0.157449
C21   C     C_R   0.725681 0.205578 0.593459 -0.157970
C22   C     C_R   0.231167 0.148979 0.402819 -0.199532
C23   C     C_R   0.332649 0.390451 0.200081 -0.071144
C24   C     C_R   0.767987 0.150024 0.595556 -0.200425
C25   C     C_R   0.731877 0.648393 0.403335 -0.199035
C26   C     C_R   0.268654 0.650313 0.596794 -0.200120
C27   C     C_R   0.244340 0.128831 0.502226 0.087915
C28   C     C_R   0.755550 0.130096 0.496506 0.089182
C29   C     C_R   0.744624 0.628912 0.502635 0.088701
C30   C     C_R   0.255740 0.629638 0.497564 0.088906
C31   C     C_R   0.310797 0.146450 0.601916 0.068255
C32   C     C_R   0.689648 0.147814 0.396363 0.067849
C33   C     C_R   0.810890 0.646713 0.602441 0.067658
C34   C     C_R   0.667138 0.390564 0.799361 -0.081649
C35   C     C_R   0.189440 0.646593 0.397686 0.069100
C36   C     C_3   0.834583 0.667922 0.715082 -0.720789
C37   C     C_3   0.165366 0.666411 0.284604 -0.713809
C38   C     C_3   0.335448 0.166379 0.715550 -0.720860
C39   C     C_3   0.666636 0.168738 0.284210 -0.721869
C40   C     C_R   0.092467 0.861712 0.405440 0.489639
C41   C     C_R   0.908393 0.860988 0.594210 0.485981
C42   C     C_R   0.592580 0.362081 0.405170 0.488189
C43   C     C_R   0.406954 0.362396 0.594273 0.491600
C44   C     C_3   0.879696 0.728913 0.718378 0.523524
C45   C     C_R   0.883408 0.098528 0.591045 -0.049438
C46   C     C_3   0.120825 0.727951 0.281504 0.521376
C47   C     C_3   0.379564 0.228629 0.718427 0.523769
C48   C     C_3   0.622066 0.230165 0.281133 0.524003
C49   C     C_2   0.196591 0.855869 0.983176 -0.243644
C50   C     C_2   0.804501 0.843251 0.020765 -0.285132
C51   C     C_2   0.694916 0.342155 0.977450 -0.285371
C52   C     C_2   0.304518 0.343079 0.020888 -0.283700
C53   C     C_2   0.264793 0.846472 0.033842 0.373189
C54   C     C_2   0.735133 0.857482 0.951303 0.368653
C55   C     C_2   0.764638 0.355235 0.046852 0.368292
C56   C     C_R   0.116494 0.098184 0.408791 -0.049504
C57   C     C_2   0.235168 0.357412 0.951395 0.372994
C58   C     C_2   0.849201 0.251261 0.134774 -0.283724
C59   C     C_2   0.150339 0.253024 0.863958 -0.284904
C60   C     C_2   0.362709 0.762145 0.168784 -0.319802
C61   C     C_2   0.650325 0.753063 0.863889 -0.285967
C62   C     C_2   0.809166 0.301049 0.140243 0.412005
C63   C     C_2   0.189747 0.303196 0.857428 0.408122
C64   C     C_2   0.294881 0.769312 0.081409 0.393489
C65   C     C_2   0.689748 0.803222 0.857374 0.409007
C66   C     C_R   0.164735 0.857936 0.589828 -0.229010
C67   C     C_R   0.383501 0.598339 0.591271 -0.050132
C68   C     C_R   0.835323 0.857253 0.409954 -0.228679
C69   C     C_R   0.665135 0.358255 0.589510 -0.227930
C70   C     C_R   0.334518 0.358035 0.409858 -0.226532
C71   C     C_R   0.079853 0.899627 0.807723 -0.059631
C72   C     C_R   0.921235 0.893203 0.194992 -0.084663
C73   C     C_R   0.578554 0.392970 0.804481 -0.089353
C74   C     C_R   0.421242 0.393105 0.195038 -0.080735
C75   C     C_R   0.851438 0.872293 0.135445 0.174959
C76   C     C_R   0.150157 0.883071 0.868939 0.126302
C77   C     C_R   0.351464 0.372132 0.135557 0.174779
C78   C     C_R   0.616856 0.597497 0.409082 -0.042520
C79   C     C_R   0.648217 0.372012 0.863598 0.175888
C80   C     C_R   0.143617 0.816465 0.495012 -0.015906
C81   C     C_R   0.857082 0.815426 0.504556 -0.017602
C82   C     C_R   0.643908 0.316950 0.494528 -0.016369
C83   C     C_R   0.355460 0.316969 0.504465 -0.017773
C84   C     C_R   0.810363 0.095769 0.407877 -0.108458
C85   C     C_R   0.189805 0.095525 0.591900 -0.108297
C86   C     C_R   0.310275 0.595283 0.408228 -0.156815
C87   C     C_R   0.689829 0.595693 0.592050 -0.109676
C88   C     C_R   0.938021 0.138819 0.235525 0.494024
C89   C     C_R   0.814326 0.110681 0.498706 0.023505
C90   C     C_R   0.061929 0.139329 0.764208 0.492931
C91   C     C_R   0.443436 0.643672 0.248334 0.505082
C92   C     C_R   0.561921 0.639355 0.764172 0.489593
C93   C     C_R   0.151516 0.139661 0.760593 -0.101005
C94   C     C_R   0.848355 0.138908 0.238982 -0.097506
C95   C     C_R   0.651507 0.639673 0.760569 -0.100788
C96   C     C_R   0.353831 0.643774 0.251769 -0.071325
H1    H     H_    0.780268 0.890611 0.174584 0.150028
H2    H     H_    0.135023 0.618306 0.223758 0.230998
H3    H     H_    0.366090 0.118620 0.775870 0.227584
H4    H     H_    0.636309 0.121188 0.222303 0.227714
H5    H     H_    0.854900 0.258859 0.071207 0.103224
H6    H     H_    0.145312 0.260764 0.928310 0.102962
H7    H     H_    0.398773 0.811228 0.204710 0.118064
H8    H     H_    0.645276 0.760828 0.928213 0.104193
H9    H     H_    0.171403 0.819753 0.006697 0.127849
H10   H     H_    0.826488 0.801952 0.996913 0.131161
H11   H     H_    0.672215 0.301406 0.000635 0.131234
H12   H     H_    0.220071 0.896746 0.826109 0.148560
H13   H     H_    0.326476 0.301724 0.997049 0.129810
H14   H     H_    0.204669 0.842150 0.675459 0.125204
H15   H     H_    0.794843 0.841118 0.324384 0.124375
H16   H     H_    0.705631 0.342601 0.674937 0.124183
H17   H     H_    0.294070 0.341996 0.324244 0.123521
H18   H     H_    0.763800 0.082409 0.324668 0.115609
H19   H     H_    0.236347 0.082043 0.674730 0.114867
H20   H     H_    0.263664 0.581733 0.325143 0.132462
H21   H     H_    0.736353 0.582733 0.675143 0.116764
H22   H     H_    0.902387 0.091290 0.675022 0.141210
H23   H     H_    0.280294 0.390457 0.174689 0.149651
H24   H     H_    0.097130 0.090638 0.324568 0.141350
H25   H     H_    0.402638 0.591029 0.675322 0.142584
H26   H     H_    0.597809 0.589221 0.325107 0.139148
H27   H     H_    0.793527 0.695472 0.714914 0.202545
H28   H     H_    0.206362 0.693472 0.284062 0.188351
H29   H     H_    0.294819 0.192914 0.717243 0.202274
H30   H     H_    0.708251 0.195874 0.285260 0.204334
H31   H     H_    0.862448 0.787754 0.721721 0.123296
H32   H     H_    0.138535 0.786434 0.277807 0.127269
H33   H     H_    0.361799 0.286728 0.723025 0.132323
H34   H     H_    0.719412 0.390526 0.824482 0.151414
H35   H     H_    0.640238 0.288803 0.278967 0.128057
H36   H     H_    0.964061 0.664256 0.789703 0.322902
H37   H     H_    0.036036 0.663278 0.210688 0.320972
H38   H     H_    0.464424 0.165240 0.787783 0.319851
H39   H     H_    0.536793 0.165946 0.207973 0.321263
H40   H     H_    0.771517 0.336871 0.211703 0.309915
H41   H     H_    0.226701 0.338788 0.784966 0.311298
H42   H     H_    0.210268 0.714396 0.958471 0.317404
H43   H     H_    0.726725 0.838787 0.784933 0.309180
H44   H     H_    0.345337 0.880381 0.046489 0.304116
H45   H     H_    0.183591 0.130841 0.322876 0.130905
H46   H     H_    0.654980 0.914230 0.914618 0.312548
H47   H     H_    0.845795 0.411020 0.084671 0.314011
H48   H     H_    0.155063 0.414291 0.914674 0.315622
H49   H     H_    0.059328 0.909625 0.270378 0.295102
H50   H     H_    0.941689 0.906981 0.730618 0.293111
H51   H     H_    0.559241 0.410481 0.270282 0.295157
H52   H     H_    0.440570 0.412006 0.729313 0.296828
H53   H     H_    0.054779 0.907789 0.844363 0.137811
H54   H     H_    0.946061 0.899188 0.157686 0.146197
H55   H     H_    0.553669 0.398382 0.841764 0.149555
H56   H     H_    0.815188 0.132011 0.675544 0.130266
H57   H     H_    0.446035 0.399049 0.157676 0.147451
H58   H     H_    0.966346 0.204454 0.169453 0.313271
H59   H     H_    0.033649 0.205407 0.830200 0.313547
H60   H     H_    0.473838 0.713471 0.189205 0.314659
H61   H     H_    0.533628 0.705478 0.830112 0.312566
H62   H     H_    0.199902 0.152256 0.775035 0.166153
H63   H     H_    0.799850 0.151004 0.224216 0.166717
H64   H     H_    0.699898 0.652268 0.775030 0.166803
H65   H     H_    0.308520 0.660296 0.244405 0.144480
H66   H     H_    0.758592 0.723788 0.326504 0.129006
H67   H     H_    0.684266 0.630334 0.323377 0.130767
H68   H     H_    0.242372 0.726692 0.673456 0.130998
H69   H     H_    0.256765 0.225797 0.325912 0.128678
H70   H     H_    0.741383 0.225916 0.672241 0.128674
H71   H     H_    0.316215 0.632948 0.676790 0.132635
H72   H     H_    0.864454 0.620390 0.776227 0.228700
N1    N     N_R   0.888400 0.921830 0.294620 -0.058914
N2    N     N_R   0.874350 0.922400 0.443380 -0.063531
N3    N     N_R   0.625650 0.422400 0.556620 -0.063072
N4    N     N_R   0.374350 0.422400 0.443380 -0.061162
N5    N     N_R   0.054230 0.922730 0.705400 -0.057982
N6    N     N_R   0.945770 0.922730 0.294600 -0.061369
N7    N     N_R   0.554230 0.422730 0.705400 -0.061453
N8    N     N_R   0.445770 0.422730 0.294600 -0.062387
N9    N     N_R   0.873790 0.077030 0.443380 -0.044502
N10   N     N_R   0.126210 0.077030 0.556620 -0.044192
N11   N     N_R   0.373790 0.577030 0.443380 -0.050679
N12   N     N_R   0.111600 0.921830 0.705380 -0.056135
N13   N     N_R   0.626210 0.577030 0.556620 -0.046577
N14   N     N_R   0.945200 0.076700 0.294600 -0.081953
N15   N     N_R   0.054800 0.076700 0.705400 -0.082917
N16   N     N_R   0.445200 0.576700 0.294600 -0.086317
N17   N     N_R   0.554800 0.576700 0.705400 -0.082246
N18   N     N_R   0.111030 0.077600 0.705380 -0.087543
N19   N     N_R   0.888970 0.077600 0.294620 -0.087215
N20   N     N_R   0.611030 0.577600 0.705380 -0.087320
N21   N     N_R   0.388970 0.577600 0.294620 -0.084125
N22   N     N_R   0.919490 0.077280 0.556590 -0.041968
N23   N     N_R   0.388400 0.421830 0.294620 -0.058806
N24   N     N_R   0.080510 0.077280 0.443410 -0.042038
N25   N     N_R   0.419490 0.577280 0.556590 -0.043675
N26   N     N_R   0.580510 0.577280 0.443410 -0.046382
N27   N     N_R   0.611600 0.421830 0.705380 -0.058864
N28   N     N_R   0.079940 0.922160 0.443410 -0.104325
N29   N     N_R   0.920060 0.922160 0.556590 -0.103930
N30   N     N_R   0.579940 0.422160 0.443410 -0.104407
N31   N     N_R   0.420060 0.422160 0.556590 -0.103243
N32   N     N_R   0.125650 0.922400 0.556620 -0.063597
Ni1   Ni    Ni4+2 0.882160 0.999430 0.370180 0.207137
Ni2   Ni    Ni4+2 0.117840 0.999430 0.629820 0.204809
Ni3   Ni    Ni4+2 0.382160 0.499430 0.370180 0.212710
Ni4   Ni    Ni4+2 0.617840 0.499430 0.629820 0.203535
Ni5   Ni    Ni4+2 0.012460 0.999430 0.370180 0.228166
Ni6   Ni    Ni4+2 0.987540 0.999430 0.629820 0.228076
Ni7   Ni    Ni4+2 0.512460 0.499430 0.370180 0.224778
Ni8   Ni    Ni4+2 0.487540 0.499430 0.629820 0.225039
O1    O     O_3   0.952056 0.715825 0.802569 -0.674598
O2    O     O_3   0.706480 0.913919 0.975535 -0.764494
O3    O     O_3   0.794298 0.411125 0.023729 -0.763928
O4    O     O_3   0.206559 0.413920 0.975614 -0.749977
O5    O     O_3   0.067072 0.855713 0.298300 -0.772917
O6    O     O_3   0.936336 0.853426 0.702289 -0.768738
O7    O     O_3   0.567165 0.356480 0.297989 -0.772404
O8    O     O_3   0.431574 0.357835 0.701067 -0.775240
O9    O     O_3   0.981790 0.155007 0.210976 -0.790256
O10   O     O_3   0.018242 0.155535 0.788890 -0.790682
O11   O     O_3   0.487420 0.661717 0.224817 -0.788372
O12   O     O_3   0.048295 0.714671 0.197854 -0.677813
O13   O     O_3   0.518236 0.655586 0.788850 -0.791297
O14   O     O_3   0.452202 0.216401 0.801300 -0.680815
O15   O     O_3   0.549595 0.217414 0.196271 -0.678247
O16   O     O_3   0.803598 0.295413 0.223387 -0.757535
O17   O     O_3   0.194558 0.297239 0.773456 -0.755078
O18   O     O_3   0.253470 0.702721 0.034508 -0.738330
O19   O     O_3   0.694592 0.797232 0.773438 -0.759373
O20   O     O_3   0.301133 0.902986 0.024647 -0.756766

loop_
_geom_bond_atom_site_label_1
_geom_bond_atom_site_label_2
_ccdc_geom_bond_type
C34   N27   A    
C58   C62   D    
H61   O13   S    
C56   N24   A    
C44   H31   S    
C94   H63   S    
C3    C30   S    
C43   C83   A    
N24   Ni5   S    
C14   C18   A    
C13   C32   A    
C11   C47   S    
C42   C82   A    
N28   N32   A    
C64   O18   S    
C5    C94   A    
C63   O17   S    
C54   C65   S    
C88   O9    S    
C15   C19   A    
C20   H69   S    
C8    C95   A    
C65   O19   S    
C50   C54   D    
N16   Ni7   S    
C5    C58   S    
C47   H33   S    
C68   C81   A    
N8    Ni7   S    
C46   H32   S    
C92   O13   S    
C35   C37   S    
C87   H21   S    
N3    N30   A    
H51   O7    S    
C10   C15   A    
C53   O20   S    
C23   H23   S    
C71   C76   A    
C53   C64   S    
C55   C62   S    
C29   C33   A    
C36   H72   S    
C33   C36   S    
C96   H65   S    
N18   Ni2   S    
H59   O10   S    
H43   O19   S    
C17   C82   S    
C69   N3    A    
C32   C39   S    
N3    Ni4   S    
H42   O18   S    
C19   C26   A    
C70   N4    A    
C86   N11   A    
N2    Ni1   S    
H41   O17   S    
C69   C82   A    
C24   H56   S    
C5    C88   A    
C68   N2    A    
N12   Ni2   S    
N22   Ni6   S    
C42   N30   A    
C85   N10   A    
H38   O14   S    
C74   C77   A    
C40   O5    S    
C10   C46   S    
N6    Ni5   S    
N1    N6    A    
C40   C80   A    
C48   H35   S    
C28   C89   S    
C42   O7    S    
C62   O16   S    
C22   H45   S    
C60   H7    S    
C45   C89   A    
C51   C55   D    
C4    C29   S    
C8    C61   S    
C19   H68   S    
C93   N18   A    
C23   C77   A    
C57   O4    S    
C11   C31   A    
C70   H17   S    
C39   H30   S    
C91   N16   A    
C73   H55   S    
C3    C86   A    
C9    C33   A    
C86   H20   S    
C56   H24   S    
N17   Ni8   S    
N11   N25   A    
N29   Ni6   S    
N28   Ni5   S    
C18   C25   A    
N23   Ni3   S    
N7    Ni8   S    
C72   C75   A    
C43   O8    S    
C67   H25   S    
N7    N27   A    
C37   H2    S    
C95   N20   A    
C57   C63   S    
C45   H22   S    
C25   C29   A    
C26   H71   S    
H44   O20   S    
H37   O12   S    
C46   O12   S    
C27   C31   A    
C95   H64   S    
C1    C75   A    
C70   C83   A    
C23   N23   A    
C85   H19   S    
C36   H27   S    
C94   N19   A    
C41   N29   A    
N15   N18   A    
C1    H1    S    
C12   H12   S    
C92   N17   A    
N17   N20   A    
C49   H9    S    
C2    C85   A    
N5    N12   A    
C6    C90   A    
C55   O3    S    
N20   Ni4   S    
C16   C83   S    
C17   C21   A    
C21   H70   S    
C71   N5    A    
C74   H57   S    
C4    C87   A    
C68   H15   S    
C96   N21   A    
C73   N7    A    
N4    Ni3   S    
C9    C14   A    
C74   N8    A    
H52   O8    S    
C34   C79   A    
C37   H28   S    
N10   N24   A    
C11   C16   A    
C88   N14   A    
C15   C80   S    
H40   O16   S    
C28   C32   A    
C16   C20   A    
C6    C93   A    
C41   C81   A    
C61   H8    S    
C73   C79   A    
C49   C76   S    
C58   H5    S    
H50   O6    S    
C66   H14   S    
H58   O9    S    
N13   N26   A    
C38   C47   S    
C2    C27   S    
C8    C92   A    
C30   C35   A    
N32   Ni2   S    
C12   N12   A    
C47   O14   S    
N11   Ni3   S    
C26   C30   A    
C72   N6    A    
C22   C27   A    
N10   Ni2   S    
C78   N26   A    
N5    Ni6   S    
H49   O5    S    
C36   C44   S    
N13   Ni4   S    
C84   C89   A    
H46   O2    S    
C52   C77   S    
N21   Ni3   S    
C7    C60   S    
H48   O4    S    
C38   H29   S    
C66   C80   A    
C50   H10   S    
C40   N28   A    
C9    C44   S    
C84   H18   S    
N9    N22   A    
N30   Ni7   S    
C59   H6    S    
C6    C59   S    
C3    C67   A    
H36   O1    S    
C24   C28   A    
C20   C22   A    
C38   H3    S    
N8    N23   A    
N26   Ni7   S    
C87   N13   A    
C13   C48   S    
H47   O3    S    
N27   Ni4   S    
C48   O15   S    
C4    C78   A    
H39   O15   S    
N19   Ni1   S    
C59   C63   D    
C31   C38   S    
C13   C17   A    
C60   C64   D    
N14   Ni5   S    
C12   C76   A    
C2    C56   A    
C50   C75   S    
C7    C91   A    
C41   O6    S    
C18   H66   S    
C39   H4    S    
C71   H53   S    
C52   H13   S    
C25   H67   S    
C49   C53   D    
C72   H54   S    
C1    N1    A    
N31   Ni8   S    
C69   H16   S    
C44   O1    S    
H60   O11   S    
N9    Ni1   S    
N14   N19   A    
C91   O11   S    
C93   H62   S    
C78   H26   S    
C51   C79   S    
N4    N31   A    
C90   O10   S    
C52   C57   D    
N1    Ni1   S    
C84   N9    A    
C10   C35   A    
C61   C65   D    
C45   N22   A    
C54   O2    S    
C90   N15   A    
C34   H34   S    
C51   H11   S    
C21   C24   A    
C7    C96   A    
N25   Ni8   S    
N15   Ni6   S    
N16   N21   A    
C43   N31   A    
C14   C81   S    
C37   C46   S    
C67   N25   A    
N2    N29   A    
C66   N32   A    
C39   C48   S    
