data_mof_unit_44068.cif
_audit_creation_date              2012-12-11T14:56:02-0500
_audit_creation_method            fapswitch 2.2
_symmetry_space_group_name_H-M    P1
_symmetry_Int_Tables_number       1
_space_group_crystal_system       triclinic
_cell_length_a                    27.919136
_cell_length_b                    17.230375
_cell_length_c                    17.994415
_cell_angle_alpha                 90.117933
_cell_angle_beta                  137.903142
_cell_angle_gamma                 89.939771
_cell_volume                      5803.07651436

loop_
_atom_site_label
_atom_site_type_symbol
_atom_type_description
_atom_site_fract_x
_atom_site_fract_y
_atom_site_fract_z
_atom_type_partial_charge
C1    C     C_R   0.687599 0.897755 0.801923 -0.151845
C2    C     C_3   0.274056 0.703872 0.015228 -0.150395
C3    C     C_3   0.705173 0.694259 0.911945 -0.157727
C4    C     C_3   0.205807 0.805020 0.914567 -0.152447
C5    C     C_3   0.794279 0.195242 0.085080 -0.156379
C6    C     C_3   0.836913 0.755556 0.052970 -0.141250
C7    C     C_3   0.163124 0.244237 0.946817 -0.141919
C8    C     C_3   0.253546 0.777931 0.033771 -0.118861
C9    C     C_3   0.746216 0.222402 0.965794 -0.121531
C10   C     C_3   0.790352 0.729106 0.932694 -0.114242
C11   C     C_3   0.209392 0.270618 0.066999 -0.114109
C12   C     C_3   0.710862 0.227881 0.069347 -0.113452
C13   C     C_3   0.229444 0.346695 0.048502 -0.145929
C14   C     C_3   0.289433 0.771805 0.930998 -0.113381
C15   C     C_3   0.249082 0.278897 0.969772 -0.119403
C16   C     C_3   0.751121 0.721395 0.030616 -0.122939
C17   C     C_3   0.316875 0.819367 0.069852 0.143646
C18   C     C_3   0.683149 0.180618 0.930141 0.144924
C19   C     C_3   0.726262 0.768873 0.895656 0.152021
C20   C     C_3   0.273707 0.231159 0.104415 0.148450
C21   C     C_3   0.773470 0.269037 0.103363 0.151789
C22   C     C_3   0.226563 0.731000 0.896557 0.148451
C23   C     C_3   0.184339 0.318944 0.930755 0.143832
C24   C     C_3   0.770241 0.653223 0.951413 -0.142658
C25   C     C_3   0.815640 0.681042 0.069252 0.145488
C26   C     C_3   0.269639 0.847115 0.951417 -0.147421
C27   C     C_3   0.730712 0.152800 0.048661 -0.144577
C28   C     C_3   0.771952 0.796033 0.013770 -0.149247
C29   C     C_3   0.228303 0.204071 0.986388 -0.148557
C30   C     C_R   0.716658 0.754945 0.622446 0.001909
C31   C     C_R   0.283345 0.245044 0.377603 0.001874
C32   C     C_R   0.387067 0.852451 0.642722 0.038324
C33   C     C_R   0.312392 0.102258 0.198110 -0.151256
C34   C     C_R   0.612971 0.147629 0.357341 0.015708
C35   C     C_R   0.112733 0.352131 0.356922 0.038139
C36   C     C_R   0.887226 0.647948 0.643012 0.015505
C37   C     C_R   0.783474 0.254848 0.377920 0.001317
C38   C     C_R   0.216521 0.745143 0.622031 0.001322
C39   C     C_R   0.260047 0.376893 0.391880 0.557757
C40   C     C_R   0.739972 0.623090 0.608197 0.557367
C41   C     C_R   0.602213 0.247928 0.251300 0.558180
C42   C     C_R   0.397817 0.752080 0.748693 0.520817
C43   C     C_R   0.897974 0.748376 0.749310 0.557908
C44   C     C_R   0.333991 0.923376 0.183145 -0.125737
C45   C     C_R   0.101996 0.251628 0.250698 0.520641
C46   C     C_R   0.239601 0.876930 0.607557 0.558007
C47   C     C_R   0.760374 0.123054 0.392354 0.557610
C48   C     C_R   0.304054 0.323205 0.407289 -0.292876
C49   C     C_R   0.695957 0.676778 0.592775 -0.291372
C50   C     C_R   0.575570 0.210208 0.283085 -0.270967
C51   C     C_R   0.424516 0.789928 0.717057 -0.287229
C52   C     C_R   0.924569 0.710703 0.717297 -0.270522
C53   C     C_R   0.075344 0.289430 0.282562 -0.286826
C54   C     C_R   0.195732 0.823235 0.592365 -0.293480
C55   C     C_R   0.666006 0.076613 0.816852 -0.120549
C56   C     C_R   0.804253 0.176748 0.407564 -0.292008
C57   C     C_R   0.212436 0.224836 0.310377 -0.158739
C58   C     C_R   0.787566 0.775156 0.689678 -0.151084
C59   C     C_R   0.666305 0.111306 0.377162 -0.123065
C60   C     C_R   0.333684 0.888718 0.622804 -0.129077
C61   C     C_R   0.834066 0.611443 0.623416 -0.123344
C62   C     C_R   0.165941 0.388581 0.376611 -0.129312
C63   C     C_R   0.287402 0.725060 0.688991 -0.157956
C64   C     C_R   0.712595 0.274935 0.310958 -0.150238
C65   C     C_R   0.168234 0.276346 0.297946 -0.059606
C66   C     C_R   0.167266 0.422677 0.817276 -0.125566
C67   C     C_R   0.831770 0.723638 0.702132 -0.079412
C68   C     C_R   0.696328 0.149724 0.351029 -0.081066
C69   C     C_R   0.303654 0.850269 0.648898 -0.081113
C70   C     C_R   0.804019 0.649863 0.649624 -0.080917
C71   C     C_R   0.195995 0.350129 0.350444 -0.080974
C72   C     C_R   0.331514 0.776616 0.701368 -0.059657
C73   C     C_R   0.668480 0.223372 0.298554 -0.079476
C74   C     C_R   0.325282 0.104631 0.404742 -0.131108
C75   C     C_R   0.674719 0.895366 0.595266 -0.131447
C76   C     C_R   0.640073 0.070926 0.508015 -0.099442
C77   C     C_R   0.832737 0.577314 0.182726 -0.120243
C78   C     C_R   0.359945 0.929100 0.492011 -0.107511
C79   C     C_R   0.859922 0.571087 0.491967 -0.098666
C80   C     C_R   0.140059 0.428940 0.508006 -0.106735
C81   C     C_R   0.174709 0.604701 0.595268 -0.132277
C82   C     C_R   0.825290 0.395296 0.404724 -0.132604
C83   C     C_R   0.442101 0.834348 0.578572 -0.105272
C84   C     C_R   0.557911 0.165674 0.421453 -0.106529
C85   C     C_R   0.591524 0.802970 0.504382 -0.122386
C86   C     C_R   0.408477 0.197026 0.495628 -0.124201
C87   C     C_R   0.908527 0.303012 0.495672 -0.123650
C88   C     C_R   0.812508 0.397986 0.197450 -0.150563
C89   C     C_R   0.091472 0.696985 0.504317 -0.125439
C90   C     C_R   0.057893 0.334143 0.421365 -0.103280
C91   C     C_R   0.942095 0.665879 0.578610 -0.104542
C92   C     C_R   0.582063 0.169262 0.725928 -0.112630
C93   C     C_R   0.417935 0.830722 0.274082 -0.113115
C94   C     C_R   0.395966 0.193862 0.286838 -0.140735
C95   C     C_R   0.604021 0.806154 0.713200 -0.144274
C96   C     C_R   0.104037 0.693751 0.713883 -0.142103
C97   C     C_R   0.895977 0.306265 0.286075 -0.145721
C98   C     C_R   0.917057 0.669461 0.273475 -0.111244
C99   C     C_R   0.187503 0.602032 0.802510 -0.149990
C100  C     C_R   0.082945 0.330527 0.726517 -0.111790
C101  C     C_R   0.674673 0.822073 0.805696 0.055219
C102  C     C_R   0.325304 0.177957 0.194373 0.055943
C103  C     C_R   0.360845 0.863237 0.171429 0.041643
C104  C     C_R   0.639144 0.136731 0.828577 0.038188
C105  C     C_R   0.140778 0.362464 0.829242 0.040831
C106  C     C_R   0.859233 0.637506 0.170753 0.037311
C107  C     C_R   0.825429 0.322412 0.193142 0.055283
C108  C     C_R   0.174596 0.677623 0.806779 0.055969
C109  C     C_R   0.337191 0.183988 0.427692 0.123131
C110  C     C_3   0.725657 0.296240 0.984610 -0.151339
C111  C     C_R   0.662810 0.816005 0.572328 0.121943
C112  C     C_R   0.603805 0.128053 0.425792 0.093695
C113  C     C_R   0.396227 0.871998 0.574259 0.090726
C114  C     C_R   0.896244 0.628324 0.574313 0.093647
C115  C     C_R   0.103723 0.371726 0.425635 0.090672
C116  C     C_R   0.162751 0.684008 0.572211 0.122968
C117  C     C_R   0.837247 0.315986 0.427770 0.121794
C118  C     C_3   0.662145 0.254336 0.948376 -0.140073
C119  C     C_3   0.337825 0.745423 0.051880 -0.140857
C120  C     C_3   0.294738 0.305965 0.088354 -0.152876
H1    H     H_    0.739296 0.925089 0.855324 0.114702
H2    H     H_    0.726239 0.923265 0.659065 0.120682
H3    H     H_    0.679420 0.030838 0.532348 0.125441
H4    H     H_    0.320603 0.969195 0.467680 0.125829
H5    H     H_    0.820554 0.531020 0.467550 0.125267
H6    H     H_    0.179422 0.469013 0.532419 0.125661
H7    H     H_    0.226256 0.576948 0.659061 0.118156
H8    H     H_    0.773744 0.423050 0.340928 0.120866
H9    H     H_    0.478090 0.787471 0.632400 0.098065
H10   H     H_    0.521906 0.212537 0.367611 0.103789
H11   H     H_    0.565888 0.747630 0.483674 0.098102
H12   H     H_    0.260699 0.074915 0.144714 0.111432
H13   H     H_    0.434114 0.252366 0.516346 0.098302
H14   H     H_    0.934206 0.247695 0.516455 0.098007
H15   H     H_    0.065790 0.752301 0.483526 0.098191
H16   H     H_    0.021880 0.287189 0.367457 0.098379
H17   H     H_    0.978124 0.712819 0.632533 0.104077
H18   H     H_    0.552402 0.220757 0.706833 0.108983
H19   H     H_    0.447607 0.779234 0.293195 0.109166
H20   H     H_    0.420963 0.250460 0.315414 0.101033
H21   H     H_    0.579030 0.749552 0.684644 0.098292
H22   H     H_    0.079507 0.750558 0.685184 0.101811
H23   H     H_    0.285998 0.956321 0.117401 0.107988
H24   H     H_    0.920497 0.249453 0.314752 0.099097
H25   H     H_    0.947280 0.720360 0.292655 0.108140
H26   H     H_    0.052711 0.279634 0.707320 0.108375
H27   H     H_    0.239397 0.780915 0.077382 0.143784
H28   H     H_    0.760139 0.219674 0.921855 0.146734
H29   H     H_    0.804472 0.733918 0.889204 0.145597
H30   H     H_    0.195084 0.265577 0.110208 0.145404
H31   H     H_    0.698353 0.231805 0.115153 0.144786
H32   H     H_    0.302160 0.767621 0.885506 0.144634
H33   H     H_    0.264798 0.282784 0.928451 0.144348
H34   H     H_    0.714008 0.043680 0.882594 0.108508
H35   H     H_    0.735598 0.717735 0.072227 0.147380
H36   H     H_    0.607013 0.277251 0.890724 0.142576
H37   H     H_    0.392905 0.722286 0.109763 0.142902
H38   H     H_    0.349370 0.330684 0.147075 0.135894
H39   H     H_    0.650487 0.669734 0.853446 0.123326
H40   H     H_    0.150987 0.828741 0.857551 0.136684
H41   H     H_    0.849150 0.171746 0.141837 0.123395
H42   H     H_    0.891854 0.779489 0.112282 0.141407
H43   H     H_    0.108238 0.220112 0.887313 0.141801
H44   H     H_    0.724736 0.355790 0.960075 0.130471
H45   H     H_    0.215530 0.455442 0.882803 0.107682
H46   H     H_    0.274719 0.644405 0.039670 0.130754
H47   H     H_    0.228290 0.406172 0.070947 0.140252
H48   H     H_    0.771164 0.593669 0.928869 0.139032
H49   H     H_    0.269482 0.906841 0.928246 0.139822
H50   H     H_    0.731128 0.092991 0.071929 0.138578
H51   H     H_    0.771541 0.855327 0.037611 0.130523
H52   H     H_    0.228943 0.144855 0.962642 0.130878
H53   H     H_    0.804855 0.834061 0.718652 0.190252
H54   H     H_    0.195142 0.165944 0.281351 0.189371
H55   H     H_    0.308859 0.940544 0.573024 0.186128
H56   H     H_    0.784464 0.544561 0.117200 0.108327
H57   H     H_    0.691109 0.059463 0.426908 0.186310
H58   H     H_    0.190674 0.440557 0.426356 0.186085
H59   H     H_    0.809354 0.559452 0.573702 0.186273
H60   H     H_    0.695255 0.333785 0.282069 0.190364
H61   H     H_    0.304749 0.666225 0.717937 0.189505
H62   H     H_    0.643581 0.657974 0.549830 0.181044
H63   H     H_    0.356429 0.342007 0.450229 0.181355
H64   H     H_    0.471151 0.766291 0.743694 0.145893
H65   H     H_    0.529019 0.234068 0.256582 0.176232
H66   H     H_    0.028826 0.265625 0.256110 0.145717
H67   H     H_    0.760805 0.425209 0.144188 0.113998
H68   H     H_    0.971002 0.734730 0.743619 0.176089
H69   H     H_    0.856592 0.158008 0.450296 0.181152
H70   H     H_    0.143393 0.841971 0.549631 0.181408
H71   H     H_    0.051733 0.876201 0.952489 0.386285
H72   H     H_    0.967593 0.146650 0.137222 0.342809
H73   H     H_    0.130338 0.046468 0.526125 0.378910
H74   H     H_    0.869040 0.953202 0.472591 0.381564
H75   H     H_    0.368679 0.546868 0.472511 0.378871
H76   H     H_    0.631569 0.452991 0.528004 0.381487
H77   H     H_    0.448285 0.375217 0.048121 0.385983
H78   H     H_    0.239202 0.574799 0.855767 0.110762
H79   H     H_    0.532381 0.647447 0.862196 0.342761
H80   H     H_    0.273761 0.076731 0.340946 0.117928
N1    N     N_R   0.625380 0.928280 0.709340 -0.036725
N2    N     N_R   0.613900 0.929750 0.547530 -0.046756
N3    N     N_R   0.613900 0.070250 0.547530 -0.046418
N4    N     N_R   0.386100 0.929750 0.452470 -0.046354
N5    N     N_R   0.886100 0.570250 0.452470 -0.046148
N6    N     N_R   0.113900 0.429750 0.547530 -0.046090
N7    N     N_R   0.113900 0.570250 0.547530 -0.046534
N8    N     N_R   0.886100 0.429750 0.452470 -0.047093
N9    N     N_R   0.437800 0.869550 0.507970 -0.048287
N10   N     N_R   0.562200 0.130450 0.492030 -0.048786
N11   N     N_R   0.562200 0.869550 0.492030 -0.045078
N12   N     N_R   0.374620 0.071720 0.290660 -0.036473
N13   N     N_R   0.437800 0.130450 0.507970 -0.044969
N14   N     N_R   0.937800 0.369550 0.507970 -0.045236
N15   N     N_R   0.062200 0.630450 0.492030 -0.045122
N16   N     N_R   0.062200 0.369550 0.492030 -0.048213
N17   N     N_R   0.937800 0.630450 0.507970 -0.048698
N18   N     N_R   0.573690 0.128980 0.653840 -0.044964
N19   N     N_R   0.426310 0.871020 0.346160 -0.044961
N20   N     N_R   0.426310 0.128980 0.346160 -0.040677
N21   N     N_R   0.573690 0.871020 0.653840 -0.039920
N22   N     N_R   0.073690 0.628980 0.653840 -0.040639
N23   N     N_R   0.374620 0.928280 0.290660 -0.041346
N24   N     N_R   0.926310 0.371020 0.346160 -0.039877
N25   N     N_R   0.926310 0.628980 0.346160 -0.044794
N26   N     N_R   0.073690 0.371020 0.653840 -0.044793
N27   N     N_R   0.625380 0.071720 0.709340 -0.040845
N28   N     N_R   0.125380 0.428280 0.709340 -0.040883
N29   N     N_R   0.874620 0.571720 0.290660 -0.040439
N30   N     N_R   0.874620 0.428280 0.290660 -0.036812
N31   N     N_R   0.125380 0.571720 0.709340 -0.036556
N32   N     N_R   0.386100 0.070250 0.452470 -0.046194
Ni1   Ni    Ni4+2 0.616560 1.000000 0.627280 0.236349
Ni2   Ni    Ni4+2 0.383440 0.000000 0.372720 0.231136
Ni3   Ni    Ni4+2 0.116560 0.500000 0.627280 0.231198
Ni4   Ni    Ni4+2 0.883440 0.500000 0.372720 0.236364
Ni5   Ni    Ni4+2 0.497990 0.870580 0.500000 0.220549
Ni6   Ni    Ni4+2 0.502010 0.129420 0.500000 0.222017
Ni7   Ni    Ni4+2 0.997990 0.370580 0.500000 0.220330
Ni8   Ni    Ni4+2 0.002010 0.629420 0.500000 0.221611
O1    O     O_2   0.910428 0.902817 0.765720 -0.245667
O2    O     O_2   0.825261 0.017927 0.552610 -0.257950
O3    O     O_2   0.730443 0.970720 0.360701 -0.283573
O4    O     O_3   0.853094 0.006833 0.443574 -0.542020
O5    O     O_2   0.229959 0.529156 0.360275 -0.284486
O6    O     O_2   0.324786 0.482418 0.552165 -0.263224
O7    O     O_3   0.352670 0.493221 0.443221 -0.543044
O8    O     O_2   0.675248 0.517553 0.447932 -0.257992
O9    O     O_2   0.770094 0.470841 0.639835 -0.283724
O10   O     O_3   0.647376 0.506744 0.556894 -0.541981
O11   O     O_2   0.589541 0.402326 0.234946 -0.245701
O12   O     O_2   0.940016 0.833607 0.914794 -0.282442
O13   O     O_2   0.560095 0.332779 0.085886 -0.282699
O14   O     O_3   0.469651 0.326392 0.091314 -0.540764
O15   O     O_2   0.440113 0.667542 0.914477 -0.250900
O16   O     O_2   0.410199 0.597327 0.765891 -0.260774
O17   O     O_3   0.530585 0.672839 0.909539 -0.500368
O18   O     O_3   0.030423 0.827273 0.909268 -0.540514
O19   O     O_2   0.059778 0.166701 0.084852 -0.250771
O20   O     O_2   0.089828 0.096830 0.233450 -0.260946
O21   O     O_3   0.969339 0.171955 0.089877 -0.499922
O22   O     O_2   0.269475 0.029288 0.639120 -0.284017
O23   O     O_2   0.174686 0.982010 0.447246 -0.263599
O24   O     O_3   0.146841 0.993132 0.556267 -0.542981
S1    S     S_3+6 0.944210 0.830983 0.836218 -0.024077
S2    S     S_3+6 0.055770 0.169023 0.163638 -0.009911
S3    S     S_3+6 0.208202 0.973328 0.561265 -0.041048
S4    S     S_3+6 0.791743 0.026645 0.438594 -0.037764
S5    S     S_3+6 0.291310 0.473416 0.438168 -0.041125
S6    S     S_3+6 0.708728 0.526564 0.561931 -0.037844
S7    S     S_3+6 0.555872 0.330317 0.164420 -0.024391
S8    S     S_3+6 0.444148 0.669694 0.835728 -0.010111

loop_
_geom_bond_atom_site_label_1
_geom_bond_atom_site_label_2
_ccdc_geom_bond_type
C61   C70   A    
C47   S4    S    
C55   H34   S    
C80   N6    A    
C24   C25   S    
C16   C28   S    
C63   H61   S    
C12   C21   S    
C35   C53   A    
C75   H2    S    
C34   C112  S    
C83   C113  A    
C88   N30   A    
C12   H31   S    
N1    N21   A    
N2    N11   A    
C4    C8    S    
O6    S5    D    
C92   H18   S    
C9    C18   S    
C93   C103  A    
C74   C109  A    
C82   N8    A    
C21   C110  S    
C76   N3    A    
N7    Ni3   S    
C97   H24   S    
O23   S3    D    
C99   C108  A    
O16   S8    D    
C61   H59   S    
N5    N17   A    
C100  C105  A    
C95   N21   A    
C89   N15   A    
H74   O4    S    
C39   C48   A    
C7    C29   S    
C17   C26   S    
N10   Ni6   S    
C77   C106  A    
C24   H48   S    
C78   N4    A    
C87   C117  A    
O24   S3    S    
C10   H29   S    
O7    S5    S    
C33   N12   A    
C84   N10   A    
C43   C52   A    
C13   H47   S    
C6    C25   S    
C20   C102  S    
C42   C72   A    
C40   C49   A    
C23   C105  S    
O14   S7    S    
C16   C25   S    
C4    C22   S    
C15   C120  S    
C13   C23   S    
C50   H65   S    
H71   O18   S    
C55   N27   A    
H72   O21   S    
C46   C69   A    
N4    Ni2   S    
C86   H13   S    
C91   H17   S    
C37   C56   A    
N1    Ni1   S    
C44   C103  A    
C88   H67   S    
C6    C28   S    
C6    H42   S    
C26   H49   S    
C100  H26   S    
C46   S3    S    
N28   Ni3   S    
N4    N9    A    
C2    C22   S    
C64   C73   A    
N11   Ni5   S    
N3    N10   A    
C118  H36   S    
C97   C107  A    
O2    S4    D    
C32   C113  S    
C80   H6    S    
C78   H4    S    
C2    H46   S    
C36   C52   A    
C119  H37   S    
C42   C51   A    
O15   S8    D    
C98   N25   A    
C15   C23   S    
C79   H5    S    
C89   C116  A    
C36   C114  S    
C42   S8    S    
C5    C27   S    
C81   H7    S    
C120  H38   S    
C76   H3    S    
C87   H14   S    
C110  C118  S    
C3    C24   S    
C37   C117  S    
C85   N11   A    
N32   Ni2   S    
C75   N2    A    
C25   C106  S    
C15   C29   S    
C20   C29   S    
C96   H22   S    
C4    C26   S    
N27   Ni1   S    
C11   C20   S    
C34   C50   A    
H73   O24   S    
C41   C73   A    
C12   C27   S    
C33   C102  A    
C43   S1    S    
C59   H57   S    
C86   C109  A    
O3    S4    D    
C74   N32   A    
N13   Ni6   S    
N18   Ni6   S    
C19   C101  S    
O11   S7    D    
O22   S3    D    
C44   N23   A    
C88   C107  A    
C110  H44   S    
C18   C104  S    
C51   H64   S    
C10   C24   S    
C68   C73   A    
C79   N5    A    
C81   C116  A    
C7    H43   S    
C55   C104  A    
C45   C53   A    
N25   N29   A    
C92   N18   A    
N21   Ni5   S    
N6    Ni3   S    
O4    S4    S    
C5    H41   S    
C91   N17   A    
C69   C72   A    
O5    S5    D    
C53   H66   S    
C77   N29   A    
C32   C51   A    
C5    C9    S    
C93   H19   S    
N23   Ni2   S    
N24   N30   A    
C59   C68   A    
H79   O17   S    
C38   C116  S    
C58   C67   A    
C11   H30   S    
N12   Ni2   S    
C38   C54   A    
C80   C115  A    
C10   C19   S    
C76   C112  A    
C57   C65   A    
C3    C19   S    
C46   C54   A    
C16   H35   S    
N7    N15   A    
C90   H16   S    
C31   C109  S    
C5    C21   S    
C3    H39   S    
O17   S8    S    
C84   C112  A    
C90   N16   A    
C14   C26   S    
C100  N26   A    
C19   C28   S    
C47   C56   A    
N17   Ni8   S    
C82   H8    S    
C83   N9    A    
N13   N32   A    
C40   C70   A    
C89   H15   S    
C12   C118  S    
C33   H12   S    
C45   S2    S    
C21   C107  S    
C30   C49   A    
C74   H80   S    
N22   N31   A    
C95   H21   S    
C77   H56   S    
C96   N22   A    
C31   C48   A    
C45   C65   A    
C34   C59   A    
O1    S1    D    
C8    H27   S    
C94   N20   A    
O10   S6    S    
C66   C105  A    
O20   S2    D    
C36   C61   A    
C1    C101  A    
C41   C50   A    
C20   C120  S    
C13   C120  S    
N22   Ni8   S    
C28   H51   S    
C38   C63   A    
N6    N16   A    
C9    C110  S    
C60   H55   S    
N8    Ni4   S    
C56   H69   S    
N8    N14   A    
N26   Ni7   S    
C54   H70   S    
C66   H45   S    
N16   Ni7   S    
C75   C111  A    
O9    S6    D    
N5    Ni4   S    
C2    C8    S    
C18   C27   S    
N9    Ni5   S    
C85   C111  A    
C66   N28   A    
H77   O14   S    
C48   H63   S    
C99   N31   A    
C2    C119  S    
C97   N24   A    
C83   H9    S    
C18   C118  S    
N15   Ni8   S    
C98   H25   S    
C40   S6    S    
N20   Ni6   S    
N12   N20   A    
C1    N1    A    
C9    H28   S    
C27   H50   S    
C8    C17   S    
C98   C106  A    
C91   C114  A    
C81   N7    A    
C30   C111  S    
C93   N19   A    
C67   C70   A    
N30   Ni4   S    
C14   C22   S    
N29   Ni4   S    
C90   C115  A    
C62   H58   S    
C17   C103  S    
C86   N13   A    
O21   S2    S    
O19   S2    D    
C65   C71   A    
C85   H11   S    
N2    Ni1   S    
C11   C13   S    
C31   C57   A    
C47   C68   A    
C4    H40   S    
C7    C23   S    
H75   O7    S    
C60   C69   A    
O13   S7    D    
C44   H23   S    
C64   H60   S    
N19   Ni5   S    
C30   C58   A    
C99   H78   S    
C84   H10   S    
C63   C72   A    
C87   N14   A    
C62   C71   A    
C41   S7    S    
C35   C62   A    
C29   H52   S    
C22   C108  S    
N24   Ni7   S    
C1    H1    S    
C15   H33   S    
C3    C16   S    
C6    C10   S    
C17   C119  S    
N19   N23   A    
C49   H62   S    
C58   H53   S    
N3    Ni1   S    
C39   S5    S    
O12   S1    D    
O8    S6    D    
C35   C115  S    
C94   C102  A    
C43   C67   A    
C14   C119  S    
C92   C104  A    
C79   C114  A    
C14   H32   S    
N25   Ni8   S    
C32   C60   A    
C94   H20   S    
C96   C108  A    
N31   Ni3   S    
N18   N27   A    
C52   H68   S    
C82   C117  A    
H76   O10   S    
C37   C64   A    
O18   S1    S    
N14   Ni7   S    
C78   C113  A    
N26   N28   A    
C95   C101  A    
C7    C11   S    
C57   H54   S    
C39   C71   A    
