data_mof_unit_40141.cif
_audit_creation_date              2013-03-05T16:41:45-0500
_audit_creation_method            fapswitch 2.2
_symmetry_space_group_name_H-M    P1
_symmetry_Int_Tables_number       1
_space_group_crystal_system       triclinic
_cell_length_a                    10.718119
_cell_length_b                    10.703046
_cell_length_c                    9.847155
_cell_angle_alpha                 89.004277
_cell_angle_beta                  87.669479
_cell_angle_gamma                 90.580844
_cell_volume                      1128.46008936

loop_
_atom_site_label
_atom_site_type_symbol
_atom_site_description
_atom_site_fract_x
_atom_site_fract_y
_atom_site_fract_z
_atom_type_partial_charge
O1    O     O_R   0.500020 0.316790 0.614690 -0.624843
O2    O     O_R   0.500000 0.316760 0.385350 -0.621139
C1    C     C_R   0.505106 0.259653 0.500397 0.869075
O3    O     O_R   0.316770 0.500020 0.614690 -0.621413
O4    O     O_R   0.316760 0.499980 0.385350 -0.626219
C2    C     C_R   0.258721 0.503086 0.503495 0.922863
Zn1   Zn    Zn3+2 0.500010 0.500020 0.653130 0.972370
Zn2   Zn    Zn3+2 0.499990 0.499980 0.346870 0.992234
O5    O     O_R   0.500000 0.683240 0.614650 -0.591859
O6    O     O_R   0.499980 0.683210 0.385310 -0.638324
O7    O     O_R   0.683240 0.500020 0.614650 -0.636681
O8    O     O_R   0.683230 0.499980 0.385310 -0.575723
C3    C     C_R   0.505084 0.740042 0.498646 0.927446
C4    C     C_R   0.738590 0.483508 0.497265 0.887562
H1    H     H_    0.121990 0.534445 0.292052 0.203886
C5    C     C_R   0.095467 0.461760 0.763071 -0.266282
H2    H     H_    0.179159 0.509849 0.790010 0.213099
C6    C     C_R   0.026480 0.403925 0.870472 -0.210837
H3    H     H_    0.061982 0.402916 0.971865 0.192447
C7    C     C_R   0.913424 0.345413 0.846697 0.724926
C8    C     C_R   0.863343 0.356185 0.719167 -0.251850
H4    H     H_    0.773841 0.311790 0.703925 0.176013
C9    C     C_R   0.927912 0.423510 0.612710 -0.018148
C10   C     C_R   0.051690 0.461942 0.628926 0.110059
C11   C     C_R   0.123674 0.498841 0.509777 -0.152061
C12   C     C_R   0.067741 0.510424 0.384315 -0.278418
C13   C     C_R   0.942518 0.488072 0.373107 0.312328
C14   C     C_R   0.870426 0.456332 0.491302 -0.204041
C15   C     C_R   0.548047 0.060941 0.617329 0.028060
C16   C     C_R   0.528470 0.128424 0.498038 -0.058892
C17   C     C_R   0.536624 0.066931 0.372859 -0.170877
H5    H     H_    0.533451 0.117186 0.276765 0.174431
C18   C     C_R   0.536225 0.937640 0.371533 -0.202511
H6    H     H_    0.532188 0.891074 0.274971 0.173610
C19   C     C_R   0.528149 0.871116 0.495405 -0.063918
C20   C     C_R   0.546912 0.933253 0.615872 0.003593
C21   C     C_3   0.480650 0.921689 0.751873 0.511643
C22   C     C_3   0.482351 0.062928 0.753812 -0.531810
H7    H     H_    0.537306 0.876302 0.830555 0.068788
H8    H     H_    0.387680 0.104156 0.750125 0.235198
H9    H     H_    0.544344 0.099412 0.832078 0.174888
C23   C     C_R   0.399063 0.454887 0.077072 0.221209
N1    N     N_R   0.499160 0.499140 0.142800 -0.116376
C24   C     C_R   0.593382 0.556751 0.066778 -0.039608
H10   H     H_    0.669515 0.600989 0.117030 0.190043
C25   C     C_R   0.593488 0.556668 0.922710 -0.087093
H11   H     H_    0.670036 0.600563 0.864258 0.159427
N2    N     N_R   0.499160 0.499180 0.857150 -0.111579
C26   C     C_R   0.399753 0.453518 0.934191 0.200114
C27   C     C_3   0.354623 0.321462 0.937173 -0.524091
C28   C     C_3   0.348337 0.325462 0.090707 -0.469492
H12   H     H_    0.262762 0.308127 0.891881 0.212022
H13   H     H_    0.428694 0.259539 0.898709 0.225060
H14   H     H_    0.251310 0.323245 0.135179 0.208750
H15   H     H_    0.413538 0.259709 0.138721 0.221996
F1    F     F_    0.849956 0.281779 0.948123 -0.629140
N3    N     N_R   0.891833 0.492018 0.240325 0.203311
O9    O     O_R   0.829447 0.396059 0.198690 -0.328965
O10   O     O_R   0.928184 0.578580 0.152568 -0.430728
F2    F     F_    0.360691 0.873396 0.744536 -0.633537

loop_
_geom_bond_atom_site_label_1
_geom_bond_atom_site_label_2
_geom_bond_distance
_ccdc_geom_bond_type
C15   C22   1.492261 S    
O4    Zn2   1.984915 S    
C27   H12   1.106240 S    
N1    C24   1.367600 A    
C17   C18   1.384061 A    
C3    C19   1.421622 S    
C21   C22   1.512073 S    
C1    C16   1.429623 S    
Zn1   O7    1.984914 S    
C19   C20   1.390710 A    
Zn2   N1    2.010066 S    
Zn2   O8    2.015189 S    
C23   C28   1.484872 S    
C7    F1    1.354934 S    
C28   H14   1.111724 S    
Zn1   N2    2.008530 S    
C27   C28   1.512001 S    
N3    O9    1.301163 A    
C5    C10   1.419643 A    
C5    C6    1.397421 A    
C25   H11   1.081454 S    
C9    C14   1.407841 A    
C10   C11   1.425452 A    
C22   H8    1.112281 S    
C2    C11   1.446479 S    
C15   C20   1.366901 A    
C12   C13   1.370130 A    
C15   C16   1.392558 A    
C20   C21   1.492756 S    
C22   H9    1.111214 S    
O3    Zn1   2.015190 S    
O1    Zn1   2.003764 S    
O3    C2    1.281281 A    
N2    C26   1.363963 A    
C18   C19   1.400821 A    
C24   C25   1.418627 A    
C18   H6    1.083411 S    
C28   H15   1.110166 S    
C8    C9    1.414828 A    
O4    C2    1.297865 A    
C21   H7    1.111833 S    
O7    C4    1.293351 A    
C25   N2    1.368137 A    
N3    O10   1.301686 A    
C21   F2    1.385960 S    
C23   N1    1.360547 A    
C9    C10   1.401144 A    
C27   H13   1.099068 S    
C7    C8    1.389078 A    
C6    C7    1.388572 A    
Zn2   O6    2.003764 S    
C26   C27   1.488648 S    
C13   N3    1.436262 S    
C13   C14   1.405302 A    
Zn1   O5    1.990810 S    
O5    C3    1.283576 A    
C16   C17   1.407425 A    
C6    H3    1.082758 S    
H1    C12   1.084192 S    
O2    C1    1.281278 A    
C23   C26   1.407021 A    
C4    C14   1.444609 S    
C11   C12   1.399107 A    
C8    H4    1.083283 S    
O2    Zn2   1.990810 S    
C24   H10   1.080765 S    
C17   H5    1.082204 S    
O8    C4    1.283385 A    
C5    H2    1.074548 S    
O1    C1    1.289655 A    
O6    C3    1.283133 A    
