data_mof_unit_56811.cif
_audit_creation_date              2012-12-10T18:24:00-0500
_audit_creation_method            fapswitch 2.2
_symmetry_space_group_name_H-M    P1
_symmetry_Int_Tables_number       1
_space_group_crystal_system       triclinic
_cell_length_a                    15.708992
_cell_length_b                    14.95589
_cell_length_c                    14.155033
_cell_angle_alpha                 93.123734
_cell_angle_beta                  88.735903
_cell_angle_gamma                 88.347024
_cell_volume                      3318.3574828

loop_
_atom_site_label
_atom_site_type_symbol
_atom_type_description
_atom_site_fract_x
_atom_site_fract_y
_atom_site_fract_z
_atom_type_partial_charge
C1    C     C_R   0.501625 0.326746 0.497881 0.881995
C2    C     C_R   0.509724 0.045977 0.495638 0.034593
C3    C     C_R   0.469515 0.903658 0.421035 0.071834
C4    C     C_R   0.545383 0.095848 0.572440 0.070564
C5    C     C_R   0.579038 0.958459 0.648281 -0.241912
C6    C     C_R   0.440612 0.040368 0.342332 -0.236919
C7    C     C_R   0.579748 0.052226 0.650464 0.096830
C8    C     C_R   0.438031 0.946817 0.341335 0.097351
C9    C     C_R   0.448286 0.561667 0.804266 0.166079
C10   C     C_R   0.546360 0.434960 0.193976 0.168537
C11   C     C_R   0.553988 0.443446 0.793834 -0.090111
C12   C     C_R   0.499981 0.673248 0.501809 0.880458
C13   C     C_R   0.453832 0.564248 0.207064 -0.092379
C14   C     C_R   0.557622 0.445233 0.893624 0.020678
C15   C     C_R   0.451871 0.565162 0.107220 0.021393
C16   C     C_R   0.337951 0.500202 0.500909 0.902694
C17   C     C_R   0.662044 0.499855 0.499097 0.893517
C18   C     C_R   0.503901 0.505043 0.949772 0.065203
C19   C     C_R   0.505315 0.505667 0.050636 0.070553
C20   C     C_R   0.447640 0.562948 0.905491 0.014286
C21   C     C_R   0.557276 0.443777 0.094655 -0.002488
C22   C     C_R   0.614004 0.388258 0.938476 -0.213145
C23   C     C_R   0.500485 0.769152 0.503103 -0.059576
C24   C     C_R   0.396074 0.622760 0.062864 -0.219799
C25   C     C_R   0.614291 0.387789 0.037281 -0.220413
C26   C     C_R   0.392442 0.620391 0.964123 -0.222393
C27   C     C_3   0.973014 0.420914 0.529264 -0.166959
C28   C     C_3   0.026978 0.577942 0.470437 -0.166716
C29   C     C_3   0.032210 0.431902 0.442146 -0.163467
C30   C     C_3   0.967801 0.566954 0.557551 -0.163571
C31   C     C_1   0.248888 0.500117 0.502770 -0.190454
C32   C     C_1   0.751107 0.499460 0.497161 -0.194077
C33   C     C_3   0.025176 0.488651 0.588796 -0.163977
C34   C     C_R   0.507118 0.230791 0.494380 -0.052135
C35   C     C_3   0.974823 0.510209 0.410904 -0.163890
C36   C     C_3   0.082565 0.499640 0.501674 0.210737
C37   C     C_3   0.917439 0.499223 0.498029 0.210738
C38   C     C_1   0.173495 0.499931 0.502976 -0.086100
C39   C     C_1   0.826507 0.499225 0.496831 -0.084326
C40   C     C_R   0.464439 0.811554 0.427570 -0.269558
C41   C     C_R   0.544235 0.188750 0.569478 -0.265337
C42   C     C_3   0.614915 0.106637 0.734798 -0.421962
C43   C     C_3   0.645767 0.053327 0.818041 -0.345276
C44   C     C_3   0.675578 0.115941 0.898751 -0.899793
C45   C     C_R   0.541494 0.817276 0.574217 -0.245284
C46   C     C_3   0.403624 0.892207 0.256672 -0.422422
C47   C     C_3   0.380095 0.944675 0.169993 -0.345658
C48   C     C_3   0.353113 0.881727 0.088169 -0.898823
C49   C     C_3   0.392957 0.631287 0.758412 -0.381987
C50   C     C_3   0.428067 0.725944 0.773059 -0.366511
C51   C     C_3   0.372120 0.795252 0.726414 -0.870479
C52   C     C_3   0.565352 0.341920 0.228092 -0.374546
C53   C     C_3   0.652585 0.331229 0.273919 -0.302084
C54   C     C_3   0.682835 0.233134 0.271317 -0.931958
C55   C     C_R   0.473484 0.181779 0.418756 -0.266487
C56   C     C_R   0.542825 0.909737 0.573240 0.094869
C57   C     C_R   0.474877 0.089271 0.418471 0.094143
C58   C     C_R   0.507347 0.953240 0.496564 0.033868
H1    H     H_    0.060747 0.376679 0.395073 0.132743
H2    H     H_    0.047933 0.479876 0.661504 0.132939
H3    H     H_    0.432907 0.771317 0.373845 0.147710
H4    H     H_    0.571527 0.229857 0.625574 0.148097
H5    H     H_    0.573255 0.782718 0.629371 0.142522
H6    H     H_    0.443950 0.215681 0.361604 0.142584
H7    H     H_    0.605219 0.922075 0.705417 0.138950
H8    H     H_    0.415619 0.076551 0.284423 0.137913
H9    H     H_    0.595006 0.397325 0.750831 0.137208
H10   H     H_    0.415354 0.612380 0.250545 0.137519
H11   H     H_    0.728970 0.156566 0.874088 0.258229
H12   H     H_    0.939266 0.622178 0.604625 0.132543
H13   H     H_    0.622349 0.161467 0.925870 0.262436
H14   H     H_    0.698004 0.075835 0.957597 0.251376
H15   H     H_    0.592919 0.013412 0.845505 0.223140
H16   H     H_    0.699936 0.007529 0.794171 0.220830
H17   H     H_    0.669131 0.145612 0.708989 0.196210
H18   H     H_    0.563785 0.154514 0.762862 0.205919
H19   H     H_    0.406402 0.834421 0.065388 0.264405
H20   H     H_    0.297224 0.843133 0.109756 0.257214
H21   H     H_    0.335371 0.921393 0.027134 0.252487
H22   H     H_    0.326297 0.992703 0.188884 0.219838
H23   H     H_    0.657235 0.342986 0.897151 0.141860
H24   H     H_    0.435935 0.982100 0.145764 0.224397
H25   H     H_    0.453191 0.840742 0.232881 0.208306
H26   H     H_    0.346081 0.857351 0.280590 0.193784
H27   H     H_    0.366075 0.777191 0.649788 0.266131
H28   H     H_    0.307676 0.799304 0.760540 0.254517
H29   H     H_    0.401006 0.862053 0.734603 0.256967
H30   H     H_    0.432537 0.746842 0.849028 0.217886
H31   H     H_    0.493599 0.726133 0.742921 0.234965
H32   H     H_    0.387261 0.617073 0.683054 0.265734
H33   H     H_    0.326312 0.629278 0.785811 0.164917
H34   H     H_    0.353332 0.668209 0.104609 0.143488
H35   H     H_    0.635521 0.192458 0.307873 0.279137
H36   H     H_    0.692232 0.206250 0.196983 0.260502
H37   H     H_    0.744470 0.227496 0.307785 0.254314
H38   H     H_    0.700901 0.370244 0.236699 0.209724
H39   H     H_    0.648817 0.355442 0.348783 0.256673
H40   H     H_    0.511815 0.319405 0.270381 0.211434
H41   H     H_    0.562245 0.291434 0.167796 0.172757
H42   H     H_    0.659393 0.342529 0.068206 0.159353
H43   H     H_    0.345126 0.664403 0.935543 0.156181
H44   H     H_    0.948740 0.356717 0.553166 0.131199
H45   H     H_    0.051232 0.642145 0.446528 0.131212
H46   H     H_    0.952052 0.518976 0.338200 0.133121
N1    N     N_R   0.500040 0.500070 0.750030 -0.116848
N2    N     N_R   0.499960 0.499930 0.249970 -0.111010
O1    O     O_R   0.500020 0.367860 0.580280 -0.619891
O2    O     O_R   0.499980 0.632140 0.419720 -0.621400
O3    O     O_R   0.500020 0.367840 0.419730 -0.642650
O4    O     O_R   0.499980 0.632160 0.580270 -0.638106
O5    O     O_R   0.376770 0.500000 0.580260 -0.637795
O6    O     O_R   0.623230 0.500000 0.419740 -0.622094
O7    O     O_R   0.376780 0.499980 0.419710 -0.613169
O8    O     O_R   0.623220 0.500020 0.580290 -0.612818
Zn1   Zn    Zn3+2 0.499990 0.500020 0.607200 0.931029
Zn2   Zn    Zn3+2 0.500010 0.499980 0.392800 0.935438

loop_
_geom_bond_atom_site_label_1
_geom_bond_atom_site_label_2
_ccdc_geom_bond_type
C43   H15   S    
C23   C45   A    
C27   C29   S    
C14   C18   A    
C5    C56   A    
C49   H32   S    
C10   C52   S    
C16   O7    A    
C51   H27   S    
C12   O4    A    
O8    Zn1   S    
C2    C57   A    
C53   C54   S    
C27   C33   S    
C16   C31   S    
C15   C19   A    
C29   C36   S    
C42   H17   S    
C41   H4    S    
C48   H21   S    
C35   C37   S    
C24   C26   A    
C26   H43   S    
C11   C14   A    
C47   H24   S    
C4    C41   A    
C9    N1    A    
C23   C40   A    
C33   C36   S    
C1    C34   S    
C44   H13   S    
C18   C19   A    
C7    C42   S    
C48   H20   S    
C54   H35   S    
C9    C20   A    
O3    Zn2   S    
C1    O3    A    
C29   H1    S    
C28   C35   S    
C52   H40   S    
C22   C25   A    
C11   N1    A    
C50   H30   S    
O7    Zn2   S    
C43   H16   S    
C34   C55   A    
C53   H38   S    
C6    C57   A    
C34   C41   A    
C47   H22   S    
C49   H33   S    
C4    C7    A    
C24   H34   S    
C51   H28   S    
C30   H12   S    
C11   H9    S    
C17   O8    A    
C10   C21   A    
C22   H23   S    
C9    C49   S    
C45   C56   A    
C5    H7    S    
C3    C8    A    
C51   H29   S    
C5    C7    A    
C6    C8    A    
C53   H39   S    
C45   H5    S    
C40   H3    S    
C30   C37   S    
N2    Zn2   S    
C48   H19   S    
C2    C4    A    
C43   C44   S    
C50   H31   S    
C25   H42   S    
C47   C48   S    
C12   C23   S    
C55   H6    S    
C50   C51   S    
C44   H11   S    
O1    Zn1   S    
C54   H37   S    
C1    O1    A    
C46   H26   S    
C15   C24   A    
C3    C40   A    
C35   H46   S    
C33   H2    S    
C55   C57   A    
C10   N2    A    
C42   C43   S    
C17   O6    A    
O6    Zn2   S    
C52   C53   S    
C12   O2    A    
C21   C25   A    
C46   C47   S    
C52   H41   S    
C30   C33   S    
C19   C21   A    
N1    Zn1   S    
C13   N2    A    
C2    C58   A    
C29   C35   S    
C27   H44   S    
C42   H18   S    
C31   C38   T    
O2    Zn2   S    
C13   C15   A    
C28   C30   S    
C37   C39   S    
C28   H45   S    
C14   C22   A    
C20   C26   A    
C27   C37   S    
C36   C38   S    
C56   C58   A    
C44   H14   S    
C18   C20   A    
C8    C46   S    
C54   H36   S    
C46   H25   S    
C3    C58   A    
C6    H8    S    
C28   C36   S    
C49   C50   S    
C32   C39   T    
C17   C32   S    
O5    Zn1   S    
O4    Zn1   S    
C16   O5    A    
C13   H10   S    
