data_mof_unit_55861.cif
_audit_creation_date              2012-12-11T15:34:39-0500
_audit_creation_method            fapswitch 2.2
_symmetry_space_group_name_H-M    P1
_symmetry_Int_Tables_number       1
_space_group_crystal_system       triclinic
_cell_length_a                    15.034848
_cell_length_b                    15.02529
_cell_length_c                    34.96507
_cell_angle_alpha                 90.453506
_cell_angle_beta                  89.768396
_cell_angle_gamma                 60.054326
_cell_volume                      6843.72164195

loop_
_atom_site_label
_atom_site_type_symbol
_atom_type_description
_atom_site_fract_x
_atom_site_fract_y
_atom_site_fract_z
_atom_type_partial_charge
C1    C     C_R   0.301740 0.608525 0.555695 0.573393
C2    C     C_R   0.226484 0.715556 0.386824 0.059531
C3    C     C_R   0.736838 0.077294 0.270158 0.244094
C4    C     C_R   0.739058 0.073206 0.230035 -0.128379
C5    C     C_R   0.685132 0.163350 0.208823 0.130815
C6    C     C_R   0.727723 0.218988 0.349685 0.066600
C7    C     C_R   0.705528 0.249478 0.387889 -0.173268
C8    C     C_R   0.575361 0.198616 0.389068 0.128818
C9    C     C_R   0.732121 0.582538 0.650706 0.062382
C10   C     C_R   0.597383 0.166952 0.350549 0.246573
C11   C     C_R   0.671243 0.181459 0.330434 0.097059
C12   C     C_R   0.625970 0.244993 0.407281 -0.007228
C13   C     C_R   0.192064 0.722050 0.349518 -0.129443
C14   C     C_R   0.076077 0.710341 0.095452 -0.037710
C15   C     C_R   0.047034 0.650759 0.117291 -0.175104
C16   C     C_R   0.070629 0.634653 0.155652 -0.163438
C17   C     C_R   0.123974 0.677285 0.173173 0.004461
C18   C     C_R   0.159875 0.732488 0.151360 0.332847
C19   C     C_R   0.137833 0.746857 0.112184 0.301102
C20   C     C_R   0.232209 0.593715 0.229988 0.105390
C21   C     C_R   0.170661 0.648458 0.334911 0.029146
C22   C     C_R   0.558916 0.729820 0.649961 0.099603
C23   C     C_R   0.239771 0.633189 0.410267 0.067266
C24   C     C_R   0.736553 0.024995 0.943068 0.565755
C25   C     C_R   0.745077 0.721965 0.945279 0.555562
C26   C     C_R   0.039019 0.733512 0.948217 0.591632
C27   C     C_R   0.722850 0.038922 0.053120 0.599049
C28   C     C_R   0.733762 0.734982 0.055020 0.535755
C29   C     C_R   0.646462 0.660707 0.670485 0.044361
C30   C     C_R   0.027467 0.744492 0.057903 0.520074
C31   C     C_R   0.553786 0.716164 0.610444 0.192555
C32   C     C_R   0.652867 0.676420 0.790062 0.362110
C33   C     C_R   0.647961 0.667204 0.712669 0.391799
C34   C     C_R   0.755714 0.604165 0.848167 -0.153768
C35   C     C_R   0.779214 0.612090 0.886145 0.050394
C36   C     C_R   0.611869 0.767366 0.893658 0.207117
C37   C     C_R   0.591850 0.760956 0.854740 0.134771
C38   C     C_R   0.665485 0.680546 0.831682 0.012743
C39   C     C_R   0.611263 0.589705 0.555056 0.563200
C40   C     C_R   0.242513 0.584386 0.270014 0.115935
C41   C     C_R   0.709942 0.697595 0.908891 0.029506
C42   C     C_R   0.726653 0.068313 0.904362 0.059883
C43   C     C_R   0.645936 0.079004 0.881083 -0.160869
C44   C     C_R   0.647231 0.094436 0.841990 -0.128773
C45   C     C_R   0.728706 0.100487 0.825174 0.004432
C46   C     C_R   0.805311 0.098418 0.848478 -0.098988
C47   C     C_R   0.805158 0.082483 0.888140 0.250906
C48   C     C_R   0.755631 0.178358 0.766359 -0.103872
C49   C     C_R   0.749063 0.191360 0.726782 -0.092363
C50   C     C_R   0.721593 0.132312 0.703724 0.054868
C51   C     C_R   0.157213 0.646700 0.293645 0.042798
C52   C     C_R   0.589411 0.301641 0.553997 0.594895
C53   C     C_R   0.706334 0.056290 0.720183 -0.070610
C54   C     C_R   0.712744 0.043335 0.759675 -0.104386
C55   C     C_R   0.734110 0.106560 0.783191 0.034682
C56   C     C_R   0.585696 0.217621 0.656015 0.220098
C57   C     C_R   0.552120 0.260651 0.619425 0.040216
C58   C     C_R   0.730750 0.186253 0.598337 0.095327
C59   C     C_R   0.764515 0.144534 0.634815 0.196948
C60   C     C_R   0.691345 0.162442 0.663817 0.015272
C61   C     C_R   0.624871 0.245871 0.590626 0.019808
C62   C     C_R   0.062644 0.716082 0.277820 -0.153220
C63   C     C_R   0.093647 0.695367 0.910824 0.054147
C64   C     C_R   0.299246 0.610832 0.446158 0.581116
C65   C     C_R   0.114110 0.760605 0.888054 0.191038
C66   C     C_R   0.135847 0.738292 0.849075 -0.118981
C67   C     C_R   0.137354 0.653006 0.832248 0.002959
C68   C     C_R   0.128155 0.581006 0.855395 0.231402
C69   C     C_R   0.109805 0.600988 0.895156 0.240407
C70   C     C_R   0.234686 0.566822 0.772822 -0.148409
C71   C     C_R   0.246852 0.562787 0.732962 0.095072
C72   C     C_R   0.167942 0.638274 0.710533 0.043143
C73   C     C_R   0.052497 0.724933 0.238390 -0.151606
C74   C     C_R   0.077530 0.714797 0.727831 -0.103248
C75   C     C_R   0.065163 0.718524 0.767734 0.250161
C76   C     C_R   0.608368 0.590204 0.445471 0.535980
C77   C     C_R   0.145039 0.644596 0.790204 0.033090
C78   C     C_R   0.205489 0.716144 0.654521 0.090802
C79   C     C_R   0.236120 0.708602 0.616217 -0.148611
C80   C     C_R   0.214915 0.559629 0.606532 0.224011
C81   C     C_R   0.184786 0.567060 0.645076 -0.126374
C82   C     C_R   0.183381 0.642434 0.669201 0.042001
C83   C     C_R   0.245902 0.628036 0.592530 0.037495
C84   C     C_R   0.137199 0.665385 0.214545 0.027941
C85   C     C_R   0.695146 0.722716 0.092289 -0.045093
C86   C     C_R   0.613548 0.808146 0.110693 -0.128248
C87   C     C_R   0.592010 0.804328 0.149599 0.245597
C88   C     C_R   0.588766 0.301455 0.444017 0.562865
C89   C     C_R   0.652575 0.713601 0.169914 0.102948
C90   C     C_R   0.729580 0.625287 0.150841 0.060330
C91   C     C_R   0.750001 0.630469 0.112256 -0.085503
C92   C     C_R   0.578850 0.676629 0.227449 0.142944
C93   C     C_R   0.575569 0.666511 0.267267 0.099352
C94   C     C_R   0.633788 0.694009 0.291137 -0.019554
C95   C     C_R   0.173681 0.572079 0.358653 0.121628
C96   C     C_R   0.692158 0.733653 0.275356 -0.088556
C97   C     C_R   0.696244 0.743375 0.235877 0.085992
C98   C     C_R   0.640667 0.713122 0.211722 0.092625
C99   C     C_R   0.557490 0.744944 0.355951 -0.136042
C100  C     C_R   0.632465 0.627010 0.591728 0.009236
C101  C     C_R   0.551583 0.720630 0.393889 -0.138359
C102  C     C_R   0.712166 0.560435 0.385994 -0.073563
C103  C     C_R   0.718340 0.584069 0.347881 0.097990
C104  C     C_R   0.638601 0.675618 0.332455 0.031781
C105  C     C_R   0.626831 0.626374 0.408824 -0.008556
C106  C     C_R   0.206985 0.565083 0.396590 0.104616
C107  C     C_R   0.700402 0.097898 0.089712 0.044297
C108  C     C_R   0.775517 0.116872 0.106152 0.189242
C109  C     C_R   0.766767 0.145328 0.145308 0.046771
C110  C     C_R   0.683853 0.154990 0.167038 0.094209
C111  C     C_R   0.604110 0.146768 0.150015 0.220537
C112  C     C_R   0.725244 0.565223 0.611379 0.059113
C113  C     C_R   0.609591 0.123562 0.110518 0.173842
C114  C     C_R   0.629793 0.259119 0.227231 0.284967
C115  C     C_R   0.627155 0.263186 0.267305 -0.147936
C116  C     C_R   0.679265 0.172961 0.288566 0.058212
Cr1   Cr    Cr6+3 0.421670 0.426920 0.499620 1.104776
Cr2   Cr    Cr6+3 0.427030 0.651190 0.500980 1.048855
Cr3   Cr    Cr6+3 0.651280 0.421870 0.499380 1.045858
Cr4   Cr    Cr6+3 0.910810 0.908010 0.001130 1.148002
Cr5   Cr    Cr6+3 0.682800 0.909890 0.998370 1.072605
Cr6   Cr    Cr6+3 0.908370 0.682300 0.002180 1.080710
H1    H     H_    0.759660 0.251276 0.714345 0.129366
H2    H     H_    0.017701 0.772565 0.710224 0.118215
H3    H     H_    0.258679 0.762131 0.605682 0.165126
H4    H     H_    0.570514 0.879730 0.095529 0.155025
H5    H     H_    0.812764 0.563560 0.098496 0.169246
H6    H     H_    0.736650 0.754754 0.293788 0.152659
H7    H     H_    0.496038 0.815446 0.344319 0.131125
H8    H     H_    0.485142 0.773111 0.410853 0.143687
H9    H     H_    0.771152 0.487432 0.396928 0.151297
H10   H     H_    0.583695 0.336457 0.282074 0.100613
H11   H     H_    0.781423 0.999877 0.215225 0.097881
H12   H     H_    0.772093 0.227994 0.783921 0.117770
H13   H     H_    0.746502 0.283300 0.401472 0.146184
H14   H     H_    0.000239 0.621340 0.105368 0.160719
H15   H     H_    0.187879 0.781681 0.331054 0.126676
H16   H     H_    0.811939 0.540531 0.830849 0.151277
H17   H     H_    0.043732 0.591803 0.172177 0.139831
H18   H     H_    0.997548 0.764798 0.296083 0.139724
H19   H     H_    0.979019 0.779531 0.226359 0.128166
H20   H     H_    0.584314 0.069422 0.892629 0.165079
H21   H     H_    0.873845 0.496697 0.593344 0.230798
H22   H     H_    0.831333 0.414073 0.604446 0.238418
H23   H     H_    0.585626 0.098887 0.824642 0.137358
H24   H     H_    0.931087 0.087534 0.895098 0.325410
H25   H     H_    0.883200 0.054336 0.666023 0.332628
H26   H     H_    0.446833 0.264716 0.676450 0.335330
H27   H     H_    0.414151 0.386671 0.631866 0.246429
H28   H     H_    0.407437 0.283172 0.614707 0.237811
H29   H     H_    0.492375 0.798827 0.566029 0.334120
H30   H     H_    0.851597 0.196691 0.578218 0.264678
H31   H     H_    0.850433 0.088781 0.564617 0.260639
H32   H     H_    0.123623 0.885171 0.883958 0.323844
H33   H     H_    0.123274 0.466607 0.905299 0.373725
H34   H     H_    0.684459 0.010716 0.702628 0.134073
H35   H     H_    0.388102 0.432045 0.735466 0.255399
H36   H     H_    0.378940 0.520206 0.704186 0.236532
H37   H     H_    0.929074 0.839646 0.765671 0.321649
H38   H     H_    0.213535 0.847176 0.663414 0.238528
H39   H     H_    0.264247 0.759101 0.697937 0.235888
H40   H     H_    0.879424 0.463810 0.898278 0.235797
H41   H     H_    0.934145 0.532274 0.883346 0.271726
H42   H     H_    0.131808 0.495032 0.812144 0.338770
H43   H     H_    0.194588 0.443070 0.597123 0.315844
H44   H     H_    0.840925 0.548275 0.313811 0.237601
H45   H     H_    0.698004 0.985962 0.771991 0.130114
H46   H     H_    0.774556 0.488351 0.301974 0.235025
H47   H     H_    0.563506 0.559326 0.298162 0.234045
H48   H     H_    0.460731 0.679728 0.301719 0.242495
H49   H     H_    0.545464 0.570413 0.207110 0.241377
H50   H     H_    0.443841 0.691174 0.210368 0.270984
H51   H     H_    0.480999 0.946391 0.150478 0.330658
H52   H     H_    0.844189 0.443507 0.669097 0.241371
H53   H     H_    0.884619 0.527887 0.658233 0.230234
H54   H     H_    0.814603 0.726210 0.202601 0.218968
H55   H     H_    0.713003 0.847360 0.204867 0.259820
H56   H     H_    0.867582 0.104658 0.835577 0.099252
H57   H     H_    0.742706 0.506944 0.182301 0.257621
H58   H     H_    0.828963 0.544583 0.192907 0.226017
H59   H     H_    0.901577 0.123439 0.097672 0.338357
H60   H     H_    0.463838 0.173047 0.104812 0.343114
H61   H     H_    0.566548 0.103535 0.307185 0.350130
H62   H     H_    0.546106 0.407168 0.223070 0.304308
H63   H     H_    0.408532 0.805009 0.665017 0.250551
H64   H     H_    0.459429 0.881807 0.657473 0.267688
H65   H     H_    0.847585 0.219860 0.151248 0.254057
H66   H     H_    0.914509 0.091744 0.161451 0.247528
H67   H     H_    0.165921 0.511820 0.656728 0.114689
H68   H     H_    0.823731 0.929344 0.274406 0.324042
H69   H     H_    0.873505 0.190140 0.343981 0.246751
H70   H     H_    0.782608 0.309505 0.331096 0.236232
H71   H     H_    0.496800 0.114672 0.162005 0.337927
H72   H     H_    0.521492 0.108199 0.408967 0.258967
H73   H     H_    0.429661 0.226272 0.394852 0.260559
H74   H     H_    0.182530 0.777019 0.064344 0.332290
H75   H     H_    0.361168 0.439854 0.277574 0.234834
H76   H     H_    0.394102 0.532623 0.277880 0.239286
H77   H     H_    0.375458 0.549562 0.210578 0.237218
H78   H     H_    0.295884 0.510950 0.790488 0.132839
H79   H     H_    0.344378 0.455177 0.210277 0.263169
H80   H     H_    0.195270 0.458096 0.321768 0.255832
H81   H     H_    0.071190 0.540212 0.333914 0.234493
H82   H     H_    0.258395 0.415394 0.408183 0.257520
H83   H     H_    0.136148 0.497207 0.422689 0.249409
H84   H     H_    0.222646 0.762934 0.194798 0.320570
H85   H     H_    0.309990 0.786625 0.381453 0.223105
H86   H     H_    0.188349 0.862877 0.397511 0.234347
H87   H     H_    0.539514 0.816681 0.941800 0.336439
H88   H     H_    0.436709 0.832380 0.854021 0.260747
H89   H     H_    0.147108 0.790555 0.831187 0.133741
H90   H     H_    0.486728 0.907947 0.842677 0.264730
N1    N     N_R   0.695546 0.584508 0.771470 -0.241722
N2    N     N_3   0.876068 0.534836 0.900685 -0.556736
N3    N     N_3   0.803154 0.511471 0.324857 -0.640137
N4    N     N_3   0.515249 0.625478 0.282837 -0.667852
N5    N     N_3   0.521407 0.647853 0.202651 -0.578541
N6    N     N_3   0.825782 0.520300 0.670965 -0.604472
N7    N     N_3   0.759232 0.781900 0.220865 -0.652146
N8    N     N_3   0.791242 0.530876 0.170551 -0.626039
N9    N     N_3   0.473107 0.812678 0.669529 -0.583067
N10   N     N_3   0.843651 0.159372 0.164143 -0.618309
N11   N     N_3   0.803903 0.231804 0.329654 -0.606445
N12   N     N_R   0.692549 0.580037 0.733556 -0.197614
N13   N     N_3   0.499211 0.186186 0.409351 -0.573853
N14   N     N_3   0.339043 0.514270 0.287031 -0.640170
N15   N     N_3   0.317242 0.532793 0.204817 -0.595199
N16   N     N_3   0.145939 0.499473 0.344442 -0.630726
N17   N     N_3   0.210084 0.487077 0.420882 -0.582978
N18   N     N_3   0.253196 0.789917 0.399756 -0.591776
N19   N     N_3   0.495384 0.834943 0.838803 -0.579504
N20   N     N_R   0.604662 0.759270 0.731254 -0.193049
N21   N     N_R   0.607324 0.763781 0.769245 -0.187612
N22   N     N_3   0.811780 0.483871 0.591485 -0.590051
N23   N     N_3   0.444694 0.325852 0.612074 -0.573985
N24   N     N_3   0.804637 0.168107 0.568808 -0.587232
N25   N     N_3   0.339950 0.484528 0.715153 -0.626346
N26   N     N_3   0.202419 0.794649 0.679200 -0.615549
O1    O     O_R   0.502070 0.323090 0.541280 -0.465962
O2    O     O_R   0.831550 0.656950 0.958960 -0.448652
O3    O     O_R   0.998590 0.685540 0.963930 -0.450234
O4    O     O_R   0.338340 0.520690 0.539540 -0.426426
O5    O     O_R   0.008220 0.831200 0.045060 -0.483042
O6    O     O_R   0.813270 0.997930 0.038810 -0.445273
O7    O     O_R   0.657500 0.016560 0.039940 -0.456148
O8    O     O_R   0.685680 0.820940 0.038120 -0.499126
O9    O     O_R   0.822130 0.666070 0.043610 -0.519923
O10   O     O_R   0.989860 0.694000 0.042400 -0.507012
O11   O     O_3   0.833990 0.833400 0.000560 -0.294193
O12   O     O_R   0.520720 0.641670 0.461580 -0.499981
O13   O     O_R   0.324760 0.674070 0.543580 -0.518480
O14   O     O_R   0.522400 0.640310 0.540110 -0.490997
O15   O     O_R   0.675940 0.500630 0.542210 -0.467022
O16   O     O_R   0.641790 0.337020 0.538150 -0.477658
O17   O     O_R   0.500260 0.324550 0.456580 -0.472459
O18   O     O_R   0.336660 0.522040 0.461020 -0.474603
O19   O     O_R   0.322940 0.675540 0.458880 -0.477134
O20   O     O_3   0.882427 0.077011 0.911014 -0.647624
O21   O     O_3   0.869244 0.088033 0.640840 -0.704574
O22   O     O_3   0.518080 0.232399 0.685701 -0.694455
O23   O     O_R   0.674120 0.502090 0.457500 -0.521347
O24   O     O_3   0.468832 0.789514 0.591429 -0.695172
O25   O     O_3   0.108345 0.847982 0.903890 -0.642583
O26   O     O_3   0.102851 0.531799 0.919141 -0.664962
O27   O     O_3   0.976859 0.793966 0.785428 -0.693900
O28   O     O_3   0.131097 0.494011 0.840380 -0.722800
O29   O     O_3   0.217833 0.484429 0.582683 -0.668492
O30   O     O_3   0.515656 0.889113 0.168735 -0.675683
O31   O     O_3   0.856841 0.104333 0.083482 -0.655894
O32   O     O_3   0.528942 0.122771 0.092030 -0.681537
O33   O     O_3   0.541135 0.127698 0.333469 -0.699707
O34   O     O_R   0.640110 0.338380 0.459630 -0.513811
O35   O     O_3   0.578803 0.346733 0.205603 -0.674803
O36   O     O_3   0.788320 0.989733 0.291816 -0.688949
O37   O     O_3   0.525279 0.155777 0.173228 -0.683665
O38   O     O_3   0.176549 0.798139 0.091558 -0.610666
O39   O     O_3   0.215120 0.774738 0.166938 -0.625901
O40   O     O_3   0.534483 0.843546 0.915631 -0.689246
O41   O     O_3   0.499990 0.499990 0.499990 -0.276262
O42   O     O_R   0.017640 0.822070 0.960410 -0.437174
O43   O     O_R   0.822000 0.989470 0.960340 -0.431322
O44   O     O_R   0.666920 0.007430 0.955290 -0.518420
O45   O     O_R   0.694410 0.812480 0.959650 -0.493863

loop_
_geom_bond_atom_site_label_1
_geom_bond_atom_site_label_2
_ccdc_geom_bond_type
C9    N6    S    
C48   C55   A    
C74   H2    S    
C76   O23   A    
C63   C65   A    
C93   C94   A    
C22   C29   A    
C103  N3    S    
C5    C114  A    
C86   H4    S    
C80   O29   S    
C24   C42   S    
C46   H56   S    
H83   N17   S    
C67   C77   S    
Cr5   O8    S    
C54   H45   S    
C26   C63   S    
C76   O12   A    
C27   O6    A    
C26   O42   A    
C81   C82   A    
C90   C91   A    
C26   O3    A    
C92   C98   A    
Cr2   O19   S    
C56   O22   S    
C85   C86   A    
C108  C109  A    
Cr3   O34   S    
Cr4   O43   S    
C76   C105  S    
C20   N15   S    
C30   O10   A    
C31   O24   S    
C71   N25   S    
H21   N22   S    
C48   H12   S    
C108  O31   S    
C14   C30   S    
C34   C35   A    
C58   N24   S    
C52   C61   S    
C27   O7    A    
Cr3   O41   S    
Cr2   O41   S    
H57   N8    S    
N1    N12   A    
C112  N22   S    
Cr4   O42   S    
H48   N4    S    
C5    C110  S    
C47   O20   S    
Cr6   O3    S    
H28   N23   S    
C49   H1    S    
C29   C33   S    
C97   C98   A    
C56   C57   A    
C96   H6    S    
C102  C105  A    
C17   C18   A    
C18   C19   A    
Cr4   O6    S    
H82   N17   S    
C2    C13   A    
C52   O16   A    
C95   N16   S    
C107  C113  A    
H32   O25   S    
C52   O1    A    
C110  C111  A    
C88   O34   A    
Cr6   O2    S    
C39   O14   A    
C63   C69   A    
C68   C69   A    
H54   N7    S    
C45   C46   A    
C91   H5    S    
C107  C108  A    
C97   N7    S    
C62   C73   A    
C70   C71   A    
H52   N6    S    
C32   C38   S    
C25   O45   A    
C33   N20   A    
C42   C43   A    
C73   C84   A    
C90   N8    S    
H29   O24   S    
H79   N15   S    
C9    C29   A    
H44   N3    S    
C32   N21   A    
C101  H8    S    
C9    C112  A    
Cr5   O7    S    
C99   C104  A    
C79   H3    S    
C10   C11   A    
C94   C104  S    
C59   C60   A    
C78   N26   S    
H63   N9    S    
H40   N2    S    
C93   N4    S    
H25   O21   S    
C92   N5    S    
C59   O21   S    
C36   C41   A    
C65   O25   S    
C51   C62   A    
H26   O22   S    
C80   C83   A    
Cr3   O15   S    
H81   N16   S    
C57   N23   S    
H37   O27   S    
C114  C115  A    
C88   O17   A    
H59   O31   S    
C115  H10   S    
C101  C105  A    
C7    C12   A    
C22   N9    S    
C50   C53   A    
H61   O33   S    
C22   C31   A    
C99   H7    S    
C67   C68   A    
C24   O43   A    
Cr4   O11   S    
C72   C74   A    
Cr2   O12   S    
C25   C41   S    
C6    C11   A    
H90   N19   S    
H73   N13   S    
C78   C79   A    
C16   C17   A    
C28   O8    A    
H39   N26   S    
C21   C95   A    
C25   O2    A    
C58   C59   A    
C53   C54   A    
C23   C106  A    
H42   O28   S    
C34   H16   S    
C20   C84   A    
C30   O5    A    
C56   C60   A    
H31   N24   S    
C28   O9    A    
C13   H15   S    
C43   C44   A    
C7    H13   S    
C37   C38   A    
C45   C55   S    
C95   C106  A    
C18   O39   S    
C78   C82   A    
Cr5   O11   S    
C19   O38   S    
C27   C107  S    
C8    C12   A    
C12   C88   S    
C81   H67   S    
C96   C97   A    
C2    C23   A    
C44   H23   S    
C13   C21   A    
C111  C113  A    
H27   N23   S    
C31   C100  A    
C102  H9    S    
C94   C96   A    
C11   C116  S    
C75   C77   A    
C36   O40   S    
H49   N5    S    
H38   N26   S    
H41   N2    S    
C39   O15   A    
C32   N1    A    
H35   N25   S    
C48   C49   A    
C99   C101  A    
H64   N9    S    
C24   O44   A    
C100  C112  A    
H88   N19   S    
C111  O37   S    
C10   O33   S    
C87   C89   A    
H43   O29   S    
C66   H89   S    
H53   N6    S    
H24   O20   S    
C16   H17   S    
H71   O37   S    
Cr5   O44   S    
H55   N7    S    
H84   O39   S    
C3    C4    A    
C85   C91   A    
Cr3   O16   S    
H69   N11   S    
C21   C51   S    
H87   O40   S    
C64   O19   A    
H46   N3    S    
C3    O36   S    
Cr6   O10   S    
C6    N11   S    
C75   O27   S    
H72   N13   S    
H62   O35   S    
C37   N19   S    
H47   N4    S    
C46   C47   A    
C23   C64   S    
C70   H78   S    
H60   O32   S    
C86   C87   A    
C68   O28   S    
C14   C19   A    
C8    C10   A    
C44   C45   A    
H70   N11   S    
C115  C116  A    
C80   C81   A    
H74   O38   S    
C54   C55   A    
H80   N16   S    
C8    N13   S    
C1    O13   A    
H85   N18   S    
C57   C61   A    
C6    C7    A    
C15   H14   S    
H65   N10   S    
C1    C83   S    
C40   C51   A    
C3    C116  A    
C87   O30   S    
C64   O18   A    
H50   N5    S    
C106  N17   S    
H22   N22   S    
C89   C98   S    
Cr2   O13   S    
C17   C84   S    
C50   C60   S    
H30   N24   S    
H33   O26   S    
C71   C72   A    
Cr1   O41   S    
Cr2   O14   S    
C109  C110  A    
Cr1   O4    S    
Cr6   O11   S    
C79   C83   A    
Cr1   O17   S    
C39   C100  S    
Cr3   O23   S    
C58   C61   A    
C20   C40   A    
C69   O26   S    
C92   C93   A    
Cr1   O18   S    
C66   C67   A    
C113  O32   S    
C65   C66   A    
C40   N14   S    
C102  C103  A    
C35   C41   A    
C35   N2    S    
C28   C85   S    
H58   N8    S    
C1    O4    A    
C2    N18   S    
H36   N25   S    
C33   N12   A    
H76   N14   S    
C4    C5    A    
C42   C47   A    
C74   C75   A    
Cr1   O1    S    
C53   H34   S    
C36   C37   A    
C49   C50   A    
H68   O36   S    
H75   N14   S    
H86   N18   S    
C103  C104  A    
C14   C15   A    
C4    H11   S    
C43   H20   S    
Cr5   O45   S    
C62   H18   S    
C34   C38   A    
C89   C90   A    
H77   N15   S    
Cr4   O5    S    
H51   O30   S    
C72   C82   S    
C109  N10   S    
C15   C16   A    
C114  O35   S    
N20   N21   A    
Cr6   O9    S    
C70   C77   A    
C73   H19   S    
H66   N10   S    
