data_mof_unit_19327.cif
_audit_creation_date              2013-03-05T15:45:12-0500
_audit_creation_method            fapswitch 2.2
_symmetry_space_group_name_H-M    P1
_symmetry_Int_Tables_number       1
_space_group_crystal_system       triclinic
_cell_length_a                    11.528022
_cell_length_b                    11.520653
_cell_length_c                    19.556149
_cell_angle_alpha                 90.651807
_cell_angle_beta                  90.106316
_cell_angle_gamma                 60.072165
_cell_volume                      2250.75846094

loop_
_atom_site_label
_atom_site_type_symbol
_atom_site_description
_atom_site_fract_x
_atom_site_fract_y
_atom_site_fract_z
_atom_type_partial_charge
O1    O     O_R   0.267740 0.231990 0.575440 -0.490952
O2    O     O_R   0.527280 0.186680 0.570530 -0.486964
C1    C     C_R   0.640474 0.117536 0.599230 0.553081
O3    O     O_R   0.728090 0.003480 0.576380 -0.500426
O4    O     O_R   0.682970 0.789220 0.570490 -0.487798
C2    C     C_R   0.612458 0.746051 0.598650 0.559669
O5    O     O_R   0.499290 0.771920 0.575530 -0.491371
O6    O     O_R   0.285330 0.030900 0.569730 -0.496700
C3    C     C_R   0.240825 0.145433 0.598173 0.551000
O7    O     O_R   0.270980 0.227040 0.423900 -0.440486
O8    O     O_R   0.530280 0.182090 0.430050 -0.453380
C4    C     C_R   0.644973 0.112214 0.402383 0.577503
O9    O     O_R   0.731330 0.998530 0.424830 -0.518508
O10   O     O_R   0.685970 0.784630 0.430010 -0.496844
C5    C     C_R   0.615521 0.741090 0.401644 0.581401
O11   O     O_R   0.502530 0.766960 0.423990 -0.498082
O12   O     O_R   0.288330 0.026310 0.429250 -0.518837
C6    C     C_R   0.240040 0.141974 0.402635 0.571539
Cr1   Cr    Cr6+3 0.404720 0.198220 0.499960 1.139333
Cr2   Cr    Cr6+3 0.698290 0.897110 0.500380 1.080252
Cr3   Cr    Cr6+3 0.396970 0.904720 0.499610 1.074420
O13   O     O_3   0.499990 0.000020 0.499980 -0.296239
C7    C     C_1   0.670464 0.646484 0.860082 0.009006
C8    C     C_1   0.654795 0.683813 0.728414 -0.026636
C9    C     C_1   0.663513 0.666706 0.799665 -0.027462
C10   C     C_1   0.641239 0.704066 0.667999 0.012417
C11   C     C_1   0.126737 0.198647 0.859260 0.008856
C12   C     C_1   0.171369 0.170441 0.727676 -0.026453
C13   C     C_1   0.150110 0.182225 0.798898 -0.027455
C14   C     C_1   0.195113 0.161179 0.667356 0.011144
C15   C     C_1   0.678689 0.191132 0.860760 0.007955
C16   C     C_1   0.658497 0.167457 0.729023 -0.026846
C17   C     C_1   0.665723 0.180884 0.800320 -0.027392
C18   C     C_1   0.652896 0.150012 0.668619 0.011064
C19   C     C_R   0.533515 0.710328 0.292996 -0.106620
C20   C     C_R   0.539701 0.705152 0.223500 -0.105616
C21   C     C_R   0.658029 0.677843 0.190492 0.020486
C22   C     C_R   0.764256 0.673955 0.227375 -0.149851
C23   C     C_R   0.754925 0.686896 0.297907 -0.122175
H1    H     H_    0.835406 0.686848 0.326415 0.196431
C24   C     C_R   0.640712 0.701402 0.330940 0.039230
C25   C     C_R   0.112355 0.298560 0.309822 0.200818
C26   C     C_R   0.095582 0.315167 0.239884 -0.151493
C27   C     C_R   0.130061 0.205664 0.195866 -0.025801
C28   C     C_R   0.181430 0.076102 0.222948 0.190815
C29   C     C_R   0.202230 0.058826 0.293298 -0.157381
C30   C     C_R   0.173754 0.168070 0.336444 -0.024218
C31   C     C_R   0.730099 0.037021 0.287265 -0.156527
H2    H     H_    0.778937 0.934295 0.304383 0.154256
C32   C     C_R   0.732480 0.058900 0.218377 -0.126376
C33   C     C_R   0.669894 0.189536 0.193884 -0.015336
C34   C     C_R   0.598118 0.298589 0.238599 -0.109699
H3    H     H_    0.553026 0.400151 0.219916 0.167815
C35   C     C_R   0.594864 0.277809 0.308678 0.200685
C36   C     C_R   0.662841 0.145109 0.333104 0.016504
O14   O     O_R   0.821500 0.119550 0.952820 -0.504805
O15   O     O_R   0.037130 0.162750 0.957360 -0.485707
C37   C     C_R   0.081883 0.231173 0.928573 0.553131
O16   O     O_R   0.056440 0.344950 0.951330 -0.502708
O17   O     O_R   0.797900 0.560570 0.957460 -0.496424
C38   C     C_R   0.683909 0.604565 0.929441 0.549287
O18   O     O_R   0.596140 0.579600 0.952720 -0.493724
O19   O     O_R   0.639070 0.321380 0.958660 -0.494400
C39   C     C_R   0.708349 0.206725 0.930115 0.541157
O20   O     O_R   0.821240 0.124490 0.104360 -0.496792
O21   O     O_R   0.036900 0.167320 0.097830 -0.440096
C40   C     C_R   0.082054 0.236903 0.125783 0.584155
O22   O     O_R   0.056190 0.349890 0.102870 -0.526801
O23   O     O_R   0.797670 0.565150 0.097930 -0.511669
C41   C     C_R   0.681264 0.615875 0.124059 0.557009
O24   O     O_R   0.595880 0.584540 0.104260 -0.502962
O25   O     O_R   0.638830 0.325960 0.099140 -0.503639
C42   C     C_R   0.707074 0.211626 0.126541 0.543446
Cr4   Cr    Cr6+3 0.926180 0.152240 0.028110 1.103408
Cr5   Cr    Cr6+3 0.921340 0.452070 0.027460 1.045134
Cr6   Cr    Cr6+3 0.626260 0.447120 0.028700 1.065415
O26   O     O_3   0.824590 0.350480 0.028090 -0.277122
H4    H     H_    0.441791 0.725919 0.316516 0.194745
H5    H     H_    0.788279 0.973535 0.184509 0.157910
N1    N     N_R   0.527464 0.391471 0.354062 0.087714
O27   O     O_R   0.580126 0.393455 0.412678 -0.316528
O28   O     O_R   0.421189 0.499321 0.333733 -0.313759
H6    H     H_    0.455874 0.709632 0.196192 0.216665
H7    H     H_    0.856177 0.654175 0.202347 0.148363
N2    N     N_R   0.068950 0.414838 0.353006 0.091513
O29   O     O_R   0.088375 0.511901 0.334297 -0.323005
O30   O     O_R   0.004213 0.426952 0.409540 -0.320327
H8    H     H_    0.048299 0.416237 0.220431 0.170133
N3    N     N_R   0.216164 0.961337 0.179978 0.076661
O31   O     O_R   0.281302 0.944257 0.123011 -0.343834
O32   O     O_R   0.193980 0.867225 0.200801 -0.342521
H9    H     H_    0.249742 0.958342 0.313453 0.165222

loop_
_geom_bond_atom_site_label_1
_geom_bond_atom_site_label_2
_geom_bond_distance
_ccdc_geom_bond_type
C31   C36   1.403281 A    
O11   Cr3   2.052511 S    
C11   C13   1.202943 T    
C19   C20   1.360145 A    
O25   Cr6   1.925658 S    
C6    C30   1.458015 S    
C23   C24   1.399975 A    
O4    Cr2   1.927361 S    
C2    C10   1.427049 S    
C28   C29   1.395434 A    
C27   C28   1.412082 A    
O22   Cr5   2.045044 S    
O8    Cr1   1.931836 S    
C26   H8    1.083354 S    
C20   C21   1.395283 A    
C8    C10   1.201653 T    
O4    C2    1.273820 A    
C29   H9    1.082774 S    
O19   Cr6   1.933529 S    
C20   H6    1.081975 S    
C5    O11   1.260256 A    
O21   Cr4   1.930739 S    
O20   C42   1.265677 A    
C29   C30   1.402964 A    
O6    C3    1.273796 A    
Cr4   O26   1.979570 S    
O14   C39   1.268106 A    
C41   O24   1.264551 A    
N3    O32   1.301501 A    
C28   N3    1.436085 S    
C31   C32   1.376210 A    
O21   C40   1.271926 A    
Cr3   O13   1.979080 S    
C32   H5    1.084054 S    
O18   Cr6   2.044193 S    
O23   C41   1.271473 A    
C34   C35   1.397678 A    
O12   C6    1.277089 A    
C35   N1    1.437711 S    
N2    O30   1.301673 A    
C22   C23   1.384295 A    
O1    Cr1   2.050947 S    
O14   Cr4   2.049459 S    
C33   C34   1.402920 A    
O10   Cr2   1.932759 S    
Cr1   O13   1.979340 S    
O1    C3    1.267930 A    
C8    C9    1.405862 S    
C5    C24   1.435221 S    
N1    O28   1.301281 A    
C23   H1    1.081291 S    
N1    O27   1.301456 A    
C1    C18   1.429357 S    
C32   C33   1.395229 A    
C37   O16   1.267214 A    
N2    O29   1.301500 A    
O12   Cr3   1.926387 S    
O20   Cr4   2.047610 S    
C40   O22   1.268689 A    
O17   C38   1.273980 A    
C16   C18   1.203000 T    
O15   Cr4   1.931280 S    
C26   C27   1.402402 A    
C21   C22   1.401648 A    
O7    Cr1   2.047358 S    
C15   C17   1.202968 T    
O6    Cr3   1.935028 S    
C25   N2    1.437037 S    
Cr6   O26   1.981651 S    
Cr5   O26   1.979097 S    
C3    C14   1.429246 S    
C31   H2    1.083105 S    
Cr2   O13   1.981743 S    
C25   C26   1.383000 A    
C1    O3    1.269043 A    
O16   Cr5   2.052832 S    
C34   H3    1.083918 S    
C35   C36   1.413969 A    
C12   C13   1.407912 S    
O17   Cr5   1.928278 S    
O9    Cr2   2.044170 S    
C22   H7    1.082958 S    
O2    Cr1   1.930805 S    
C15   C39   1.429258 S    
C33   C42   1.449635 S    
O25   C42   1.273416 A    
C11   C37   1.429290 S    
O8    C4    1.272659 A    
C2    O5    1.268131 A    
C19   H4    1.082739 S    
C16   C17   1.408001 S    
C12   C14   1.202929 T    
O2    C1    1.273816 A    
O5    Cr3   2.044721 S    
O15   C37   1.273361 A    
O24   Cr6   2.051345 S    
O7    C6    1.264742 A    
O23   Cr5   1.934456 S    
C25   C30   1.409515 A    
C7    C9    1.201658 T    
C38   O18   1.268377 A    
C19   C24   1.399940 A    
C4    C36   1.453344 S    
O19   C39   1.275339 A    
O3    Cr2   2.050724 S    
C7    C38   1.427061 S    
C4    O9    1.268689 A    
O10   C5    1.271769 A    
C27   C40   1.457350 S    
N3    O31   1.301677 A    
C21   C41   1.434792 S    
