data_mof_unit_61182.cif
_audit_creation_date              2013-03-05T16:41:36-0500
_audit_creation_method            fapswitch 2.2
_symmetry_space_group_name_H-M    P1
_symmetry_Int_Tables_number       1
_space_group_crystal_system       triclinic
_cell_length_a                    13.887583
_cell_length_b                    16.486457
_cell_length_c                    17.714118
_cell_angle_alpha                 89.423796
_cell_angle_beta                  90.555821
_cell_angle_gamma                 84.438735
_cell_volume                      4036.24574656

loop_
_atom_site_label
_atom_site_type_symbol
_atom_site_description
_atom_site_fract_x
_atom_site_fract_y
_atom_site_fract_z
_atom_type_partial_charge
O1    O     O_R   0.500010 0.432070 0.608760 -0.511379
O2    O     O_R   0.499990 0.567930 0.391240 -0.511211
O3    O     O_R   0.500000 0.567880 0.608730 -0.609230
O4    O     O_R   0.500000 0.432120 0.391270 -0.609360
C1    C     C_R   0.497493 0.499788 0.644594 0.848619
C2    C     C_R   0.502506 0.500212 0.355404 0.848518
O5    O     O_R   0.637850 0.422490 0.500000 -0.545575
O6    O     O_R   0.362150 0.577510 0.500000 -0.545730
O7    O     O_R   0.637840 0.558310 0.499970 -0.571865
O8    O     O_R   0.362160 0.441690 0.500030 -0.571740
C3    C     C_R   0.683381 0.486692 0.500099 0.847390
C4    C     C_R   0.316619 0.513308 0.499900 0.847445
Cu1   Cu    Cu3+1 0.500000 0.419580 0.500020 1.052116
Cu2   Cu    Cu3+1 0.500000 0.580420 0.499980 1.052159
C5    C     C_1   0.213403 0.521684 0.499864 -0.074517
C6    C     C_1   0.786597 0.478317 0.500135 -0.074722
C7    C     C_2   0.022831 0.533770 0.499759 -0.135295
C8    C     C_2   0.977169 0.466232 0.500240 -0.135427
C9    C     C_1   0.873490 0.472105 0.500181 0.062865
C10   C     C_1   0.126510 0.527897 0.499818 0.062961
H1    H     H_    0.017353 0.406292 0.500690 0.183595
H2    H     H_    0.982647 0.593711 0.499309 0.183673
C11   C     C_R   0.456834 0.441928 0.154723 -0.112347
C12   C     C_R   0.543286 0.557980 0.845277 -0.112400
H3    H     H_    0.420171 0.396239 0.125357 0.166161
H4    H     H_    0.580054 0.603602 0.874648 0.166099
C13   C     C_R   0.459004 0.441808 0.233294 -0.212688
C14   C     C_R   0.541120 0.558108 0.766707 -0.212739
H5    H     H_    0.422653 0.396339 0.263530 0.181097
H6    H     H_    0.577579 0.603513 0.736474 0.181011
C15   C     C_R   0.505958 0.500582 0.272526 -0.140565
C16   C     C_R   0.494032 0.499419 0.727469 -0.140494
C17   C     C_R   0.553137 0.559370 0.231593 0.354999
C18   C     C_R   0.446709 0.440714 0.768393 0.355060
C19   C     C_R   0.548885 0.559420 0.152528 -0.181030
C20   C     C_R   0.450956 0.440655 0.847460 -0.180955
H7    H     H_    0.585025 0.603758 0.120557 0.180994
H8    H     H_    0.414709 0.396382 0.879427 0.181006
C21   C     C_R   0.501399 0.500844 0.114493 0.061431
C22   C     C_R   0.498580 0.499143 0.885502 0.061455
C23   C     C_1   0.500306 0.500245 0.033845 0.006564
C24   C     C_1   0.499671 0.499736 0.966150 0.006561
C25   C     C_R   0.435933 0.178250 0.448070 0.259602
C26   C     C_R   0.564388 0.821737 0.551669 0.259574
C27   C     C_R   0.440571 0.264031 0.450454 -0.047240
C28   C     C_R   0.559741 0.735956 0.549310 -0.047074
H9    H     H_    0.395309 0.303501 0.412700 0.179854
H10   H     H_    0.605243 0.696473 0.586893 0.179901
N1    N     N_R   0.500030 0.298780 0.500030 -0.250646
N2    N     N_R   0.499970 0.701220 0.499970 -0.250666
C29   C     C_R   0.557343 0.249668 0.548833 0.540360
C30   C     C_R   0.442315 0.750342 0.451400 0.540332
C31   C     C_R   0.555426 0.164366 0.548515 -0.299541
C32   C     C_R   0.444193 0.835649 0.451723 -0.299496
H11   H     H_    0.601868 0.127128 0.587488 0.218090
H12   H     H_    0.397479 0.872895 0.412944 0.218138
C33   C     C_R   0.495256 0.127124 0.498386 -0.063609
C34   C     C_R   0.504707 0.872876 0.501596 -0.063613
C35   C     C_1   0.498340 0.037317 0.499283 0.151610
C36   C     C_1   0.501618 0.962684 0.500691 0.151585
N3    N     N_R   0.609239 0.616349 0.268716 0.143297
O9    O     O_R   0.611754 0.689430 0.240824 -0.295180
O10   O     O_R   0.670190 0.591513 0.322269 -0.355533
N4    N     N_R   0.390466 0.383841 0.731261 0.143310
O11   O     O_R   0.387698 0.310803 0.759188 -0.295102
O12   O     O_R   0.329640 0.408758 0.677650 -0.355719
N5    N     N_R   0.371404 0.145479 0.394564 0.141695
O13   O     O_R   0.339504 0.074751 0.405793 -0.324253
O14   O     O_R   0.338652 0.188956 0.336418 -0.335402
N6    N     N_R   0.629289 0.854492 0.604898 0.141687
O15   O     O_R   0.661031 0.925263 0.593563 -0.324221
O16   O     O_R   0.662521 0.810963 0.662872 -0.335350
N7    N     N_R   0.620747 0.283882 0.600896 0.136976
O17   O     O_R   0.597692 0.287255 0.671858 -0.312065
O18   O     O_R   0.710808 0.286995 0.582672 -0.339322
N8    N     N_R   0.378594 0.716134 0.399580 0.136965
O19   O     O_R   0.401531 0.712276 0.328610 -0.312096
O20   O     O_R   0.288497 0.713527 0.417930 -0.339362

loop_
_geom_bond_atom_site_label_1
_geom_bond_atom_site_label_2
_geom_bond_distance
_ccdc_geom_bond_type
C13   H5    1.083595 S    
C8    H1    1.086693 S    
C23   C24   1.199220 T    
C21   C23   1.428683 S    
O5    C3    1.284487 A    
O1    C1    1.287517 A    
C19   H7    1.084086 S    
C12   H4    1.083644 S    
C33   C35   1.476983 S    
C34   C36   1.476981 S    
C7    C10   1.433702 S    
C8    C9    1.433701 S    
N7    O17   1.300572 A    
C27   H9    1.081505 S    
O4    Cu1   1.935404 S    
N3    O10   1.301351 A    
C20   C22   1.396192 A    
C12   C22   1.394822 A    
C26   C28   1.422938 A    
N1    C29   1.372639 A    
N2    C30   1.372636 A    
C15   C17   1.418657 A    
C26   N6    1.442620 S    
N6    O15   1.301023 A    
C11   C13   1.391815 A    
C1    C16   1.469277 S    
C22   C24   1.428687 S    
C2    C15   1.469323 S    
C35   C36   1.226861 T    
Cu1   Cu2   2.651675 S    
N7    O18   1.300428 A    
O2    C2    1.287523 A    
C30   C32   1.409239 A    
C28   H10   1.081512 S    
C31   H11   1.084242 S    
C5    C10   1.201133 T    
C32   H12   1.084197 S    
C13   C15   1.405106 A    
N5    O13   1.301028 A    
C29   N7    1.426546 S    
C14   C16   1.405090 A    
N8    O19   1.300560 A    
O4    C2    1.287927 A    
C26   C34   1.421182 A    
C31   C33   1.399918 A    
C30   N8    1.426589 S    
N5    O14   1.301708 A    
N4    O12   1.301353 A    
C19   C21   1.396186 A    
O7    Cu2   1.913647 S    
O7    C3    1.284255 A    
C3    C6    1.426662 S    
C4    C5    1.426660 S    
C27   N1    1.367112 A    
O6    C4    1.284486 A    
C18   N4    1.437465 S    
C7    C8    1.333707 D    
C25   C27   1.422945 A    
O3    Cu2   1.935404 S    
O8    C4    1.284258 A    
Cu1   N1    1.991522 S    
C17   N3    1.437435 S    
O1    Cu1   1.939265 S    
C32   C34   1.399978 A    
O6    Cu2   1.919650 S    
C12   C14   1.391809 A    
N8    O20   1.300435 A    
O3    C1    1.287910 A    
O8    Cu1   1.913647 S    
C28   N2    1.367117 A    
C7    H2    1.086693 S    
N4    O11   1.301351 A    
C20   H8    1.084086 S    
Cu2   N2    1.991523 S    
C6    C9    1.201133 T    
C11   C21   1.394821 A    
C14   H6    1.083600 S    
C17   C19   1.401236 A    
C18   C20   1.401250 A    
C11   H3    1.083646 S    
N3    O9    1.301351 A    
O2    Cu2   1.939268 S    
C25   C33   1.421154 A    
O5    Cu1   1.919649 S    
C25   N5    1.442559 S    
N6    O16   1.301710 A    
C29   C31   1.409219 A    
C16   C18   1.418653 A    
