data_mof_unit_42757.cif
_audit_creation_date              2012-10-26T18:43:53-0400
_audit_creation_method            fapswitch 2.2
_symmetry_space_group_name_H-M    P1
_symmetry_Int_Tables_number       1
_space_group_crystal_system       triclinic
_cell_length_a                    9.541
_cell_length_b                    10.861134
_cell_length_c                    17.219026
_cell_angle_alpha                 90.126361
_cell_angle_beta                  86.126692
_cell_angle_gamma                 90.00258
_cell_volume                      1780.2601288

loop_
_atom_site_label
_atom_site_type_symbol
_atom_type_description
_atom_site_fract_x
_atom_site_fract_y
_atom_site_fract_z
_atom_type_partial_charge
C1    C     C_R   0.500174 0.737310 0.499828 0.552269
C2    C     C_R   0.529439 0.477675 0.265596 0.016087
C3    C     C_R   0.378804 0.938034 0.501931 0.022092
C4    C     C_R   0.481896 0.500952 0.650212 0.546553
C5    C     C_R   0.501996 0.869926 0.498809 0.010804
C6    C     C_R   0.630155 0.935426 0.494524 -0.161081
C7    C     C_R   0.630157 0.064590 0.494337 -0.158529
C8    C     C_R   0.501990 0.130095 0.498473 0.011206
C9    C     C_R   0.378789 0.061994 0.501657 0.020990
C10   C     C_3   0.222606 0.070876 0.508404 -0.265086
C11   C     C_3   0.222654 0.929073 0.508782 -0.270610
C12   C     C_R   0.347639 0.469089 0.777773 -0.127456
C13   C     C_R   0.930649 0.408123 0.463314 0.156238
C14   C     C_R   0.920371 0.583354 0.542600 -0.013993
C15   C     C_R   0.069291 0.583276 0.542668 -0.013777
C16   C     C_R   0.500208 0.262698 0.499619 0.553687
C17   C     C_R   0.078154 0.408565 0.462954 0.157118
C18   C     C_3   0.092881 0.378970 0.378231 -0.282711
C19   C     C_3   0.934003 0.376287 0.379031 -0.272193
C20   C     C_R   0.518383 0.496158 0.349902 0.545373
C21   C     C_R   0.473347 0.500520 0.735344 0.014759
C22   C     C_R   0.593190 0.528818 0.774871 -0.117225
C23   C     C_R   0.432797 0.394137 0.150317 -0.122844
C24   C     C_R   0.588809 0.521781 0.855457 -0.061449
C25   C     C_R   0.465653 0.483357 0.897340 0.075637
C26   C     C_R   0.343845 0.461024 0.858656 -0.099219
C27   C     C_2   0.671361 0.332697 0.982855 0.576633
C28   C     C_R   0.420637 0.417913 0.229728 -0.128064
C29   C     C_R   0.651952 0.511669 0.221114 -0.132376
C30   C     C_R   0.663980 0.488177 0.141359 -0.085906
C31   C     C_R   0.554154 0.429634 0.105756 0.030719
C32   C     C_2   0.461729 0.472085 0.982137 -0.155123
C33   C     C_2   0.560837 0.414093 0.020903 0.032626
Cu1   Cu    Cu3+1 0.359330 0.500020 0.500000 0.939138
Cu2   Cu    Cu3+1 0.640670 0.499980 0.500000 0.938796
H1    H     H_    0.690570 0.555883 0.743549 0.120892
H2    H     H_    0.121074 0.652020 0.576093 0.111792
H3    H     H_    0.138969 0.456473 0.343131 0.150583
H4    H     H_    0.327536 0.386996 0.263166 0.115449
H5    H     H_    0.142322 0.287658 0.366327 0.116683
H6    H     H_    0.891241 0.450359 0.343077 0.155088
H7    H     H_    0.891008 0.282849 0.369156 0.127306
H8    H     H_    0.737427 0.557416 0.247806 0.115105
H9    H     H_    0.247134 0.434542 0.890896 0.117774
H10   H     H_    0.347403 0.348553 0.123375 0.119180
H11   H     H_    0.253574 0.448040 0.748465 0.128160
H12   H     H_    0.757363 0.517809 0.107204 0.134826
H13   H     H_    0.376350 0.519914 0.014638 0.106552
H14   H     H_    0.682051 0.544443 0.885116 0.114096
H15   H     H_    0.733108 0.222523 0.892326 0.337518
H16   H     H_    0.730031 0.887658 0.491580 0.132722
H17   H     H_    0.730039 0.112357 0.491256 0.134586
H18   H     H_    0.182287 0.112338 0.564621 0.145069
H19   H     H_    0.180110 0.111082 0.455580 0.132343
H20   H     H_    0.182506 0.888914 0.565294 0.129390
H21   H     H_    0.180186 0.887428 0.456219 0.142315
H22   H     H_    0.860465 0.652314 0.575879 0.111388
N1    N     N_R   0.852130 0.499070 0.499500 -0.231130
N2    N     N_R   0.148040 0.499110 0.499500 -0.231141
O1    O     O_R   0.381190 0.680360 0.500000 -0.503633
O2    O     O_R   0.650976 0.276352 0.911366 -0.689361
O3    O     O_R   0.618770 0.680320 0.499990 -0.514934
O4    O     O_R   0.367430 0.500040 0.613600 -0.507597
O5    O     O_R   0.605020 0.500000 0.613590 -0.503447
O6    O     O_R   0.381230 0.319680 0.500010 -0.499179
O7    O     O_R   0.618810 0.319640 0.500000 -0.504732
O8    O     O_R   0.394980 0.500000 0.386410 -0.506713
O9    O     O_R   0.632570 0.499960 0.386400 -0.507815
O10   O     O_2   0.778048 0.310638 0.015875 -0.532215

loop_
_geom_bond_atom_site_label_1
_geom_bond_atom_site_label_2
_ccdc_geom_bond_type
Cu1   O8    S    
C8    C9    A    
C31   C33   S    
C6    C7    A    
C23   H10   S    
C6    H16   S    
C22   H1    S    
C9    C10   S    
C4    O5    A    
C20   O8    A    
C27   O10   D    
C19   H7    S    
C13   C17   A    
C29   H8    S    
C11   H20   S    
C1    O3    A    
C25   C32   S    
C17   C18   S    
C18   H3    S    
C26   H9    S    
C7    C8    A    
C8    C16   S    
C21   C22   A    
C32   C33   D    
Cu2   O5    S    
Cu1   O1    S    
C4    C21   S    
C32   H13   S    
C4    O4    A    
C29   C30   A    
Cu2   O9    S    
C17   N2    A    
C2    C29   A    
C3    C9    A    
C5    C6    A    
C12   C21   A    
Cu1   O6    S    
Cu1   O4    S    
C14   H22   S    
C7    H17   S    
Cu1   Cu2   S    
Cu2   O3    S    
C22   C24   A    
Cu2   N1    S    
C30   C31   A    
C14   N1    A    
C1    C5    S    
C16   O7    A    
C10   C11   S    
C13   C19   S    
C10   H19   S    
C2    C20   S    
C30   H12   S    
C3    C11   S    
C24   C25   A    
C12   H11   S    
C18   C19   S    
C1    O1    A    
C24   H14   S    
C10   H18   S    
H15   O2    S    
C18   H5    S    
C14   C15   A    
C15   H2    S    
C2    C28   A    
C13   N1    A    
C27   O2    S    
Cu2   O7    S    
C25   C26   A    
C23   C28   A    
Cu1   N2    S    
C15   N2    A    
C16   O6    A    
C20   O9    A    
C27   C33   S    
C11   H21   S    
C19   H6    S    
C12   C26   A    
C28   H4    S    
C3    C5    A    
C23   C31   A    
