data_mof_unit_61868.cif
_audit_creation_date              2012-12-10T19:07:24-0500
_audit_creation_method            fapswitch 2.2
_symmetry_space_group_name_H-M    P1
_symmetry_Int_Tables_number       1
_space_group_crystal_system       triclinic
_cell_length_a                    13.057344
_cell_length_b                    13.626479
_cell_length_c                    19.220197
_cell_angle_alpha                 90.013033
_cell_angle_beta                  92.802355
_cell_angle_gamma                 85.838305
_cell_volume                      3406.65062079

loop_
_atom_site_label
_atom_site_type_symbol
_atom_type_description
_atom_site_fract_x
_atom_site_fract_y
_atom_site_fract_z
_atom_type_partial_charge
C1    C     C_R   0.481295 0.685143 0.499254 0.901336
C2    C     C_2   0.967264 0.520581 0.523460 -0.108552
C3    C     C_1   0.854779 0.517336 0.515775 0.115978
C4    C     C_1   0.145221 0.482664 0.484225 0.115978
C5    C     C_R   0.499266 0.500818 0.634727 0.880747
C6    C     C_R   0.500734 0.499182 0.365273 0.880748
C7    C     C_R   0.403600 0.505881 0.742711 -0.214886
C8    C     C_R   0.596400 0.494120 0.257289 -0.214886
C9    C     C_R   0.400281 0.511546 0.815019 -0.035397
C10   C     C_R   0.599719 0.488455 0.184981 -0.035396
C11   C     C_R   0.494077 0.514309 0.855013 -0.044535
C12   C     C_R   0.518705 0.314857 0.500745 0.901336
C13   C     C_R   0.505923 0.485691 0.144987 -0.044535
C14   C     C_R   0.588297 0.515062 0.822220 -0.001000
C15   C     C_R   0.411703 0.484937 0.177780 -0.001000
C16   C     C_R   0.589199 0.510725 0.750193 -0.208534
C17   C     C_R   0.410801 0.489273 0.249807 -0.208534
C18   C     C_R   0.497381 0.505109 0.710337 -0.080360
C19   C     C_R   0.502619 0.494891 0.289663 -0.080360
C20   C     C_R   0.504408 0.492077 0.069670 0.346824
C21   C     C_R   0.495592 0.507923 0.930330 0.346824
C22   C     C_2   0.297766 0.516706 0.846279 0.930088
C23   C     C_1   0.533487 0.211726 0.501319 -0.165233
C24   C     C_2   0.702234 0.483296 0.153721 0.930089
C25   C     C_1   0.685660 0.516068 0.861429 0.204273
C26   C     C_1   0.314341 0.483929 0.138571 0.204273
C27   C     C_1   0.007102 0.569597 0.584634 0.202699
C28   C     C_1   0.992898 0.430403 0.415366 0.202699
C29   C     C_1   0.466513 0.788273 0.498681 -0.165233
C30   C     C_2   0.544528 0.020601 0.501736 -0.150721
C31   C     C_2   0.455472 0.979399 0.498264 -0.150721
C32   C     C_1   0.457631 0.875668 0.498341 0.025368
C33   C     C_1   0.542369 0.124332 0.501659 0.025368
C34   C     C_2   0.032736 0.479419 0.476540 -0.108552
H1    H     H_    0.332526 0.503771 0.711364 0.205734
H2    H     H_    0.667474 0.496231 0.288636 0.205733
H3    H     H_    0.662017 0.510528 0.725332 0.169070
H4    H     H_    0.337983 0.489470 0.274668 0.169071
H5    H     H_    0.382129 0.022794 0.495411 0.166844
H6    H     H_    0.617871 0.977206 0.504589 0.166844
H7    H     H_    0.148211 0.488212 0.835573 0.361176
H8    H     H_    0.851788 0.511794 0.164426 0.361176
N1    N     N_R   0.536379 0.578831 0.969968 -0.134796
N2    N     N_1   0.960958 0.391211 0.366374 -0.169242
N3    N     N_R   0.463622 0.421169 0.030032 -0.134796
N4    N     N_R   0.540390 0.571158 0.038852 -0.135505
N5    N     N_R   0.459610 0.428842 0.961147 -0.135505
N6    N     N_1   0.234540 0.484780 0.488910 -0.088164
N7    N     N_1   0.765460 0.515220 0.511090 -0.088164
N8    N     N_1   0.763543 0.516841 0.892799 -0.137472
N9    N     N_1   0.236457 0.483155 0.107202 -0.137472
N10   N     N_1   0.039042 0.608789 0.633626 -0.169241
O1    O     O_R   0.402510 0.634760 0.495940 -0.603618
O2    O     O_R   0.213900 0.479724 0.809486 -0.794415
O3    O     O_2   0.714494 0.444769 0.096967 -0.601094
O4    O     O_R   0.786099 0.520280 0.190513 -0.794415
O5    O     O_R   0.597490 0.365240 0.504060 -0.603618
O6    O     O_R   0.572960 0.644530 0.503060 -0.601837
O7    O     O_R   0.427040 0.355470 0.496940 -0.601838
O8    O     O_R   0.414750 0.495120 0.598300 -0.612969
O9    O     O_R   0.585250 0.504880 0.401700 -0.612969
O10   O     O_R   0.585190 0.504900 0.605420 -0.616734
O11   O     O_R   0.414810 0.495100 0.394580 -0.616735
O12   O     O_2   0.285506 0.555233 0.903033 -0.601094
Zn1   Zn    Zn3+2 0.386190 0.493480 0.495250 0.994927
Zn2   Zn    Zn3+2 0.613810 0.506520 0.504750 0.994927

loop_
_geom_bond_atom_site_label_1
_geom_bond_atom_site_label_2
_ccdc_geom_bond_type
C6    O11   A    
C5    O10   A    
C28   N2    T    
O11   Zn1   S    
C2    C27   S    
N6    Zn1   S    
C24   O4    S    
O1    Zn1   S    
C5    O8    A    
O5    Zn2   S    
C26   N9    T    
C20   N3    A    
C30   C33   S    
C16   H3    S    
C7    C18   A    
H8    O4    S    
C2    C34   D    
C1    C29   S    
C2    C3    S    
C3    N7    T    
C28   C34   S    
C22   O2    S    
C1    O6    A    
O7    Zn1   S    
C24   O3    D    
C6    C19   S    
C9    C11   A    
C12   C23   S    
C12   O5    A    
C6    O9    A    
C8    C10   A    
C11   C14   A    
C11   C21   S    
O8    Zn1   S    
C29   C32   T    
C4    C34   S    
C17   H4    S    
C13   C15   A    
C14   C25   S    
C4    N6    T    
C30   C31   D    
C9    C22   S    
N1    N4    A    
C14   C16   A    
H7    O2    S    
C8    C19   A    
N7    Zn2   S    
O10   Zn2   S    
C22   O12   D    
C7    C9    A    
C30   H6    S    
C27   N10   T    
C16   C18   A    
C8    H2    S    
N3    N5    A    
C15   C17   A    
C21   N5    A    
C1    O1    A    
C25   N8    T    
C17   C19   A    
C15   C26   S    
C5    C18   S    
C13   C20   S    
C10   C24   S    
C21   N1    A    
C12   O7    A    
C7    H1    S    
O9    Zn2   S    
O6    Zn2   S    
C20   N4    A    
C31   C32   S    
C31   H5    S    
C23   C33   T    
C10   C13   A    
