data_mof_unit_19102.cif
_audit_creation_date              2012-12-10T17:19:23-0500
_audit_creation_method            fapswitch 2.2
_symmetry_space_group_name_H-M    P1
_symmetry_Int_Tables_number       1
_space_group_crystal_system       triclinic
_cell_length_a                    14.97995
_cell_length_b                    10.804611
_cell_length_c                    9.611489
_cell_angle_alpha                 90.227011
_cell_angle_beta                  87.969445
_cell_angle_gamma                 90.902532
_cell_volume                      1554.46511078

loop_
_atom_site_label
_atom_site_type_symbol
_atom_type_description
_atom_site_fract_x
_atom_site_fract_y
_atom_site_fract_z
_atom_type_partial_charge
C1    C     C_R   0.506420 0.262430 0.500115 0.802647
C2    C     C_R   0.906775 0.624659 0.476325 0.043301
C3    C     C_R   0.950073 0.297874 0.574815 -0.165618
C4    C     C_R   0.042555 0.300416 0.582140 -0.150139
C5    C     C_R   0.091065 0.408991 0.549976 0.116779
C6    C     C_R   0.046659 0.517999 0.513283 0.009156
C7    C     C_R   0.095927 0.628259 0.480772 0.017360
C8    C     C_R   0.048174 0.739666 0.466817 0.189158
C9    C     C_R   0.955387 0.735713 0.459393 -0.204178
C10   C     C_R   0.183532 0.409517 0.553239 -0.228716
C11   C     C_R   0.232613 0.512657 0.507094 -0.099614
C12   C     C_R   0.329119 0.503862 0.501999 0.856659
C13   C     C_R   0.189975 0.620572 0.463218 0.132098
C14   C     C_R   0.547887 0.111934 0.753282 -0.124150
C15   C     C_R   0.532304 0.052361 0.880406 -0.165459
C16   C     C_R   0.479476 0.945409 0.886491 -0.150953
C17   C     C_R   0.451144 0.889727 0.763848 0.183646
C18   C     C_R   0.481074 0.938459 0.632745 0.041445
C19   C     C_R   0.514309 0.060944 0.629356 0.080567
C20   C     C_R   0.511215 0.127216 0.502298 -0.101048
C21   C     C_R   0.498816 0.062730 0.377696 -0.173299
C22   C     C_R   0.488747 0.935479 0.378674 -0.136885
C23   C     C_R   0.491544 0.737028 0.501388 0.840740
C24   C     C_R   0.481470 0.871517 0.505214 -0.079408
C25   C     C_R   0.658878 0.557970 0.117193 0.228012
C26   C     C_R   0.717444 0.646285 0.057800 -0.162279
C27   C     C_R   0.698568 0.697009 0.929439 -0.227490
C28   C     C_R   0.625405 0.651515 0.857802 -0.121857
C29   C     C_R   0.563815 0.567878 0.923097 0.152911
C30   C     C_R   0.571901 0.548085 0.068148 0.132259
C31   C     C_R   0.434250 0.443677 0.078666 -0.049204
C32   C     C_R   0.437241 0.435999 0.931333 0.251732
C33   C     C_R   0.670809 0.501954 0.498176 0.839871
C34   C     C_R   0.812927 0.620656 0.469286 0.066860
C35   C     C_R   0.767186 0.508103 0.495430 -0.064738
C36   C     C_R   0.812484 0.401765 0.530759 -0.232300
C37   C     C_R   0.904953 0.404561 0.537738 0.120971
C38   C     C_R   0.952780 0.515870 0.508840 0.047286
Cu1   Cu    Cu3+1 0.499990 0.499990 0.640660 0.988275
Cu2   Cu    Cu3+1 0.500010 0.500010 0.359340 0.994851
H1    H     H_    0.556346 0.093521 0.975186 0.162270
H2    H     H_    0.458456 0.907758 0.986829 0.161853
H3    H     H_    0.486661 0.887271 0.279757 0.174057
H4    H     H_    0.620210 0.683048 0.753344 0.208240
H5    H     H_    0.775186 0.316858 0.553592 0.141097
H6    H     H_    0.076347 0.216909 0.611125 0.182064
H7    H     H_    0.217921 0.326658 0.583273 0.171186
H8    H     H_    0.921726 0.822355 0.446923 0.201855
N1    N     N_R   0.500860 0.501210 0.147910 -0.208412
N2    N     N_R   0.500890 0.501290 0.852040 -0.209952
O1    O     O_R   0.499990 0.319640 0.618810 -0.574408
O2    O     O_R   0.500000 0.319660 0.381240 -0.576855
O3    O     O_R   0.370250 0.499960 0.618800 -0.534970
O4    O     O_R   0.370260 0.499980 0.381230 -0.574224
O5    O     O_R   0.500000 0.680340 0.618760 -0.598991
O6    O     O_R   0.500010 0.680360 0.381190 -0.561512
O7    O     O_R   0.629740 0.500020 0.618770 -0.599338
O8    O     O_R   0.629750 0.500040 0.381200 -0.555341
I1    I     I_    0.737758 0.782943 0.426836 -0.433128
H9    H     H_    0.587642 0.196292 0.753172 0.166575
I2    I     I_    0.339129 0.766948 0.788180 -0.263373
H10   H     H_    0.381528 0.395862 0.137592 0.168726
I3    I     I_    0.724465 0.385642 0.141233 -0.359783
H11   H     H_    0.783125 0.660900 0.099014 0.189878
H12   H     H_    0.745743 0.760621 0.878745 0.184441
I4    I     I_    0.341763 0.312008 0.848447 -0.309653
H13   H     H_    0.913786 0.212488 0.598347 0.163454
I5    I     I_    0.266938 0.748898 0.335712 -0.277956
I6    I     I_    0.100293 0.921772 0.501091 -0.306311
H14   H     H_    0.498196 0.110249 0.278689 0.169265

loop_
_geom_bond_atom_site_label_1
_geom_bond_atom_site_label_2
_ccdc_geom_bond_type
Cu1   O1    S    
C23   C24   S    
C6    C38   A    
C23   O5    A    
C37   C38   A    
C27   H12   S    
Cu2   O2    S    
C29   C30   A    
C14   H9    S    
C2    C38   A    
C3    C4    A    
C31   C32   A    
C19   C20   A    
C21   H14   S    
C11   C12   S    
C2    C34   A    
C17   C18   A    
C8    I6    S    
C36   H5    S    
C4    H6    S    
C21   C22   A    
C1    O1    A    
C31   H10   S    
C32   N2    A    
C26   C27   A    
C33   O8    A    
C3    H13   S    
C31   N1    A    
C18   C24   A    
C5    C6    A    
C25   C30   A    
C5    C10   A    
C36   C37   A    
C33   C35   S    
C30   N1    A    
Cu1   O3    S    
C18   C19   A    
C6    C7    A    
Cu2   O4    S    
C29   N2    A    
C34   I1    S    
C1    O2    A    
C22   C24   A    
C10   H7    S    
C11   C13   A    
Cu2   O8    S    
C10   C11   A    
C12   O4    A    
C15   H1    S    
C15   C16   A    
Cu1   O7    S    
C16   H2    S    
Cu2   N1    S    
C7    C13   A    
Cu1   N2    S    
C20   C21   A    
C3    C37   A    
C9    H8    S    
C32   I4    S    
C34   C35   A    
C25   I3    S    
C23   O6    A    
C27   C28   A    
C7    C8    A    
C26   H11   S    
Cu1   Cu2   S    
C4    C5    A    
C1    C20   S    
C33   O7    A    
C35   C36   A    
C17   I2    S    
C25   C26   A    
C14   C15   A    
C2    C9    A    
C14   C19   A    
C28   H4    S    
C22   H3    S    
Cu1   O5    S    
C28   C29   A    
C12   O3    A    
C16   C17   A    
C8    C9    A    
Cu2   O6    S    
C13   I5    S    
