data_mof_unit_9010.cif
_audit_creation_date              2012-10-26T17:12:43-0400
_audit_creation_method            fapswitch 2.2
_symmetry_space_group_name_H-M    P1
_symmetry_Int_Tables_number       1
_space_group_crystal_system       triclinic
_cell_length_a                    27.927117
_cell_length_b                    18.707253
_cell_length_c                    16.798809
_cell_angle_alpha                 89.798408
_cell_angle_beta                  63.012977
_cell_angle_gamma                 89.847204
_cell_volume                      7820.64556876

loop_
_atom_site_label
_atom_site_type_symbol
_atom_type_description
_atom_site_fract_x
_atom_site_fract_y
_atom_site_fract_z
_atom_type_partial_charge
C1    C     C_R   0.294872 0.728767 0.329138 0.547950
C2    C     C_R   0.599797 0.999814 0.500729 0.033988
C3    C     C_R   0.680927 0.735769 0.914678 0.014602
C4    C     C_R   0.122434 0.831965 0.043004 -0.078983
C5    C     C_R   0.885831 0.178435 0.952159 -0.078927
C6    C     C_R   0.877583 0.827746 0.958268 -0.084533
C7    C     C_R   0.117722 0.174245 0.045479 -0.084445
C8    C     C_R   0.654808 0.383466 0.004936 -0.091577
C9    C     C_R   0.388593 0.684365 0.952898 -0.091775
C10   C     C_R   0.350803 0.373318 0.985256 -0.085131
C11   C     C_R   0.613511 0.681539 0.049490 -0.109764
C12   C     C_R   0.154471 0.822104 0.085531 -0.051410
C13   C     C_R   0.902856 0.500704 0.485958 0.033400
C14   C     C_R   0.856127 0.190393 0.905596 -0.050640
C15   C     C_R   0.846128 0.816856 0.914636 -0.069001
C16   C     C_R   0.148201 0.184926 0.090865 -0.067225
C17   C     C_R   0.678875 0.358505 0.056088 -0.065174
C18   C     C_R   0.360252 0.702654 0.905617 -0.067201
C19   C     C_R   0.328822 0.345067 0.932773 -0.060532
C20   C     C_R   0.639671 0.706245 0.097509 -0.084294
C21   C     C_R   0.248452 0.705003 0.789926 -0.054995
C22   C     C_R   0.729621 0.238435 0.226766 -0.073359
C23   C     C_R   0.721824 0.793310 0.242256 -0.064760
C24   C     C_R   0.097384 0.499356 0.513341 0.032761
C25   C     C_R   0.273551 0.227874 0.767457 -0.067792
C26   C     C_R   0.742543 0.195219 0.791608 -0.041443
C27   C     C_R   0.262308 0.809658 0.205314 -0.049490
C28   C     C_R   0.259648 0.191965 0.207929 -0.059421
C29   C     C_R   0.739516 0.810302 0.791769 -0.064914
C30   C     C_R   0.280752 0.692556 0.831817 0.218826
C31   C     C_R   0.704325 0.264965 0.177932 0.222527
C32   C     C_R   0.689723 0.782040 0.199390 0.223555
C33   C     C_R   0.300786 0.251838 0.814162 0.221230
C34   C     C_R   0.774855 0.179752 0.832908 0.254195
C35   C     C_R   0.584732 0.874402 0.539940 -0.074056
C36   C     C_R   0.233803 0.829901 0.158778 0.244122
C37   C     C_R   0.228327 0.174785 0.165538 0.221629
C38   C     C_R   0.769210 0.829191 0.836224 0.215790
C39   C     C_R   0.928450 0.899608 0.064246 0.555178
C40   C     C_R   0.071005 0.100795 0.936084 0.551550
C41   C     C_R   0.071609 0.899507 0.935710 0.555547
C42   C     C_R   0.929361 0.101212 0.063569 0.550191
C43   C     C_R   0.425148 0.404008 0.067423 0.576412
C44   C     C_R   0.570818 0.601623 0.936238 0.535891
C45   C     C_R   0.575297 0.404751 0.932098 0.564230
C46   C     C_R   0.422022 0.127224 0.423525 -0.072150
C47   C     C_R   0.426448 0.597417 0.065980 0.550574
C48   C     C_R   0.070845 0.617508 0.435448 -0.018318
C49   C     C_R   0.929567 0.382419 0.563376 -0.018055
C50   C     C_R   0.972651 0.619319 0.424521 -0.021036
C51   C     C_R   0.027633 0.380704 0.574612 -0.020547
C52   C     C_R   0.563881 0.127274 0.454048 -0.020398
C53   C     C_R   0.460864 0.869289 0.462346 -0.016202
C54   C     C_R   0.469425 0.128467 0.433058 -0.023581
C55   C     C_R   0.544109 0.871279 0.512997 -0.012109
C56   C     C_R   0.058209 0.675635 0.394238 0.257760
C57   C     C_R   0.418628 0.870565 0.439433 -0.077607
C58   C     C_R   0.942363 0.324072 0.604021 0.255074
C59   C     C_R   0.009196 0.676779 0.389443 0.265035
C60   C     C_R   0.991237 0.323060 0.609218 0.263294
C61   C     C_R   0.543068 0.192614 0.440901 0.294132
C62   C     C_R   0.480115 0.804446 0.480553 0.280273
C63   C     C_R   0.496652 0.193149 0.428283 0.286207
C64   C     C_R   0.520168 0.805709 0.509373 0.283896
C65   C     C_R   0.986290 0.559886 0.462476 -0.017078
C66   C     C_R   0.014006 0.440149 0.536652 -0.016974
C67   C     C_R   0.035090 0.559255 0.468658 -0.015132
C68   C     C_R   0.612825 0.124438 0.457453 -0.072161
C69   C     C_R   0.965236 0.440762 0.530403 -0.015159
C70   C     C_R   0.488840 0.063968 0.451313 -0.012154
C71   C     C_R   0.527437 0.935025 0.488395 -0.003211
C72   C     C_R   0.535496 0.063647 0.463616 -0.011869
C73   C     C_R   0.483506 0.934523 0.468817 -0.008198
C74   C     C_R   0.462557 0.999292 0.454474 0.030356
C75   C     C_R   0.554064 0.999544 0.484779 0.033143
C76   C     C_R   0.951462 0.500511 0.493055 0.026814
C77   C     C_R   0.048817 0.499543 0.506134 0.027208
C78   C     C_R   0.389274 0.933978 0.446418 -0.010842
C79   C     C_R   0.077474 0.380049 0.576811 -0.075052
C80   C     C_R   0.628872 0.063678 0.489904 -0.004070
C81   C     C_R   0.616999 0.935870 0.525091 -0.006655
C82   C     C_R   0.390492 0.064794 0.441043 -0.008759
C83   C     C_R   0.870192 0.439196 0.509462 -0.009931
C84   C     C_R   0.130050 0.560852 0.489866 -0.008333
C85   C     C_R   0.113806 0.437388 0.542722 -0.011777
C86   C     C_R   0.886364 0.562705 0.456762 -0.010553
C87   C     C_R   0.336133 0.934331 0.454420 -0.023821
C88   C     C_R   0.672948 0.064329 0.511284 -0.019204
C89   C     C_R   0.666549 0.935280 0.531116 -0.023598
C90   C     C_R   0.922696 0.620069 0.422652 -0.074447
C91   C     C_R   0.336545 0.065240 0.452686 -0.023054
C92   C     C_R   0.826049 0.436619 0.488816 -0.023312
C93   C     C_R   0.174107 0.563418 0.510739 -0.014531
C94   C     C_R   0.166188 0.435484 0.537535 -0.026053
C95   C     C_R   0.833929 0.564579 0.462113 -0.025448
C96   C     C_R   0.310968 0.999895 0.457499 -0.146546
C97   C     C_R   0.691683 0.000022 0.529084 -0.148529
C98   C     C_R   0.806989 0.500250 0.470171 -0.146006
C99   C     C_R   0.193148 0.499791 0.529436 -0.134005
C100  C     C_R   0.881945 0.383336 0.554402 -0.080323
C101  C     C_R   0.703007 0.266660 0.671632 0.550510
C102  C     C_R   0.118382 0.616684 0.444743 -0.074966
C103  C     C_R   0.224893 0.773405 0.950333 0.005822
C104  C     C_R   0.781358 0.229631 0.042033 0.003797
C105  C     C_R   0.768266 0.794864 0.056146 0.007973
C106  C     C_R   0.223731 0.219779 0.952559 0.006874
C107  C     C_R   0.725592 0.268568 0.945322 0.005136
C108  C     C_R   0.288375 0.749831 0.039284 0.005820
C109  C     C_R   0.280045 0.259114 0.048186 0.006720
C110  C     C_R   0.708197 0.760262 0.963978 0.007754
C111  C     C_R   0.272860 0.732639 0.908252 0.017401
C112  C     C_R   0.702674 0.733525 0.672094 0.552686
C113  C     C_R   0.732097 0.266143 0.084247 0.015617
C114  C     C_R   0.713805 0.774004 0.105144 0.023830
C115  C     C_R   0.274139 0.253428 0.908271 0.018477
C116  C     C_R   0.768992 0.219896 0.907840 0.017604
C117  C     C_R   0.241913 0.792777 0.080120 0.019759
C118  C     C_R   0.235833 0.212028 0.087454 0.015573
C119  C     C_R   0.757209 0.797934 0.919739 0.016655
C120  C     C_R   0.306705 0.726300 0.950532 0.030287
C121  C     C_R   0.710922 0.297111 0.030487 0.038356
C122  C     C_R   0.686536 0.747480 0.056986 0.032564
C123  C     C_R   0.297085 0.266586 0.328319 0.551600
C124  C     C_R   0.296142 0.284513 0.960765 0.035655
C125  C     C_R   0.802217 0.211473 0.950868 0.025743
C126  C     C_R   0.208017 0.799726 0.038083 0.028255
C127  C     C_R   0.202646 0.203354 0.044432 0.032849
C128  C     C_R   0.790496 0.805125 0.962772 0.032517
C129  C     C_R   0.142884 0.822232 0.950054 -0.022975
C130  C     C_R   0.861552 0.181844 0.046452 -0.021637
C131  C     C_R   0.854754 0.827329 0.052111 -0.017944
C132  C     C_R   0.141307 0.177264 0.951284 -0.017061
C133  C     C_R   0.657043 0.343184 0.932210 -0.018753
C134  C     C_R   0.794125 0.226423 0.329320 0.554747
C135  C     C_R   0.363577 0.687546 0.047068 -0.023605
C136  C     C_R   0.346757 0.336740 0.062096 -0.018631
C137  C     C_R   0.634799 0.691711 0.956126 -0.021279
C138  C     C_R   0.113746 0.842212 0.901921 -0.005480
C139  C     C_R   0.887913 0.158653 0.097062 -0.003973
C140  C     C_R   0.884734 0.844988 0.099000 -0.006232
C141  C     C_R   0.113428 0.156830 0.902076 -0.005406
C142  C     C_R   0.621851 0.354685 0.892496 -0.009307
C143  C     C_R   0.382382 0.650610 0.102160 -0.008284
C144  C     C_R   0.379671 0.352125 0.105358 -0.001695
C145  C     C_R   0.203419 0.767775 0.671985 0.562098
C146  C     C_R   0.610470 0.662632 0.903867 -0.011384
C147  C     C_R   0.129513 0.813237 0.816167 0.194928
C148  C     C_R   0.869192 0.183544 0.184975 0.197205
C149  C     C_R   0.867137 0.818180 0.185601 0.194105
C150  C     C_R   0.131691 0.182645 0.814680 0.193721
C151  C     C_R   0.631632 0.316773 0.813763 0.194989
C152  C     C_R   0.353420 0.657895 0.195481 0.190815
C153  C     C_R   0.368990 0.315891 0.185804 0.201970
C154  C     C_R   0.627356 0.689080 0.816231 0.193642
C155  C     C_R   0.179058 0.777183 0.771249 -0.011557
C156  C     C_R   0.206258 0.225585 0.670203 0.556477
C157  C     C_R   0.815996 0.209674 0.232309 -0.012469
C158  C     C_R   0.812992 0.797118 0.235717 -0.014410
C159  C     C_R   0.185260 0.206765 0.766284 -0.013102
C160  C     C_R   0.678772 0.276183 0.769994 -0.011239
C161  C     C_R   0.317390 0.715214 0.232013 -0.011503
C162  C     C_R   0.322057 0.275008 0.229401 -0.011634
C163  C     C_R   0.675683 0.728025 0.772373 -0.013738
C164  C     C_R   0.207844 0.757551 0.820071 -0.067679
C165  C     C_R   0.784813 0.219956 0.184940 -0.071355
C166  C     C_R   0.778228 0.797971 0.194089 -0.073889
C167  C     C_R   0.793174 0.775590 0.330414 0.555865
C168  C     C_R   0.217886 0.212902 0.811517 -0.071343
C169  C     C_R   0.706393 0.253465 0.818684 -0.067598
C170  C     C_R   0.298522 0.751689 0.176717 -0.069329
C171  C     C_R   0.295943 0.249878 0.179361 -0.064545
C172  C     C_R   0.699916 0.756398 0.824356 -0.068403
C173  C     C_R   0.200711 0.630857 0.513645 0.541119
C174  C     C_R   0.799347 0.369157 0.486185 0.534909
C175  C     C_R   0.803457 0.631806 0.471866 0.535217
C176  C     C_R   0.196577 0.368220 0.528016 0.536922
C177  C     C_R   0.700107 0.131002 0.515122 0.524196
C178  C     C_R   0.414006 0.999401 0.447214 0.032496
C179  C     C_R   0.303391 0.868227 0.472017 0.521683
C180  C     C_R   0.303669 0.131806 0.471122 0.515974
C181  C     C_R   0.696959 0.868501 0.525521 0.517339
C182  C     C_R   0.192185 0.785283 0.906192 0.011532
C183  C     C_R   0.809553 0.211134 0.091174 0.013290
C184  C     C_R   0.800536 0.806187 0.100714 0.012816
C185  C     C_R   0.194102 0.203732 0.905102 0.013145
C186  C     C_R   0.696084 0.288161 0.898812 0.013346
C187  C     C_R   0.316684 0.729423 0.087879 0.013416
C188  C     C_R   0.308042 0.281461 0.096285 0.015503
Cl1   Cl    Cl    0.542136 0.723966 0.535384 -0.445047
Cl2   Cl    Cl    0.915942 0.190426 0.229321 -0.530197
Cl3   Cl    Cl    0.915607 0.803996 0.225074 -0.489631
Cl4   Cl    Cl    0.084186 0.192867 0.772345 -0.492316
Cl5   Cl    Cl    0.582319 0.310815 0.774712 -0.472247
Cl6   Cl    Cl    0.353076 0.586394 0.266372 -0.517451
Cl7   Cl    Cl    0.417463 0.311746 0.226934 -0.465039
Cl8   Cl    Cl    0.582859 0.684806 0.767100 -0.519990
Cl9   Cl    Cl    0.321412 0.615075 0.796006 -0.566213
Cl10  Cl    Cl    0.634776 0.282089 0.235895 -0.512431
Cl11  Cl    Cl    0.619899 0.793745 0.266186 -0.591648
Cl12  Cl    Cl    0.471875 0.276006 0.411047 -0.393918
Cl13  Cl    Cl    0.370499 0.267052 0.751821 -0.522492
Cl14  Cl    Cl    0.813857 0.101045 0.797984 -0.464027
Cl15  Cl    Cl    0.196259 0.909731 0.194308 -0.477027
Cl16  Cl    Cl    0.187953 0.097692 0.204529 -0.504024
Cl17  Cl    Cl    0.812800 0.903064 0.792429 -0.507921
Cl18  Cl    Cl    0.451705 0.721394 0.474223 -0.461197
Cl19  Cl    Cl    0.570270 0.274845 0.453421 -0.415246
Cl20  Cl    Cl    0.006177 0.248235 0.659021 -0.464859
Cl21  Cl    Cl    0.994313 0.751463 0.339359 -0.458006
Cl22  Cl    Cl    0.898134 0.250358 0.647188 -0.526619
Cl23  Cl    Cl    0.102978 0.748685 0.349264 -0.522407
Cl24  Cl    Cl    0.082923 0.811474 0.771139 -0.531619
Cu1   Cu    Cu3+1 0.209920 0.785290 0.495070 1.117631
Cu2   Cu    Cu3+1 0.504760 0.500000 0.075850 1.124204
Cu3   Cu    Cu3+1 0.995240 1.000000 0.924150 1.135390
Cu4   Cu    Cu3+1 0.004760 1.000000 0.075850 1.125791
Cu5   Cu    Cu3+1 0.790080 0.214710 0.504930 1.118255
Cu6   Cu    Cu3+1 0.790080 0.785290 0.504930 1.095788
Cu7   Cu    Cu3+1 0.209920 0.214710 0.495070 1.100606
Cu8   Cu    Cu3+1 0.709920 0.285290 0.495070 1.123558
Cu9   Cu    Cu3+1 0.290080 0.714710 0.504930 1.127919
Cu10  Cu    Cu3+1 0.290080 0.285290 0.504930 1.130496
Cu11  Cu    Cu3+1 0.709920 0.714710 0.495070 1.116618
Cu12  Cu    Cu3+1 0.495240 0.500000 0.924150 1.132246
H1    H     H_    0.269776 0.000068 0.467744 0.174486
H2    H     H_    0.429959 0.668719 0.913963 0.183004
H3    H     H_    0.369155 0.424905 0.964418 0.168486
H4    H     H_    0.574955 0.657805 0.089725 0.172430
H5    H     H_    0.135414 0.827396 0.157341 0.226688
H6    H     H_    0.876596 0.187041 0.833526 0.230883
H7    H     H_    0.866417 0.814270 0.842530 0.181075
H8    H     H_    0.127826 0.183189 0.163039 0.182792
H9    H     H_    0.674225 0.389199 0.113700 0.171284
H10   H     H_    0.381128 0.699688 0.833582 0.197825
H11   H     H_    0.334514 0.373846 0.873097 0.188158
H12   H     H_    0.727483 0.000096 0.538791 0.172794
H13   H     H_    0.623351 0.689725 0.166397 0.195974
H14   H     H_    0.589525 0.829011 0.575088 0.207967
H15   H     H_    0.410908 0.174784 0.399778 0.210756
H16   H     H_    0.410008 0.821816 0.414989 0.199979
H17   H     H_    0.639036 0.169139 0.428637 0.178347
H18   H     H_    0.087105 0.336127 0.608779 0.210096
H19   H     H_    0.912982 0.664060 0.390886 0.210936
H20   H     H_    0.852808 0.341791 0.586254 0.192952
H21   H     H_    0.147483 0.658325 0.413146 0.196725
H22   H     H_    0.252527 0.667512 0.738614 0.191989
H23   H     H_    0.769763 0.500073 0.464815 0.171926
H24   H     H_    0.704124 0.230130 0.296778 0.176758
H25   H     H_    0.701473 0.802306 0.313480 0.183688
H26   H     H_    0.297588 0.219283 0.696914 0.188101
H27   H     H_    0.744312 0.158491 0.740842 0.186242
H28   H     H_    0.256952 0.842146 0.261641 0.186680
H29   H     H_    0.256750 0.156931 0.261174 0.184238
H30   H     H_    0.745871 0.842366 0.734390 0.188727
H31   H     H_    0.230345 0.499963 0.534890 0.179892
H32   H     H_    0.080536 0.842329 0.086109 0.192566
H33   H     H_    0.928310 0.168598 0.912700 0.190559
H34   H     H_    0.920432 0.832830 0.917161 0.173632
H35   H     H_    0.075082 0.166435 0.085841 0.175242
H36   H     H_    0.635575 0.434855 0.023608 0.152552
O1    O     O_R   0.255040 0.869590 0.478480 -0.508816
O2    O     O_R   0.817950 0.203450 0.375560 -0.432296
O3    O     O_R   0.817950 0.796550 0.375560 -0.434654
O4    O     O_R   0.182050 0.203450 0.624440 -0.433062
O5    O     O_R   0.682050 0.296550 0.624440 -0.434327
O6    O     O_R   0.317950 0.703450 0.375560 -0.438226
O7    O     O_R   0.317950 0.296550 0.375560 -0.427921
O8    O     O_R   0.682050 0.703450 0.624440 -0.426449
O9    O     O_R   0.250530 0.763330 0.367210 -0.534490
O10   O     O_R   0.749470 0.236670 0.632790 -0.533334
O11   O     O_R   0.749470 0.763330 0.632790 -0.535951
O12   O     O_R   0.744960 0.130410 0.521520 -0.512456
O13   O     O_R   0.250530 0.236670 0.367210 -0.535356
O14   O     O_R   0.750530 0.263330 0.367210 -0.536891
O15   O     O_R   0.249470 0.736670 0.632790 -0.530316
O16   O     O_R   0.249470 0.263330 0.632790 -0.531672
O17   O     O_R   0.750530 0.736670 0.367210 -0.527390
O18   O     O_R   0.177260 0.690030 0.513710 -0.505251
O19   O     O_R   0.822740 0.309970 0.486290 -0.496537
O20   O     O_R   0.822740 0.690030 0.486290 -0.503695
O21   O     O_R   0.177260 0.309970 0.513710 -0.504325
O22   O     O_R   0.677260 0.190030 0.513710 -0.505883
O23   O     O_R   0.744960 0.869590 0.521520 -0.511910
O24   O     O_R   0.322740 0.809970 0.486290 -0.514613
O25   O     O_R   0.322740 0.190030 0.486290 -0.518170
O26   O     O_R   0.677260 0.809970 0.513710 -0.516257
O27   O     O_R   0.051640 0.926880 0.885090 -0.443349
O28   O     O_R   0.948360 0.073120 0.114910 -0.448993
O29   O     O_R   0.948360 0.926880 0.114910 -0.444455
O30   O     O_R   0.051640 0.073120 0.885090 -0.445145
O31   O     O_R   0.551640 0.426880 0.885090 -0.435661
O32   O     O_R   0.448360 0.573120 0.114910 -0.447185
O33   O     O_R   0.448360 0.426880 0.114910 -0.414283
O34   O     O_R   0.255040 0.130410 0.478480 -0.512225
O35   O     O_R   0.551640 0.573120 0.885090 -0.441703
O36   O     O_R   0.940620 0.926560 0.986760 -0.525647
O37   O     O_R   0.059380 0.073440 0.013240 -0.529469
O38   O     O_R   0.059380 0.926560 0.013240 -0.530299
O39   O     O_R   0.940620 0.073440 0.986760 -0.526827
O40   O     O_R   0.440620 0.426560 0.986760 -0.527163
O41   O     O_R   0.559380 0.573440 0.013240 -0.561669
O42   O     O_R   0.559380 0.426560 0.013240 -0.519745
O43   O     O_R   0.440620 0.573440 0.986760 -0.540841
O44   O     O_R   0.755040 0.369590 0.478480 -0.504752
O45   O     O_R   0.244960 0.630410 0.521520 -0.493794
O46   O     O_R   0.244960 0.369590 0.521520 -0.494953
O47   O     O_R   0.755040 0.630410 0.478480 -0.501780
O48   O     O_R   0.182050 0.796550 0.624440 -0.429783

loop_
_geom_bond_atom_site_label_1
_geom_bond_atom_site_label_2
_ccdc_geom_bond_type
C108  C120  A    
C7    H35   S    
C129  C182  A    
C88   C177  S    
C50   C59   A    
C145  O15   A    
C181  O23   A    
C52   C61   A    
C12   C126  A    
C54   C63   A    
C58   C60   A    
C47   C143  S    
C44   O41   A    
C61   C63   A    
C103  C126  A    
C95   C175  S    
C62   C64   A    
C131  C140  A    
C91   C96   A    
C39   C140  S    
C50   C90   A    
C162  C171  A    
C11   H4    S    
C170  C187  A    
C70   C74   A    
C9    H2    S    
C4    C12   A    
C147  C155  A    
C24   C85   A    
C112  O8    A    
C88   C97   A    
C119  C128  A    
C49   C69   A    
C43   C144  S    
Cu1   O48   S    
C109  C118  A    
C11   C20   A    
C150  C159  A    
C165  C183  A    
C137  C146  A    
C166  C184  A    
C175  O20   A    
C86   C90   A    
C71   C73   A    
C106  C127  A    
C82   C91   A    
C51   C66   A    
C89   C181  S    
C142  C151  A    
Cu3   Cu4   S    
C52   C72   A    
C41   O38   A    
C105  C114  A    
C146  C154  A    
Cu3   O39   S    
C82   C178  A    
C176  O46   A    
C36   C117  A    
C7    C132  A    
C38   C119  A    
C145  O48   A    
C5    C130  A    
C83   C100  A    
C43   O33   A    
C45   C142  S    
C147  Cl24  S    
C177  O12   A    
C79   C85   A    
C173  O18   A    
C66   C77   A    
Cu1   O18   S    
Cu4   O37   S    
C57   C78   A    
Cu9   O24   S    
Cu7   O4    S    
C18   H10   S    
C8    C17   A    
C56   C59   A    
C152  Cl6   S    
C106  C115  A    
C80   C88   A    
C23   C32   A    
C22   H24   S    
C179  O1    A    
C93   C173  S    
Cu3   O27   S    
Cu9   O15   S    
C84   C93   A    
Cu4   O28   S    
C105  C184  A    
C14   H6    S    
C86   C95   A    
C24   C77   A    
C104  C183  A    
C136  C144  A    
C42   O39   A    
C2    C81   A    
C41   O27   A    
C62   Cl18  S    
C31   Cl10  S    
C55   C71   A    
C2    C75   A    
C78   C87   A    
Cu12  O43   S    
C39   O29   A    
C84   C102  A    
C67   C77   A    
Cu6   Cu11  S    
C133  C142  A    
C32   Cl11  S    
C130  C183  A    
C1    O9    A    
C3    C110  A    
Cu7   O13   S    
C69   C76   A    
C85   C94   A    
C180  O25   A    
C28   C171  A    
C46   C82   A    
C101  C160  S    
C29   C38   A    
C149  C158  A    
C167  O17   A    
C20   C122  A    
C152  C161  A    
C100  H20   S    
Cu2   O41   S    
C135  C143  A    
C174  O19   A    
C48   C67   A    
C40   C141  S    
C136  C188  A    
Cu6   O3    S    
C72   C75   A    
Cu8   O5    S    
C112  O11   A    
C135  C187  A    
C141  C150  A    
C25   C168  A    
C148  Cl2   S    
C139  C148  A    
C149  Cl3   S    
C156  O16   A    
C104  C125  A    
C28   H29   S    
C56   Cl23  S    
C157  C165  A    
C92   C174  S    
Cu1   O1    S    
C8    H36   S    
C68   H17   S    
C91   C180  S    
C5    H33   S    
C45   O31   A    
C167  O3    A    
C46   H15   S    
Cu11  O8    S    
C9    C135  A    
C116  C125  A    
C10   H3    S    
C118  C127  A    
C4    H32   S    
C117  C126  A    
C132  C141  A    
C180  O34   A    
C108  C117  A    
C53   C57   A    
C110  C119  A    
C21   H22   S    
Cu11  O17   S    
C173  O45   A    
Cu7   Cu10  S    
C181  O26   A    
C28   C37   A    
C34   Cl14  S    
C37   Cl16  S    
C148  C157  A    
C50   C65   A    
C51   C79   A    
C107  C116  A    
C104  C113  A    
C177  O22   A    
Cu3   O30   S    
C113  C121  A    
C51   C60   A    
C140  C149  A    
C31   C113  A    
C59   Cl21  S    
C25   C33   A    
C43   O40   A    
C38   Cl17  S    
C73   C74   A    
C64   Cl1   S    
C168  C185  A    
Cu5   Cu8   S    
C107  C186  A    
C65   C76   A    
C171  C188  A    
Cu11  O47   S    
C40   O37   A    
C169  C186  A    
C3    C172  A    
C47   O32   A    
Cu5   O10   S    
C63   Cl12  S    
C103  C111  A    
Cu1   Cu9   S    
C1    O6    A    
C65   C67   A    
C158  C167  S    
C160  C169  A    
C40   O30   A    
C3    C137  A    
C36   Cl15  S    
C93   C99   A    
C81   C89   A    
C8    C133  A    
C1    C161  S    
C21   C164  A    
C102  H21   S    
C130  C139  A    
C179  O24   A    
C47   O43   A    
C33   C115  A    
Cu4   O38   S    
Cu8   O14   S    
C12   H5    S    
Cu9   O45   S    
C60   Cl20  S    
C97   H12   S    
C132  C185  A    
C27   H28   S    
Cu11  O26   S    
C25   H26   S    
Cu3   O36   S    
C153  Cl7   S    
C10   C19   A    
C48   C102  A    
C46   C54   A    
Cu12  O35   S    
C29   H30   S    
C27   C170  A    
C5    C14   A    
C61   Cl19  S    
C17   C121  A    
C143  C152  A    
C15   C128  A    
C107  C121  A    
C158  C166  A    
Cu10  O46   S    
C112  C163  S    
C101  O5    A    
C175  O47   A    
C115  C124  A    
C78   C178  A    
C106  C185  A    
C6    C131  A    
C19   H11   S    
C4    C129  A    
C17   H9    S    
C27   C36   A    
Cu5   O12   S    
C21   C30   A    
C13   C83   A    
C153  C162  A    
C6    H34   S    
C96   H1    S    
C151  Cl5   S    
C11   C137  A    
C23   H25   S    
C110  C122  A    
Cu10  O7    S    
Cu2   O33   S    
C164  C182  A    
C123  O7    A    
Cu5   O19   S    
Cu2   O32   S    
C20   H13   S    
C94   C176  S    
Cu2   O42   S    
C68   C80   A    
C74   C178  A    
C103  C182  A    
C108  C187  A    
C35   C81   A    
C95   C98   A    
C92   C98   A    
Cu8   O44   S    
C83   C92   A    
C14   C125  A    
C10   C136  A    
Cu10  O25   S    
C66   C69   A    
C34   C116  A    
Cu4   O29   S    
C159  C168  A    
C131  C184  A    
C79   H18   S    
C15   H7    S    
C144  C153  A    
C99   H31   S    
Cu9   O6    S    
C6    C15   A    
C22   C165  A    
C26   C34   A    
C37   C118  A    
C26   C169  A    
C44   O35   A    
C54   C70   A    
C13   C86   A    
C44   C146  S    
C52   C68   A    
C154  Cl8   S    
C134  O2    A    
C156  O4    A    
C90   H19   S    
C35   H14   S    
C16   C127  A    
C58   Cl22  S    
C109  C188  A    
C19   C124  A    
C22   C31   A    
C129  C138  A    
C35   C55   A    
C154  C163  A    
C123  C162  S    
Cu6   O23   S    
C87   C179  S    
C16   H8    S    
C49   C58   A    
C89   C97   A    
C111  C120  A    
C114  C122  A    
C176  O21   A    
C163  C172  A    
C23   C166  A    
C53   C62   A    
C9    C18   A    
Cu7   O34   S    
C13   C76   A    
C138  C147  A    
C87   C96   A    
C134  C157  S    
C41   C138  S    
C45   O42   A    
Cu2   Cu12  S    
C133  C186  A    
C161  C170  A    
Cu7   O21   S    
C134  O14   A    
C174  O44   A    
C18   C120  A    
C48   C56   A    
C7    C16   A    
Cu5   O2    S    
C105  C128  A    
C42   C139  S    
C156  C159  S    
C53   C73   A    
Cu8   O22   S    
C109  C124  A    
C55   C64   A    
C155  C164  A    
C101  O10   A    
Cu6   O11   S    
Cu12  O31   S    
C30   C111  A    
C151  C160  A    
C24   C84   A    
C98   H23   S    
C49   C100  A    
C71   C75   A    
C94   C99   A    
C33   Cl13  S    
C29   C172  A    
Cu10  O16   S    
C57   H16   S    
C2    C80   A    
C26   H27   S    
C150  Cl4   S    
C145  C155  S    
C123  O13   A    
C30   Cl9   S    
Cu6   O20   S    
Cu12  O40   S    
Cu1   O9    S    
C39   O36   A    
C70   C72   A    
C32   C114  A    
C42   O28   A    
