data_mof_unit_8800.cif
_audit_creation_date              2013-03-05T16:06:55-0500
_audit_creation_method            fapswitch 2.2
_symmetry_space_group_name_H-M    P1
_symmetry_Int_Tables_number       1
_space_group_crystal_system       triclinic
_cell_length_a                    10.838464
_cell_length_b                    9.592521
_cell_length_c                    10.844027
_cell_angle_alpha                 89.802896
_cell_angle_beta                  91.95213
_cell_angle_gamma                 90.048044
_cell_volume                      1126.77261526

loop_
_atom_site_label
_atom_site_type_symbol
_atom_site_description
_atom_site_fract_x
_atom_site_fract_y
_atom_site_fract_z
_atom_type_partial_charge
O1    O     O_R   0.319640 0.618740 0.499990 -0.602431
O2    O     O_R   0.680360 0.618740 0.500010 -0.591912
O3    O     O_R   0.319620 0.381170 0.499990 -0.560465
O4    O     O_R   0.680380 0.381170 0.500010 -0.553836
C1    C     C_R   0.262318 0.500223 0.500858 0.828415
C2    C     C_R   0.737702 0.500301 0.499323 0.808954
O5    O     O_R   0.499990 0.618810 0.319660 -0.554931
O6    O     O_R   0.500010 0.618810 0.680340 -0.589321
O7    O     O_R   0.499960 0.381240 0.319650 -0.546749
O8    O     O_R   0.500040 0.381240 0.680350 -0.553411
C3    C     C_R   0.499275 0.500266 0.262631 0.820192
C4    C     C_R   0.499862 0.499985 0.737390 0.878327
Cu1   Cu    Cu3+1 0.500000 0.640660 0.500000 1.000603
Cu2   Cu    Cu3+1 0.500000 0.359340 0.500000 1.069491
C5    C     C_R   0.490264 0.624641 0.062730 0.027092
C6    C     C_R   0.489778 0.624431 0.936030 -0.046435
C7    C     C_R   0.504342 0.500764 0.129725 -0.101418
C8    C     C_R   0.504667 0.500444 0.870784 -0.047952
C9    C     C_R   0.529754 0.377228 0.066004 -0.131052
C10   C     C_R   0.529336 0.376956 0.937439 -0.139607
H1    H     H_    0.546090 0.279920 0.114835 0.210744
H2    H     H_    0.544065 0.279133 0.890981 0.206378
C11   C     C_3   0.400523 0.745276 0.924504 0.324536
C12   C     C_3   0.399897 0.743926 0.067979 0.322241
C13   C     C_R   0.063538 0.375518 0.500128 -0.103038
C14   C     C_R   0.936126 0.375657 0.495316 -0.105232
H3    H     H_    0.110885 0.276845 0.502605 0.218790
H4    H     H_    0.888459 0.277213 0.488511 0.218658
C15   C     C_R   0.871667 0.501582 0.498744 -0.060509
C16   C     C_R   0.128392 0.501449 0.501799 -0.045532
C17   C     C_R   0.936271 0.628349 0.502679 -0.131719
C18   C     C_R   0.064204 0.628316 0.503166 -0.109610
H5    H     H_    0.888340 0.727307 0.505002 0.182689
H6    H     H_    0.112458 0.727273 0.505070 0.182141
C19   C     C_R   0.405566 0.071941 0.441952 0.399601
C20   C     C_R   0.594821 0.071578 0.557301 0.376347
C21   C     C_R   0.406721 0.924214 0.443431 0.006285
C22   C     C_R   0.593641 0.923913 0.555939 -0.095765
H7    H     H_    0.332829 0.866907 0.397168 0.169066
H8    H     H_    0.667570 0.866321 0.602222 0.182428
N1    N     N_R   0.500000 0.852070 0.500000 -0.223166
N2    N     N_R   0.500000 0.147940 0.500000 -0.282886
C23   C     C_3   0.459599 0.873884 0.864772 -0.713407
H9    H     H_    0.404701 0.968657 0.883402 0.264420
H10   H     H_    0.555905 0.890246 0.900300 0.233113
H11   H     H_    0.460616 0.860758 0.763501 0.230101
C24   C     C_3   0.276698 0.703557 0.125689 -0.721776
H12   H     H_    0.288037 0.696734 0.227505 0.209249
H13   H     H_    0.205787 0.784042 0.103424 0.278458
H14   H     H_    0.242855 0.601113 0.090992 0.239795
N3    N     N_R   0.280045 0.710615 0.865132 0.134944
O9    O     O_R   0.250078 0.582769 0.837330 -0.375980
O10   O     O_R   0.197791 0.808182 0.847969 -0.316481
N4    N     N_R   0.453976 0.869552 0.125264 0.125274
O11   O     O_R   0.563956 0.867620 0.177449 -0.345771
O12   O     O_R   0.390806 0.984792 0.125219 -0.324713
N5    N     N_R   0.302481 0.137245 0.378785 0.134744
O13   O     O_R   0.320648 0.217307 0.284412 -0.295310
O14   O     O_R   0.193537 0.081858 0.388395 -0.398616
N6    N     N_R   0.698823 0.136487 0.618773 0.128347
O15   O     O_R   0.682176 0.215967 0.713261 -0.356943
O16   O     O_R   0.807687 0.081918 0.606998 -0.385447

loop_
_geom_bond_atom_site_label_1
_geom_bond_atom_site_label_2
_geom_bond_distance
_ccdc_geom_bond_type
C19   N5    1.433889 S    
C16   C18   1.402664 A    
O7    Cu2   1.966239 S    
C17   H5    1.083275 S    
O6    Cu1   1.966091 S    
O6    C4    1.295054 A    
C13   H3    1.076876 S    
O7    C3    1.296463 A    
C20   N2    1.390499 A    
C24   H12   1.108463 S    
Cu2   N2    2.027859 S    
C11   C12   1.556103 S    
C6    C11   1.512569 S    
C20   C22   1.416652 A    
C19   N2    1.390436 A    
C24   H13   1.110015 S    
C6    C8    1.398245 A    
Cu1   Cu2   2.698568 S    
N6    O16   1.301646 A    
O5    C3    1.296182 A    
C23   H10   1.111462 S    
N5    O13   1.297681 A    
O2    C2    1.295631 A    
O3    Cu2   1.966396 S    
O8    C4    1.298076 A    
C22   N1    1.353785 A    
C21   N1    1.354017 A    
O1    C1    1.295268 A    
Cu1   N1    2.027955 S    
C5    C12   1.509289 S    
C9    H1    1.083289 S    
C10   H2    1.081117 S    
C24   H14   1.111012 S    
C8    C10   1.406631 A    
C23   H9    1.109810 S    
O4    Cu2   1.966045 S    
C23   H11   1.106240 S    
N4    O12   1.300775 A    
N5    O14   1.301666 A    
O4    C2    1.300400 A    
O1    Cu1   1.965923 S    
C5    C6    1.373784 A    
C12   N4    1.469970 S    
N3    O9    1.302139 A    
C7    C9    1.405971 A    
O3    C1    1.300645 A    
O5    Cu1   1.967525 S    
C2    C15   1.452239 S    
C11   C23   1.540426 S    
C14   C15   1.397174 A    
C21   H7    1.081230 S    
C1    C16   1.451991 S    
O8    Cu2   1.967673 S    
C4    C8    1.445708 S    
C13   C16   1.396976 A    
C5    C7    1.396396 A    
O2    Cu1   1.966272 S    
C20   N6    1.432879 S    
N4    O11   1.302103 A    
C3    C7    1.444145 S    
C19   C21   1.417165 A    
C13   C14   1.380156 A    
C15   C17   1.402747 A    
C12   C24   1.542392 S    
C14   H4    1.077581 S    
C22   H8    1.081930 S    
C17   C18   1.386432 A    
C11   N3    1.474332 S    
C9    C10   1.394026 A    
N6    O15   1.296881 A    
N3    O10   1.301641 A    
C18   H6    1.083329 S    
