data_mof_unit_43242.cif
_audit_creation_date              2012-10-26T20:50:51-0400
_audit_creation_method            fapswitch 2.2
_symmetry_space_group_name_H-M    P1
_symmetry_Int_Tables_number       1
_space_group_crystal_system       triclinic
_cell_length_a                    11.073114
_cell_length_b                    10.829621
_cell_length_c                    9.601225
_cell_angle_alpha                 90.205807
_cell_angle_beta                  102.550667
_cell_angle_gamma                 90.003226
_cell_volume                      1123.83591864

loop_
_atom_site_label
_atom_site_type_symbol
_atom_type_description
_atom_site_fract_x
_atom_site_fract_y
_atom_site_fract_z
_atom_type_partial_charge
C1    C     C_R   0.498124 0.262622 0.499295 0.550187
C2    C     C_R   0.409005 0.443347 0.051796 0.003940
C3    C     C_R   0.410386 0.440057 0.903627 0.207903
C4    C     C_R   0.263057 0.498529 0.442014 0.560188
C5    C     C_R   0.588989 0.563041 0.948944 0.104402
C6    C     C_3   0.724355 0.539588 0.972178 -0.221333
C7    C     C_3   0.724873 0.513592 0.126114 -0.049137
C8    C     C_R   0.499216 0.737556 0.500101 0.549830
C9    C     C_R   0.737195 0.503618 0.558301 0.558100
C10   C     C_2   0.128392 0.490621 0.410513 -0.143744
C11   C     C_2   0.069371 0.499331 0.517489 -0.144694
C12   C     C_R   0.487362 0.129593 0.496403 0.001836
C13   C     C_2   0.872587 0.517139 0.591829 0.089711
C14   C     C_2   0.935800 0.483603 0.493536 -0.119092
C15   C     C_R   0.489579 0.064837 0.622100 -0.024886
C16   C     C_R   0.470300 0.063869 0.367161 -0.156235
C17   C     C_R   0.471714 0.935130 0.368114 -0.157386
C18   C     C_R   0.490051 0.870941 0.498282 0.014777
C19   C     C_R   0.490400 0.937564 0.623560 0.053060
C20   C     C_3   0.576319 0.936453 0.768810 0.193367
C21   C     C_3   0.574677 0.077242 0.765205 -0.167527
C22   C     C_R   0.592854 0.555533 0.096930 0.188675
Cu1   Cu    Cu3+1 0.499990 0.499980 0.640670 0.960555
Cu2   Cu    Cu3+1 0.500010 0.500020 0.359330 0.934704
H1    H     H_    0.888727 0.443177 0.393637 0.115691
H2    H     H_    0.789926 0.571833 0.203768 0.128758
H3    H     H_    0.120614 0.518497 0.625159 0.190011
H4    H     H_    0.872388 0.597806 0.784664 0.230192
H5    H     H_    0.974580 0.655505 0.700454 0.225013
H6    H     H_    0.077888 0.475151 0.301429 0.096688
H7    H     H_    0.461436 0.111287 0.266300 0.140498
H8    H     H_    0.463433 0.886565 0.267653 0.148049
H9    H     H_    0.503083 0.791472 0.859873 0.250059
H10   H     H_    0.434511 0.926112 0.877668 0.215115
H11   H     H_    0.692257 0.789080 0.763292 0.246053
H12   H     H_    0.664691 0.119990 0.758846 0.143399
H13   H     H_    0.756717 0.905999 0.867968 0.238184
H14   H     H_    0.528177 0.121081 0.844409 0.132888
H15   H     H_    0.336755 0.395259 0.089597 0.113453
H16   H     H_    0.232765 0.395933 0.819779 0.204894
H17   H     H_    0.331348 0.275349 0.843795 0.199590
H18   H     H_    0.749001 0.457821 0.913919 0.193300
H19   H     H_    0.775161 0.625851 0.960053 0.077349
H20   H     H_    0.830070 0.356597 0.163766 0.213979
H21   H     H_    0.710227 0.357285 0.245841 0.276747
N1    N     N_R   0.500780 0.500930 0.148120 -0.241203
N2    N     N_R   0.500790 0.500890 0.852210 -0.206726
N3    N     N_3   0.320442 0.366978 0.809423 -0.559458
N4    N     N_3   0.736808 0.380183 0.151550 -0.635085
N5    N     N_3   0.935885 0.572276 0.724584 -0.653945
N6    N     N_3   0.520724 0.885008 0.881525 -0.630741
N7    N     N_3   0.698824 0.885244 0.769289 -0.615612
O1    O     O_R   0.500000 0.319640 0.618810 -0.475439
O2    O     O_R   0.500010 0.319680 0.381230 -0.515680
O3    O     O_R   0.320680 0.500000 0.575130 -0.464824
O4    O     O_R   0.320690 0.500040 0.337550 -0.508149
O5    O     O_R   0.499990 0.680320 0.618770 -0.515915
O6    O     O_R   0.500000 0.680360 0.381190 -0.502323
O7    O     O_R   0.679310 0.499960 0.662450 -0.517681
O8    O     O_R   0.679320 0.500000 0.424870 -0.524331

loop_
_geom_bond_atom_site_label_1
_geom_bond_atom_site_label_2
_ccdc_geom_bond_type
H20   N4    S    
Cu2   O2    S    
C15   C19   A    
C1    O2    A    
Cu1   O3    S    
C6    C7    S    
C5    C22   A    
C11   H3    S    
C8    O5    A    
Cu2   O4    S    
C7    C22   S    
C10   H6    S    
C19   C20   S    
C12   C15   A    
H21   N4    S    
Cu2   O8    S    
C9    O8    A    
Cu2   N1    S    
C2    C3    A    
C20   N7    S    
C21   H12   S    
C13   C14   D    
C4    O4    A    
C16   H7    S    
Cu1   O7    S    
C5    N2    A    
H10   N6    S    
C7    H2    S    
C2    H15   S    
C3    N2    A    
C22   N1    A    
H17   N3    S    
Cu1   O1    S    
C20   N6    S    
H5    N5    S    
C2    N1    A    
C14   H1    S    
C5    C6    S    
C11   C14   S    
C8    C18   S    
H9    N6    S    
C10   C11   D    
H13   N7    S    
Cu1   Cu2   S    
C4    C10   S    
C13   N5    S    
Cu2   O6    S    
C3    N3    S    
C15   C21   S    
Cu1   N2    S    
C20   C21   S    
C7    N4    S    
C17   C18   A    
C18   C19   A    
C6    H18   S    
C4    O3    A    
Cu1   O5    S    
C17   H8    S    
C9    C13   S    
C6    H19   S    
H11   N7    S    
C1    O1    A    
C8    O6    A    
H4    N5    S    
H16   N3    S    
C1    C12   S    
C21   H14   S    
C12   C16   A    
C16   C17   A    
C9    O7    A    
