data_mof_unit_18877.cif
_audit_creation_date              2012-12-10T17:55:03-0500
_audit_creation_method            fapswitch 2.2
_symmetry_space_group_name_H-M    P1
_symmetry_Int_Tables_number       1
_space_group_crystal_system       triclinic
_cell_length_a                    8.782919
_cell_length_b                    10.830534
_cell_length_c                    9.516493
_cell_angle_alpha                 89.963074
_cell_angle_beta                  97.61087
_cell_angle_gamma                 90.262839
_cell_volume                      897.259800631

loop_
_atom_site_label
_atom_site_type_symbol
_atom_type_description
_atom_site_fract_x
_atom_site_fract_y
_atom_site_fract_z
_atom_type_partial_charge
C1    C     C_R   0.499997 0.262072 0.499987 0.809179
C2    C     C_R   0.500002 0.737927 0.500013 0.809179
C3    C     C_R   0.204278 0.497884 0.464448 0.862478
C4    C     C_R   0.795721 0.502116 0.535552 0.862478
C5    C     C_2   0.040685 0.477953 0.449354 -0.266868
C6    C     C_2   0.959315 0.522047 0.550646 -0.266868
C7    C     C_R   0.509232 0.063975 0.373707 -0.164827
C8    C     C_R   0.490768 0.936025 0.626293 -0.164827
C9    C     C_R   0.509171 0.936242 0.373688 -0.176351
C10   C     C_R   0.490829 0.063758 0.626312 -0.176351
C11   C     C_R   0.499959 0.871772 0.499982 -0.006206
C12   C     C_R   0.500041 0.128228 0.500018 -0.006207
C13   C     C_R   0.398514 0.428147 0.062026 0.009846
C14   C     C_R   0.601486 0.571853 0.937974 0.009846
C15   C     C_R   0.398496 0.428230 0.913180 0.001153
C16   C     C_R   0.601504 0.571770 0.086820 0.001153
Cu1   Cu    Cu3+1 0.500000 0.500020 0.640660 0.987823
Cu2   Cu    Cu3+1 0.500000 0.499980 0.359340 0.987823
H1    H     H_    0.516794 0.112124 0.275041 0.150570
H2    H     H_    0.483206 0.887876 0.724958 0.150570
H3    H     H_    0.516687 0.888266 0.275013 0.151088
H4    H     H_    0.483313 0.111734 0.724986 0.151088
H5    H     H_    0.317469 0.370373 0.108226 0.151895
H6    H     H_    0.682530 0.629627 0.891774 0.151894
H7    H     H_    0.317335 0.370607 0.847157 0.129839
H8    H     H_    0.682665 0.629393 0.152843 0.129839
N1    N     N_R   0.500040 0.500030 0.852080 -0.174289
N2    N     N_R   0.499960 0.499970 0.147920 -0.174289
O1    O     O_R   0.499990 0.319660 0.618740 -0.597331
O2    O     O_R   0.500010 0.680340 0.381260 -0.597331
O3    O     O_R   0.499990 0.319630 0.381170 -0.586121
O4    O     O_R   0.500010 0.680370 0.618830 -0.586121
O5    O     O_R   0.274840 0.500010 0.591370 -0.573751
O6    O     O_R   0.725160 0.499990 0.408630 -0.573751
O7    O     O_R   0.274830 0.499980 0.353800 -0.557419
O8    O     O_R   0.725170 0.500020 0.646200 -0.557419
C17   C     C_2   0.977409 0.387543 0.337839 0.861484
O9    O     O_2   0.008355 0.398046 0.216817 -0.583125
O10   O     O_R   0.886114 0.288809 0.372679 -0.759271
H9    H     H_    0.850137 0.234130 0.288238 0.330205
C18   C     C_2   0.022591 0.612456 0.662161 0.861484
O11   O     O_2   0.991646 0.601952 0.783184 -0.583125
O12   O     O_R   0.113885 0.711191 0.627321 -0.759271
H10   H     H_    0.149863 0.765870 0.711762 0.330205

loop_
_geom_bond_atom_site_label_1
_geom_bond_atom_site_label_2
_ccdc_geom_bond_type
C16   N2    A    
O12   H10   S    
C4    O8    A    
C13   N2    A    
C17   O9    D    
Cu2   O2    S    
Cu1   O8    S    
C5    C17   S    
C14   N1    A    
C18   O12   S    
C18   O11   D    
C15   N1    A    
C13   C15   A    
C3    O7    A    
C2    O2    A    
C1    O1    A    
Cu1   Cu2   S    
Cu2   N2    S    
C17   O10   S    
C10   H4    S    
C9    C11   A    
C9    H3    S    
C8    H2    S    
C1    C12   S    
Cu1   O5    S    
C8    C11   A    
C2    C11   S    
C10   C12   A    
C4    C6    S    
C14   C16   A    
Cu2   O6    S    
C16   H8    S    
C5    C6    D    
C4    O6    A    
C7    C12   A    
C15   H7    S    
C3    O5    A    
Cu1   N1    S    
C1    O3    A    
Cu1   O1    S    
C13   H5    S    
C2    O4    A    
Cu2   O7    S    
C14   H6    S    
O10   H9    S    
C7    C9    A    
Cu1   O4    S    
C7    H1    S    
Cu2   O3    S    
C8    C10   A    
C3    C5    S    
C6    C18   S    
