data_mof_unit_63047.cif
_audit_creation_date              2012-12-10T17:36:30-0500
_audit_creation_method            fapswitch 2.2
_symmetry_space_group_name_H-M    P1
_symmetry_Int_Tables_number       1
_space_group_crystal_system       triclinic
_cell_length_a                    24.531481
_cell_length_b                    24.524245
_cell_length_c                    32.81041
_cell_angle_alpha                 89.997342
_cell_angle_beta                  89.999792
_cell_angle_gamma                 90.053134
_cell_volume                      19739.2607622

loop_
_atom_site_label
_atom_site_type_symbol
_atom_type_description
_atom_site_fract_x
_atom_site_fract_y
_atom_site_fract_z
_atom_type_partial_charge
C1    C     C_1   0.500022 0.999992 0.981186 0.040671
C2    C     C_R   0.803332 0.237448 0.184257 0.352130
C3    C     C_R   0.160876 0.324322 0.786524 -0.038831
C4    C     C_R   0.314455 0.849389 0.217541 -0.037020
C5    C     C_R   0.695974 0.140563 0.772578 -0.043985
C6    C     C_R   0.136660 0.300322 0.233116 -0.037027
C7    C     C_R   0.845359 0.681956 0.784509 -0.037318
C8    C     C_R   0.323890 0.160690 0.786402 -0.059730
C9    C     C_R   0.698891 0.862391 0.231888 -0.036368
C10   C     C_R   0.134219 0.702579 0.758654 -0.060175
C11   C     C_R   0.853487 0.309984 0.220648 -0.056939
C12   C     C_R   0.674189 0.837578 0.786845 -0.042674
C13   C     C_R   0.242943 0.201990 0.818465 0.353215
C14   C     C_R   0.299801 0.136552 0.233736 -0.051643
C15   C     C_R   0.862445 0.300788 0.768267 -0.048836
C16   C     C_R   0.145024 0.691098 0.221363 -0.062513
C17   C     C_R   0.148453 0.648258 0.749723 -0.251469
C18   C     C_R   0.851775 0.351767 0.250016 -0.240287
C19   C     C_R   0.351580 0.148212 0.750015 -0.256784
C20   C     C_R   0.648084 0.851529 0.250087 -0.252729
C21   C     C_R   0.852139 0.351300 0.749562 -0.244431
C22   C     C_R   0.148019 0.648411 0.249887 -0.243624
C23   C     C_R   0.648237 0.851477 0.750011 -0.255522
C24   C     C_R   0.795812 0.836121 0.223376 0.337340
C25   C     C_R   0.351564 0.148192 0.249999 -0.252014
C26   C     C_R   0.851719 0.648290 0.250096 -0.251764
C27   C     C_R   0.148399 0.351771 0.749987 -0.255211
C28   C     C_R   0.648305 0.148309 0.249993 -0.241103
C29   C     C_R   0.351821 0.851552 0.750094 -0.253156
C30   C     C_R   0.148312 0.351799 0.249963 -0.252070
C31   C     C_R   0.851734 0.648095 0.750223 -0.247223
C32   C     C_R   0.351416 0.852031 0.250262 -0.243936
C33   C     C_R   0.648076 0.148304 0.749799 -0.252920
C34   C     C_R   0.175746 0.742605 0.762560 0.002565
C35   C     C_R   0.834482 0.205371 0.779902 0.348988
C36   C     C_R   0.809912 0.271993 0.218371 0.006497
C37   C     C_R   0.279798 0.197949 0.785498 0.010943
C38   C     C_R   0.741514 0.823373 0.234807 0.009518
C39   C     C_R   0.822731 0.258822 0.766289 0.010723
C40   C     C_R   0.187951 0.729867 0.219309 0.007895
C41   C     C_R   0.717307 0.798994 0.786711 0.007406
C42   C     C_R   0.257753 0.175964 0.236571 0.011277
C43   C     C_R   0.823351 0.741568 0.235493 0.009655
C44   C     C_R   0.198413 0.280197 0.786007 0.007235
C45   C     C_R   0.729252 0.188943 0.219053 0.007973
C46   C     C_R   0.192596 0.766480 0.186214 0.340849
C47   C     C_R   0.257991 0.823874 0.763114 0.002881
C48   C     C_R   0.175899 0.257849 0.235781 0.008471
C49   C     C_R   0.800990 0.718947 0.786043 0.009990
C50   C     C_R   0.271592 0.810359 0.218129 0.008256
C51   C     C_R   0.739530 0.178371 0.768672 0.011951
C52   C     C_R   0.688933 0.229266 0.280958 0.007755
C53   C     C_R   0.324647 0.757149 0.737364 0.003609
C54   C     C_R   0.758254 0.676359 0.265542 0.009143
C55   C     C_R   0.220177 0.302027 0.714511 0.010874
C56   C     C_R   0.306111 0.775484 0.283772 0.005088
C57   C     C_R   0.749514 0.789499 0.821864 0.339477
C58   C     C_R   0.679905 0.237898 0.727761 0.013178
C59   C     C_R   0.242041 0.323967 0.263301 0.009440
C60   C     C_R   0.779226 0.696970 0.714726 0.007602
C61   C     C_R   0.301533 0.219759 0.713996 0.007395
C62   C     C_R   0.676473 0.758347 0.265079 0.010684
C63   C     C_R   0.242356 0.675859 0.736770 0.002545
C64   C     C_R   0.771995 0.309923 0.281649 0.006682
C65   C     C_R   0.699498 0.781010 0.713898 0.010862
C66   C     C_R   0.323987 0.242259 0.263790 0.008993
C67   C     C_R   0.761375 0.320644 0.728702 0.002606
C68   C     C_R   0.202879 0.162125 0.228365 0.347648
C69   C     C_R   0.226746 0.691256 0.282195 0.008759
C70   C     C_R   0.229684 0.729472 0.750028 -0.080196
C71   C     C_R   0.770475 0.270487 0.250007 -0.083062
C72   C     C_R   0.270550 0.229628 0.749942 -0.083220
C73   C     C_R   0.729535 0.770482 0.250308 -0.090025
C74   C     C_R   0.771302 0.269550 0.747959 -0.083684
C75   C     C_R   0.227526 0.731378 0.250906 -0.082207
C76   C     C_R   0.728767 0.769494 0.750331 -0.078791
C77   C     C_R   0.270492 0.229640 0.249786 -0.087121
C78   C     C_R   0.770258 0.729328 0.250166 -0.089654
C79   C     C_R   0.836978 0.796197 0.226260 0.351782
C80   C     C_R   0.229415 0.270342 0.750067 -0.083161
C81   C     C_R   0.729531 0.229550 0.250004 -0.082156
C82   C     C_R   0.270689 0.770270 0.749863 -0.080608
C83   C     C_R   0.229351 0.270369 0.249911 -0.090205
C84   C     C_R   0.769654 0.728487 0.750356 -0.090559
C85   C     C_R   0.268729 0.772147 0.250734 -0.084710
C86   C     C_R   0.730392 0.228445 0.747833 -0.090404
C87   C     C_2   0.217469 0.575601 0.735902 1.053554
C88   C     C_2   0.804297 0.402972 0.305436 1.044688
C89   C     C_2   0.365464 0.156948 0.675136 1.050663
C90   C     C_R   0.204887 0.244987 0.819976 0.340559
C91   C     C_2   0.587251 0.793635 0.293398 1.014198
C92   C     C_2   0.792277 0.418178 0.715031 1.048647
C93   C     C_2   0.197135 0.596063 0.303576 1.048675
C94   C     C_2   0.638178 0.845437 0.674502 1.056261
C95   C     C_2   0.415423 0.207275 0.288867 1.013950
C96   C     C_2   0.794332 0.585624 0.291429 1.014261
C97   C     C_2   0.157136 0.363672 0.674485 1.050617
C98   C     C_2   0.594523 0.197667 0.302699 1.042712
C99   C     C_2   0.424880 0.783431 0.736614 1.053640
C100  C     C_2   0.207974 0.414130 0.290625 1.012262
C101  C     C_R   0.765495 0.194055 0.185582 0.338945
C102  C     C_2   0.818106 0.610251 0.684352 1.002191
C103  C     C_2   0.394964 0.812700 0.312065 1.034760
C104  C     C_2   0.593516 0.197781 0.697475 1.020493
C105  C     C_2   0.697846 0.094414 0.197432 1.047612
C106  C     C_2   0.282687 0.924146 0.763873 1.053615
C107  C     C_2   0.912770 0.706639 0.207380 1.013078
C108  C     C_2   0.134325 0.342903 0.824828 1.050924
C109  C     C_2   0.324746 0.884653 0.181440 1.030470
C110  C     C_2   0.698152 0.094589 0.802164 1.017620
C111  C     C_2   0.084505 0.293089 0.210681 1.015105
C112  C     C_1   0.500020 0.999992 0.018812 0.040567
C113  C     C_R   0.207159 0.833850 0.781935 0.346969
C114  C     C_2   0.888388 0.682182 0.816598 0.992852
C115  C     C_2   0.342852 0.136303 0.825518 1.049966
C116  C     C_2   0.705222 0.913330 0.207784 1.013190
C117  C     C_2   0.075593 0.716240 0.763597 1.062447
C118  C     C_2   0.902947 0.304281 0.194587 1.042369
C119  C     C_2   0.654348 0.862808 0.825328 1.056880
C120  C     C_2   0.291610 0.085065 0.210472 1.027076
C121  C     C_2   0.912157 0.294970 0.793979 1.016468
C122  C     C_2   0.094881 0.696637 0.196062 1.051953
C123  C     C_R   0.162921 0.203234 0.225337 0.337656
C124  C     C_R   0.787023 0.746093 0.822542 0.351527
C125  C     C_R   0.230576 0.809609 0.187702 0.346245
C126  C     C_R   0.792269 0.166700 0.783932 0.340657
C127  C     C_R   0.694046 0.265526 0.314427 0.339212
C128  C     C_R   0.335284 0.704955 0.720531 0.333877
C129  C     C_R   0.704017 0.663785 0.277296 0.336240
C130  C     C_R   0.257034 0.297983 0.681545 0.353031
C131  C     C_R   0.297731 0.742131 0.318410 0.349153
C132  C     C_1   0.000001 0.500011 0.981186 0.042109
C133  C     C_R   0.669689 0.289582 0.710254 0.347197
C134  C     C_R   0.296923 0.337960 0.271202 0.351648
C135  C     C_R   0.750924 0.709802 0.678449 0.347154
C136  C     C_R   0.295072 0.254973 0.680030 0.340854
C137  C     C_R   0.662876 0.703779 0.274526 0.352293
C138  C     C_R   0.293251 0.665856 0.718039 0.347345
C139  C     C_R   0.737450 0.303349 0.315759 0.351783
C140  C     C_R   0.707890 0.747784 0.679140 0.341576
C141  C     C_R   0.337010 0.296957 0.273998 0.335535
C142  C     C_R   0.711945 0.328319 0.707101 0.332886
C143  C     C_1   0.000001 0.500007 0.018812 0.041983
C144  C     C_R   0.261146 0.697782 0.316516 0.338739
C145  C     C_1   0.500016 0.999996 0.899101 -0.114227
C146  C     C_1   0.500012 0.999998 0.100898 -0.114656
C147  C     C_1   1.000000 0.500014 0.899098 -0.114703
C148  C     C_1   0.000000 0.500001 0.100900 -0.110521
C149  C     C_1   0.999979 0.499996 0.399102 -0.110185
C150  C     C_1   0.999956 0.500002 0.600900 -0.109243
C151  C     C_1   0.499995 0.999989 0.399099 -0.110485
C152  C     C_1   0.500001 0.000011 0.600900 -0.113986
C153  C     C_1   0.500021 0.999994 0.936727 0.024414
C154  C     C_1   0.999953 0.499996 0.481189 0.042604
C155  C     C_1   0.500016 0.999995 0.063272 0.024663
C156  C     C_1   0.000000 0.500014 0.936724 0.026262
C157  C     C_1   0.000001 0.500003 0.063274 0.027255
C158  C     C_1   0.999966 0.499995 0.436728 0.027652
C159  C     C_1   0.999946 0.500000 0.563275 0.028778
C160  C     C_1   0.499993 0.999991 0.436725 0.026743
C161  C     C_1   0.500000 0.000011 0.563274 0.024408
C162  C     C_R   0.500000 0.000006 0.646124 0.818850
C163  C     C_R   0.499999 0.999994 0.353875 0.792891
C164  C     C_R   0.999980 0.500001 0.646122 0.817689
C165  C     C_1   0.999946 0.499997 0.518814 0.043127
C166  C     C_R   0.999995 0.499999 0.353879 0.799679
C167  C     C_R   0.000000 0.499999 0.146125 0.799099
C168  C     C_R   1.000000 0.500008 0.853875 0.808308
C169  C     C_R   0.500006 0.000000 0.146121 0.798871
C170  C     C_R   0.500006 0.999999 0.853878 0.822105
C171  C     C_R   0.605981 0.893908 0.749952 0.898585
C172  C     C_R   0.393872 0.105911 0.249889 0.838093
C173  C     C_R   0.106133 0.605927 0.749866 0.909966
C174  C     C_R   0.894007 0.394009 0.250008 0.920252
C175  C     C_R   0.393934 0.105971 0.750053 0.906001
C176  C     C_1   0.499995 0.999997 0.481187 0.041549
C177  C     C_R   0.605871 0.893857 0.250137 0.848952
C178  C     C_R   0.894311 0.393714 0.750256 0.866468
C179  C     C_R   0.105984 0.605977 0.250006 0.918950
C180  C     C_R   0.394181 0.893841 0.250233 0.894285
C181  C     C_R   0.605951 0.105977 0.749998 0.872127
C182  C     C_R   0.894040 0.606057 0.249952 0.843981
C183  C     C_R   0.106062 0.394027 0.749946 0.905654
C184  C     C_R   0.606014 0.106004 0.249990 0.912833
C185  C     C_R   0.394014 0.893950 0.749996 0.913296
C186  C     C_R   0.106086 0.394085 0.250096 0.839537
C187  C     C_1   0.499997 0.000005 0.518813 0.041260
C188  C     C_R   0.894134 0.606101 0.750173 0.865988
C189  C     C_R   0.202647 0.634180 0.740467 -0.061535
C190  C     C_R   0.809998 0.353493 0.279380 -0.059306
C191  C     C_R   0.339046 0.175616 0.713469 -0.040038
C192  C     C_R   0.637287 0.800605 0.268125 -0.042051
C193  C     C_R   0.801946 0.362030 0.730534 -0.055119
C194  C     C_R   0.190227 0.646503 0.278842 -0.057101
C195  C     C_R   0.661939 0.824999 0.713347 -0.059079
C196  C     C_R   0.363253 0.199832 0.266531 -0.035162
C197  C     C_R   0.800815 0.637171 0.268077 -0.036989
C198  C     C_R   0.165139 0.794759 0.779475 0.332872
C199  C     C_R   0.176097 0.339296 0.713605 -0.059738
C200  C     C_R   0.645137 0.191497 0.278108 -0.053730
C201  C     C_R   0.366172 0.797213 0.741252 -0.057972
C202  C     C_R   0.199951 0.363243 0.266520 -0.038185
C203  C     C_R   0.817310 0.653497 0.716193 -0.029490
C204  C     C_R   0.348821 0.814500 0.282572 -0.048939
C205  C     C_R   0.640534 0.195510 0.726156 -0.050485
C206  C     C_R   0.691513 0.145125 0.221907 -0.058081
C207  C     C_R   0.297618 0.865584 0.759339 -0.061946
C208  C     C_R   0.862565 0.699385 0.232386 -0.039096
H1    H     H_    0.106716 0.845661 0.791504 0.372343
H2    H     H_    0.192955 0.240084 0.878385 0.367837
H3    H     H_    0.798180 0.153198 0.141213 0.370016
H4    H     H_    0.175500 0.872280 0.828264 0.365564
H5    H     H_    0.111928 0.159362 0.194062 0.370172
H6    H     H_    0.782359 0.736956 0.881515 0.364182
H7    H     H_    0.187642 0.856088 0.151723 0.366048
H8    H     H_    0.831418 0.120263 0.821883 0.369636
H9    H     H_    0.653203 0.298269 0.358777 0.370178
H10   H     H_    0.393733 0.654027 0.708645 0.371640
H11   H     H_    0.661259 0.613728 0.310230 0.370888
H12   H     H_    0.808782 0.238302 0.124976 0.363108
H13   H     H_    0.295962 0.343425 0.642366 0.366033
H14   H     H_    0.298896 0.744955 0.377794 0.363211
H15   H     H_    0.612490 0.343095 0.700067 0.367881
H16   H     H_    0.349056 0.396939 0.262590 0.367092
H17   H     H_    0.758212 0.712230 0.619273 0.364846
H18   H     H_    0.307017 0.259874 0.621625 0.367838
H19   H     H_    0.603659 0.651293 0.268429 0.366720
H20   H     H_    0.325057 0.627341 0.671808 0.365586
H21   H     H_    0.738290 0.308780 0.375042 0.362950
H22   H     H_    0.670922 0.714855 0.632598 0.367035
H23   H     H_    0.204030 0.156535 0.857644 0.365756
H24   H     H_    0.388346 0.341022 0.304797 0.370599
H25   H     H_    0.680201 0.363192 0.659252 0.366868
H26   H     H_    0.292290 0.658960 0.362523 0.370130
H27   H     H_    0.203430 0.503788 0.707879 0.371177
H28   H     H_    0.839632 0.456324 0.344113 0.334365
H29   H     H_    0.355792 0.124556 0.619124 0.351971
H30   H     H_    0.555575 0.772618 0.347908 0.364469
H31   H     H_    0.814804 0.477548 0.675976 0.354792
H32   H     H_    0.163853 0.541694 0.342465 0.338064
H33   H     H_    0.652003 0.877111 0.618735 0.355412
H34   H     H_    0.838799 0.886579 0.190962 0.370379
H35   H     H_    0.452313 0.221435 0.342749 0.355730
H36   H     H_    0.782546 0.550257 0.346193 0.355657
H37   H     H_    0.132521 0.350640 0.616650 0.356097
H38   H     H_    0.541327 0.163931 0.342267 0.333188
H39   H     H_    0.495159 0.795702 0.706106 0.370340
H40   H     H_    0.230758 0.447663 0.344106 0.359764
H41   H     H_    0.860859 0.569655 0.641508 0.337278
H42   H     H_    0.440002 0.852246 0.354179 0.336902
H43   H     H_    0.568144 0.206223 0.639355 0.364426
H44   H     H_    0.664323 0.040898 0.158004 0.335845
H45   H     H_    0.892662 0.151237 0.779822 0.365510
H46   H     H_    0.296536 0.995995 0.791903 0.370972
H47   H     H_    0.944895 0.727978 0.153091 0.359805
H48   H     H_    0.143777 0.375350 0.880844 0.352039
H49   H     H_    0.342665 0.888684 0.121536 0.350842
H50   H     H_    0.706766 0.071309 0.860753 0.362525
H51   H     H_    0.047679 0.279987 0.156632 0.356807
H52   H     H_    0.932545 0.639730 0.857614 0.345826
H53   H     H_    0.367468 0.149316 0.883355 0.356110
H54   H     H_    0.718359 0.947250 0.152674 0.353534
H55   H     H_    0.005540 0.702762 0.793864 0.359323
H56   H     H_    0.181482 0.773171 0.127550 0.364462
H57   H     H_    0.956243 0.339621 0.155873 0.333408
H58   H     H_    0.620622 0.851372 0.880714 0.353172
H59   H     H_    0.270520 0.050148 0.157107 0.371839
H60   H     H_    0.943100 0.280175 0.849830 0.368127
H61   H     H_    0.041983 0.661748 0.156832 0.338407
H62   H     H_    0.781441 0.824736 0.869538 0.367089
H63   H     H_    0.150465 0.103312 0.236612 0.366298
H64   H     H_    0.896071 0.848719 0.232840 0.366478
O1    O     O_3   0.500000 0.000000 0.750000 -0.503168
O2    O     O_R   0.454070 0.000000 0.333910 -0.610719
O3    O     O_R   0.414477 0.216366 0.330914 -0.768244
O4    O     O_2   0.795264 0.541710 0.273801 -0.578365
O5    O     O_R   0.786767 0.587786 0.333619 -0.765453
O6    O     O_2   0.152783 0.413132 0.670987 -0.636181
O7    O     O_R   0.144787 0.329573 0.641600 -0.744153
O8    O     O_2   0.568702 0.240246 0.301027 -0.542453
O9    O     O_R   0.576353 0.154850 0.327364 -0.799638
O10   O     O_2   0.446159 0.751180 0.760165 -0.565183
O11   O     O_R   0.455709 0.807969 0.705807 -0.782918
O12   O     O_2   0.199506 0.458726 0.275246 -0.589110
O13   O     O_R   0.000000 0.545930 0.666090 -0.602375
O14   O     O_R   0.226378 0.410562 0.330864 -0.758483
O15   O     O_2   0.776760 0.583872 0.677560 -0.569946
O16   O     O_R   0.865615 0.600115 0.662096 -0.772856
O17   O     O_2   0.421988 0.771052 0.315416 -0.547629
O18   O     O_R   0.407508 0.858481 0.335667 -0.784704
O19   O     O_2   0.546864 0.193269 0.710194 -0.583057
O20   O     O_R   0.603085 0.205269 0.655841 -0.752629
O21   O     O_2   0.740507 0.068748 0.199160 -0.538948
O22   O     O_R   0.655105 0.075969 0.172819 -0.798259
O23   O     O_2   0.246069 0.943309 0.743035 -0.561441
O24   O     O_R   1.000000 0.454070 0.333910 -0.611478
O25   O     O_R   0.310325 0.957041 0.791908 -0.783964
O26   O     O_2   0.957728 0.698195 0.222143 -0.593314
O27   O     O_R   0.908164 0.724135 0.166972 -0.756638
O28   O     O_2   0.084771 0.340209 0.828492 -0.613582
O29   O     O_R   0.166326 0.363852 0.856423 -0.751129
O30   O     O_2   0.323943 0.934293 0.184868 -0.610662
O31   O     O_R   0.336086 0.860672 0.143727 -0.746978
O32   O     O_2   0.693342 0.047509 0.790396 -0.582693
O33   O     O_R   0.705881 0.105649 0.843562 -0.759479
O34   O     O_2   0.041124 0.293922 0.229019 -0.574573
O35   O     O_R   0.954070 0.500000 0.166090 -0.611286
O36   O     O_R   0.085511 0.284763 0.168548 -0.767616
O37   O     O_2   0.910738 0.725088 0.825713 -0.574740
O38   O     O_R   0.902726 0.633993 0.836649 -0.773005
O39   O     O_2   0.347199 0.086841 0.829008 -0.635794
O40   O     O_R   0.355204 0.170392 0.858409 -0.744747
O41   O     O_2   0.702911 0.957727 0.224626 -0.578592
O42   O     O_R   0.714305 0.910043 0.165800 -0.765970
O43   O     O_2   0.054014 0.748591 0.740274 -0.561608
O44   O     O_R   0.045133 0.691216 0.794358 -0.801977
O45   O     O_2   0.926716 0.260508 0.193018 -0.541475
O46   O     O_R   0.045930 0.500000 0.833910 -0.619995
O47   O     O_R   0.922234 0.348686 0.172052 -0.801590
O48   O     O_2   0.656540 0.912267 0.829892 -0.609218
O49   O     O_R   0.632930 0.829663 0.856087 -0.742434
O50   O     O_2   0.298022 0.040888 0.227044 -0.551610
O51   O     O_R   0.275245 0.087605 0.169706 -0.757794
O52   O     O_2   0.957480 0.299836 0.778883 -0.576774
O53   O     O_R   0.906631 0.283392 0.835497 -0.753175
O54   O     O_2   0.069515 0.739552 0.196325 -0.536532
O55   O     O_R   0.076666 0.652947 0.172286 -0.799613
O56   O     O_R   0.500000 0.954070 0.166090 -0.624507
O57   O     O_R   0.500000 0.045930 0.833910 -0.620087
O58   O     O_R   0.045930 0.500000 0.166090 -0.611800
O59   O     O_R   0.954070 0.500000 0.833910 -0.602837
O60   O     O_R   0.500000 0.045930 0.166090 -0.607805
O61   O     O_3   0.500000 0.000000 0.250000 -0.511447
O62   O     O_R   0.500000 0.954070 0.833910 -0.616363
O63   O     O_R   0.610280 0.935490 0.728060 -0.610709
O64   O     O_R   0.389720 0.064510 0.271940 -0.600122
O65   O     O_R   0.064510 0.610280 0.728060 -0.626676
O66   O     O_R   0.935490 0.389720 0.271940 -0.594700
O67   O     O_R   0.389720 0.064510 0.728060 -0.631404
O68   O     O_R   0.610280 0.935490 0.271940 -0.609426
O69   O     O_R   0.935490 0.389720 0.728060 -0.582390
O70   O     O_R   0.064510 0.610280 0.271940 -0.596639
O71   O     O_R   0.389720 0.935490 0.271940 -0.565514
O72   O     O_3   0.000000 0.500000 0.750000 -0.506433
O73   O     O_R   0.610280 0.064510 0.728060 -0.610174
O74   O     O_R   0.935490 0.610280 0.271940 -0.602518
O75   O     O_R   0.064510 0.389720 0.728060 -0.607032
O76   O     O_R   0.610280 0.064510 0.271940 -0.596968
O77   O     O_R   0.389720 0.935490 0.728060 -0.624860
O78   O     O_R   0.064510 0.389720 0.271940 -0.610665
O79   O     O_R   0.935490 0.610280 0.728060 -0.600782
O80   O     O_R   0.110280 0.435490 0.228060 -0.601518
O81   O     O_R   0.889720 0.564510 0.771940 -0.593476
O82   O     O_R   0.564510 0.110280 0.228060 -0.597015
O83   O     O_3   0.000000 0.500000 0.250000 -0.511842
O84   O     O_R   0.435490 0.889720 0.771940 -0.626348
O85   O     O_R   0.889720 0.564510 0.228060 -0.610690
O86   O     O_R   0.110280 0.435490 0.771940 -0.630876
O87   O     O_R   0.435490 0.889720 0.228060 -0.631030
O88   O     O_R   0.564510 0.110280 0.771940 -0.609294
O89   O     O_R   0.889720 0.435490 0.771940 -0.643746
O90   O     O_R   0.110280 0.564510 0.228060 -0.593854
O91   O     O_R   0.435490 0.110280 0.771940 -0.609055
O92   O     O_R   0.564510 0.889720 0.228060 -0.602295
O93   O     O_R   0.110280 0.564510 0.771940 -0.625425
O94   O     O_R   0.454070 0.000000 0.666090 -0.617581
O95   O     O_R   0.889720 0.435490 0.228060 -0.595044
O96   O     O_R   0.564510 0.889720 0.771940 -0.631717
O97   O     O_R   0.435490 0.110280 0.228060 -0.608137
O98   O     O_3   0.114468 0.806373 0.795636 -0.732963
O99   O     O_3   0.831245 0.249265 0.148698 -0.737980
O100  O     O_3   0.241808 0.161094 0.847503 -0.739964
O101  O     O_3   0.809088 0.888478 0.211401 -0.725804
O102  O     O_3   0.888087 0.190350 0.786566 -0.732632
O103  O     O_3   0.161988 0.757795 0.151396 -0.738801
O104  O     O_3   0.746171 0.824553 0.854785 -0.737927
O105  O     O_R   0.545930 0.000000 0.333910 -0.612828
O106  O     O_3   0.188149 0.107729 0.226245 -0.733835
O107  O     O_3   0.891317 0.810763 0.223113 -0.724890
O108  O     O_3   0.171987 0.250906 0.853849 -0.740423
O109  O     O_3   0.761372 0.158602 0.153013 -0.741395
O110  O     O_3   0.200585 0.880289 0.805360 -0.734827
O111  O     O_3   0.110385 0.189638 0.214057 -0.726980
O112  O     O_3   0.807976 0.727702 0.859201 -0.728756
O113  O     O_3   0.226079 0.852657 0.160690 -0.736155
O114  O     O_3   0.803299 0.116049 0.800400 -0.734339
O115  O     O_3   0.658581 0.261442 0.346986 -0.741108
O116  O     O_R   0.000000 0.454070 0.666090 -0.614823
O117  O     O_3   0.386005 0.693312 0.704471 -0.736201
O118  O     O_3   0.690768 0.611579 0.289642 -0.726066
O119  O     O_3   0.258186 0.338886 0.652513 -0.739928
O120  O     O_3   0.322807 0.755647 0.354799 -0.737293
O121  O     O_3   0.617341 0.303042 0.698259 -0.731507
O122  O     O_3   0.311473 0.392422 0.273134 -0.724656
O123  O     O_3   0.767685 0.687201 0.641911 -0.731371
O124  O     O_3   0.327983 0.249058 0.646162 -0.739459
O125  O     O_3   0.608545 0.689311 0.277983 -0.726517
O126  O     O_3   0.299887 0.619378 0.694669 -0.734473
O127  O     O_R   0.000000 0.545930 0.333910 -0.611944
O128  O     O_3   0.749274 0.331248 0.351324 -0.738160
O129  O     O_3   0.671931 0.750565 0.646740 -0.738539
O130  O     O_3   0.389675 0.310715 0.284821 -0.725567
O131  O     O_3   0.706019 0.372618 0.681413 -0.728595
O132  O     O_3   0.256118 0.662900 0.349370 -0.742092
O133  O     O_2   0.254069 0.556355 0.756715 -0.561101
O134  O     O_R   0.189714 0.542768 0.707892 -0.783762
O135  O     O_2   0.760526 0.426724 0.307026 -0.538139
O136  O     O_R   0.848699 0.422298 0.327941 -0.801255
O137  O     O_2   0.415018 0.159482 0.671413 -0.605815
O138  O     O_R   0.545930 0.000000 0.666090 -0.621268
O139  O     O_R   0.333333 0.136115 0.643574 -0.751693
O140  O     O_2   0.542167 0.802288 0.278895 -0.591891
O141  O     O_R   0.592179 0.776215 0.333805 -0.755528
O142  O     O_2   0.756863 0.446536 0.730463 -0.541925
O143  O     O_R   0.824767 0.438777 0.683584 -0.807042
O144  O     O_2   0.240565 0.571630 0.302739 -0.545867
O145  O     O_R   0.154132 0.576469 0.327430 -0.797630
O146  O     O_2   0.588748 0.845863 0.669626 -0.635120
O147  O     O_R   0.672745 0.864201 0.643653 -0.741268
O148  O     O_2   0.458761 0.206022 0.270504 -0.570253
Zn1   Zn    Zn3+2 0.500000 0.934510 0.781550 1.072911
Zn2   Zn    Zn3+2 0.000000 0.565490 0.718450 1.071552
Zn3   Zn    Zn3+2 0.565490 0.000000 0.281550 1.067373
Zn4   Zn    Zn3+2 0.434510 0.000000 0.718450 1.071338
Zn5   Zn    Zn3+2 1.000000 0.565490 0.281550 1.072296
Zn6   Zn    Zn3+2 0.000000 0.434510 0.718450 1.088759
Zn7   Zn    Zn3+2 0.434510 0.000000 0.281550 1.084213
Zn8   Zn    Zn3+2 0.565490 0.000000 0.718450 1.080301
Zn9   Zn    Zn3+2 0.500000 0.065490 0.218450 1.073400
Zn10  Zn    Zn3+2 0.065490 0.500000 0.781550 1.063278
Zn11  Zn    Zn3+2 0.934510 0.500000 0.218450 1.068745
Zn12  Zn    Zn3+2 0.500000 0.065490 0.781550 1.083179
Zn13  Zn    Zn3+2 0.500000 0.934510 0.218450 1.057858
Zn14  Zn    Zn3+2 0.934510 0.500000 0.781550 1.061581
Zn15  Zn    Zn3+2 0.065490 0.500000 0.218450 1.072882
Zn16  Zn    Zn3+2 0.000000 0.434510 0.281550 1.068433

loop_
_geom_bond_atom_site_label_1
_geom_bond_atom_site_label_2
_ccdc_geom_bond_type
C104  O20   S    
C93   O144  D    
C111  O34   D    
C114  O37   D    
C28   C206  A    
C2    O99   S    
C123  O111  S    
O89   Zn14  S    
H23   O100  S    
C186  O78   A    
O1    Zn8   S    
O2    Zn7   S    
C40   C46   A    
C12   C23   A    
C164  O13   A    
C179  O90   A    
C154  C158  S    
C162  O138  A    
C88   O135  D    
O46   Zn10  S    
C188  O79   A    
C184  O76   A    
C68   C123  A    
C39   C74   A    
C26   C197  A    
C16   C122  S    
C109  O30   D    
C116  O42   S    
C142  O131  S    
C120  O50   D    
O77   Zn4   S    
C112  C155  S    
C180  O87   A    
C182  O85   A    
O94   Zn4   S    
O75   Zn6   S    
C36   C71   A    
C91   O140  D    
C95   O148  D    
C111  O36   S    
O56   Zn13  S    
C52   C127  A    
C17   C173  S    
C182  O74   A    
C30   C202  A    
C150  C159  T    
C181  O88   A    
C8    C19   A    
C7    C31   A    
C105  O22   S    
O127  Zn5   S    
C167  O58   A    
O93   Zn10  S    
H49   O31   S    
C58   C205  A    
C174  O66   A    
C49   C124  A    
C107  O26   D    
C53   C201  A    
C53   C82   A    
H1    O98   S    
C115  O39   D    
C102  C203  S    
C53   C128  A    
C175  O67   A    
C163  O105  A    
C121  O52   D    
C100  O12   D    
O138  Zn8   S    
C67   C74   A    
C104  C205  S    
O35   Zn11  S    
C65   C76   A    
C15   C39   A    
C4    C32   A    
H11   O118  S    
C16   C40   A    
C92   O143  S    
C141  O130  S    
H2    O108  S    
C6    C30   A    
O72   Zn2   S    
C57   O104  S    
H4    O110  S    
H29   O139  S    
O90   Zn15  S    
O97   Zn9   S    
C91   C192  S    
C66   C77   A    
C145  C170  S    
C18   C190  A    
O61   Zn9   S    
C110  O33   S    
H52   O38   S    
C43   C208  A    
C9    C116  S    
C62   C73   A    
C45   C81   A    
O73   Zn8   S    
C59   C83   A    
C22   C179  S    
C35   O102  S    
C87   O134  S    
C20   C177  S    
O83   Zn5   S    
O67   Zn4   S    
C94   O146  D    
O69   Zn6   S    
C124  O112  S    
H46   O25   S    
O1    Zn1   S    
C122  O54   D    
C41   C76   A    
C61   C191  A    
C55   C80   A    
O76   Zn3   S    
H36   O5    S    
C62   C137  A    
C70   C82   A    
C27   C183  S    
C56   C131  A    
C129  C137  A    
O66   Zn16  S    
O68   Zn3   S    
C148  C167  S    
C32   C180  S    
C170  O57   A    
H28   O136  S    
C19   C191  A    
C134  C141  A    
C163  O2    A    
O63   Zn8   S    
H14   O120  S    
C4    C109  S    
C11   C18   A    
C45   C206  A    
C139  O128  S    
H54   O42   S    
C93   C194  S    
C106  O23   D    
C98   O9    S    
C95   O3    S    
C105  C206  S    
C66   C141  A    
C169  O60   A    
C33   C205  A    
C133  C142  A    
O95   Zn11  S    
C49   C84   A    
H64   O107  S    
C1    C112  T    
C103  O17   D    
H34   O101  S    
C5    C110  S    
C100  O14   S    
H38   O9    S    
C102  O16   S    
O59   Zn14  S    
C128  C138  A    
O24   Zn16  S    
C90   O108  S    
C5    C33   A    
C167  O35   A    
C154  C165  T    
C52   C200  A    
C149  C158  T    
C152  C161  T    
O1    Zn12  S    
C128  O117  S    
C183  O86   A    
H45   O102  S    
C58   C86   A    
C177  O68   A    
H59   O51   S    
C89   C191  S    
C55   C199  A    
C3    C44   A    
C91   O141  S    
C13   O100  S    
C129  O118  S    
C27   C199  A    
C183  O75   A    
C130  C136  A    
C159  C165  S    
O87   Zn13  S    
O13   Zn2   S    
C178  O89   A    
C133  O121  S    
H50   O33   S    
C12   C119  S    
C34   C198  A    
C24   C79   A    
H9    O115  S    
C144  O132  S    
C55   C130  A    
O71   Zn7   S    
C23   C171  S    
C50   C125  A    
H20   O126  S    
C174  O95   A    
O78   Zn16  S    
C25   C196  A    
C18   C174  S    
C177  O92   A    
C96   O4    D    
H35   O3    S    
C172  O64   A    
C92   O142  D    
C188  O81   A    
C117  O43   D    
H58   O49   S    
C114  O38   S    
C51   C126  A    
C5    C51   A    
C3    C108  S    
O86   Zn10  S    
C150  C164  S    
C166  O127  A    
C59   C134  A    
C151  C163  S    
C29   C207  A    
C48   C83   A    
C3    C27   A    
C97   O7    S    
O83   Zn16  S    
C72   C80   A    
C10   C117  S    
C98   O8    D    
C88   O136  S    
C59   C202  A    
O81   Zn14  S    
C132  C143  T    
O96   Zn1   S    
C9    C38   A    
C132  C156  S    
C29   C185  S    
O92   Zn13  S    
C148  C157  T    
H16   O122  S    
C52   C81   A    
C162  O94   A    
C19   C175  S    
C42   C77   A    
C146  C169  S    
C23   C195  A    
C65   C195  A    
C11   C118  S    
H47   O27   S    
C198  O98   S    
C71   C81   A    
C13   C90   A    
O70   Zn5   S    
C97   C199  S    
C46   C125  A    
C89   O137  D    
C93   O145  S    
H60   O53   S    
C76   C84   A    
C48   C123  A    
O88   Zn12  S    
C43   C78   A    
C88   C190  S    
C95   C196  S    
C54   C197  A    
C96   O5    S    
C7    C114  S    
O60   Zn9   S    
C105  O21   D    
O91   Zn12  S    
H24   O130  S    
O72   Zn10  S    
C119  O48   D    
C6    C111  S    
C64   C71   A    
C103  C204  S    
H39   O11   S    
C50   C85   A    
C100  C202  S    
C75   C85   A    
C146  C155  T    
H18   O124  S    
C119  O49   S    
H41   O16   S    
C140  O129  S    
C134  O122  S    
C113  C198  A    
H33   O147  S    
C34   C70   A    
C108  O29   S    
C104  O19   D    
C99   C201  S    
H43   O20   S    
C185  O84   A    
H30   O141  S    
O116  Zn6   S    
C51   C86   A    
C46   O103  S    
C58   C133  A    
C135  C140  A    
C127  O115  S    
C29   C201  A    
C94   C195  S    
C125  O113  S    
C44   C80   A    
C92   C193  S    
C87   O133  D    
C106  C207  S    
O82   Zn9   S    
C178  O69   A    
C94   O147  S    
C4    C50   A    
C69   C144  A    
C32   C204  A    
C35   C39   A    
C12   C41   A    
C122  O55   S    
C116  O41   D    
C9    C20   A    
C66   C196  A    
O61   Zn7   S    
H7    O113  S    
H37   O7    S    
C135  O123  S    
C147  C156  T    
H48   O29   S    
C45   C101  A    
H3    O109  S    
C25   C172  S    
C61   C72   A    
C21   C178  S    
C14   C120  S    
C33   C181  S    
C89   O139  S    
C8    C37   A    
O79   Zn2   S    
C176  C187  T    
C47   C113  A    
O62   Zn1   S    
C16   C22   A    
H17   O123  S    
H42   O18   S    
C20   C192  A    
C101  O109  S    
H51   O36   S    
O72   Zn14  S    
C47   C207  A    
C118  O47   S    
C40   C75   A    
C98   C200  S    
C115  O40   S    
C41   C57   A    
C161  C187  S    
C57   C124  A    
H40   O14   S    
H32   O145  S    
C121  O53   S    
C56   C85   A    
O74   Zn5   S    
C69   C194  A    
C69   C75   A    
C164  O116  A    
C14   C25   A    
C28   C184  S    
C106  O25   S    
H5    O111  S    
C147  C168  S    
C99   O10   D    
O83   Zn11  S    
C131  O120  S    
C37   C72   A    
C77   C83   A    
C107  O27   S    
H27   O134  S    
C180  O71   A    
C152  C162  S    
C131  C144  A    
C61   C136  A    
C54   C78   A    
C64   C139  A    
C109  O31   S    
H63   O106  S    
C110  O32   D    
H53   O40   S    
C168  O59   A    
C28   C200  A    
C6    C48   A    
H44   O22   S    
C30   C186  S    
C11   C36   A    
H12   O99   S    
H15   O121  S    
C120  O51   S    
C67   C142  A    
C10   C17   A    
C43   C79   A    
C47   C82   A    
H10   O117  S    
C137  O125  S    
C8    C115  S    
C65   C140  A    
O58   Zn15  S    
C31   C188  S    
C172  O97   A    
C24   C38   A    
O65   Zn2   S    
C31   C203  A    
C184  O82   A    
C87   C189  S    
C145  C153  T    
H22   O129  S    
C42   C68   A    
C160  C176  S    
C166  O24   A    
C127  C139  A    
C143  C157  S    
C108  O28   D    
C96   C197  S    
O105  Zn3   S    
C118  O45   D    
C173  O93   A    
O72   Zn6   S    
C171  O63   A    
C168  O46   A    
C7    C49   A    
C186  O80   A    
C103  O18   S    
C62   C192  A    
H61   O55   S    
C2    C101  A    
C17   C189  A    
C63   C189  A    
H19   O125  S    
O61   Zn13  S    
O84   Zn1   S    
H13   O119  S    
C102  O15   D    
C35   C126  A    
C1    C153  S    
C97   O6    D    
O83   Zn15  S    
C60   C203  A    
C130  O119  S    
C63   C70   A    
C73   C78   A    
C107  C208  S    
C10   C34   A    
C185  O77   A    
C74   C86   A    
C60   C135  A    
C24   O101  S    
H62   O104  S    
C63   C138  A    
O85   Zn11  S    
C126  O114  S    
H6    O112  S    
C26   C182  S    
H55   O44   S    
C44   C90   A    
C136  O124  S    
C179  O70   A    
C2    C36   A    
C54   C129  A    
C15   C121  S    
H57   O47   S    
C14   C42   A    
C13   C37   A    
C26   C208  A    
C149  C166  S    
O1    Zn4   S    
C64   C190  A    
C56   C204  A    
O61   Zn3   S    
H8    O114  S    
C21   C193  A    
C151  C160  T    
O57   Zn12  S    
C60   C84   A    
C79   O107  S    
C169  O56   A    
C170  O62   A    
C175  O91   A    
O80   Zn15  S    
C181  O73   A    
H21   O128  S    
C171  O96   A    
H25   O131  S    
C15   C21   A    
H26   O132  S    
C138  O126  S    
C68   O106  S    
H31   O143  S    
C22   C194  A    
C113  O110  S    
O64   Zn7   S    
C67   C193  A    
C117  O44   S    
C173  O65   A    
H56   O103  S    
C38   C73   A    
C99   O11   S    
