data_mof_unit_51576.cif
_audit_creation_date              2012-12-11T15:53:34-0500
_audit_creation_method            fapswitch 2.2
_symmetry_space_group_name_H-M    P1
_symmetry_Int_Tables_number       1
_space_group_crystal_system       triclinic
_cell_length_a                    6.948384
_cell_length_b                    14.532597
_cell_length_c                    15.980151
_cell_angle_alpha                 90.450822
_cell_angle_beta                  90.073964
_cell_angle_gamma                 90.043811
_cell_volume                      1613.59293852

loop_
_atom_site_label
_atom_site_type_symbol
_atom_type_description
_atom_site_fract_x
_atom_site_fract_y
_atom_site_fract_z
_atom_type_partial_charge
O1    O     O_R   0.361600 0.167310 0.164620 -0.541885
O2    O     O_R   0.638400 0.832690 0.835380 -0.543034
O3    O     O_R   0.691080 0.157570 0.338750 -0.548637
O4    O     O_R   0.308920 0.842430 0.661250 -0.545393
O5    O     O_R   0.861410 0.336420 0.339360 -0.539178
O6    O     O_R   0.138590 0.663580 0.660640 -0.539558
C1    C     C_R   0.522062 0.135122 0.367335 0.668721
C2    C     C_R   0.477920 0.864723 0.632528 0.682363
O7    O     O_R   0.691320 0.156280 0.165240 -0.511954
O8    O     O_R   0.308680 0.843720 0.834760 -0.511385
O9    O     O_R   0.861640 0.335130 0.164600 -0.539926
O10   O     O_R   0.138360 0.664870 0.835400 -0.543516
C3    C     C_R   0.522234 0.131795 0.137824 0.743043
C4    C     C_R   0.477251 0.864124 0.865417 0.742245
O11   O     O_R   0.361370 0.168600 0.339370 -0.543142
O12   O     O_R   0.638630 0.831400 0.660630 -0.541723
O13   O     O_3   0.527990 0.310540 0.251980 -0.373806
O14   O     O_3   0.472010 0.689460 0.748020 -0.375957
V1    V     V_3+5 0.802830 0.240980 0.251990 1.428182
V2    V     V_3+5 0.197170 0.759020 0.748010 1.435219
O15   O     O_R   0.191360 0.346160 0.165220 -0.543988
O16   O     O_R   0.808640 0.653840 0.834780 -0.545456
C5    C     C_R   0.022283 0.368328 0.136191 0.691721
C6    C     C_R   0.977673 0.632042 0.864085 0.675967
O17   O     O_R   0.191130 0.347440 0.338740 -0.543334
O18   O     O_R   0.808870 0.652560 0.661260 -0.543172
C7    C     C_R   0.022419 0.369652 0.367604 0.672093
C8    C     C_R   0.977579 0.630362 0.632384 0.673648
V3    V     V_3+5 0.302840 0.262750 0.251990 1.403369
V4    V     V_3+5 0.697160 0.737250 0.748010 1.403555
O19   O     O_3   0.027820 0.193180 0.251990 -0.364911
O20   O     O_3   0.972180 0.806820 0.748010 -0.359850
C9    C     C_3   0.922897 0.419857 0.524156 -0.139389
C10   C     C_3   0.077098 0.580182 0.475812 -0.144336
C11   C     C_3   0.096290 0.468488 0.566746 -0.138336
C12   C     C_3   0.903706 0.531550 0.433221 -0.142722
H1    H     H_    0.175565 0.442805 0.622198 0.104557
H2    H     H_    0.824437 0.557235 0.377767 0.098384
H3    H     H_    0.859342 0.353311 0.543709 0.103125
H4    H     H_    0.140649 0.646728 0.456257 0.097312
C13   C     C_3   0.987955 0.560701 0.562087 -0.005672
C14   C     C_3   0.012040 0.439335 0.437882 -0.005317
C15   C     C_3   0.814384 0.512853 0.520268 -0.114534
C16   C     C_3   0.185611 0.487185 0.479700 -0.115424
H5    H     H_    0.661180 0.523619 0.537321 0.106713
H6    H     H_    0.338815 0.476420 0.462645 0.106559
C17   C     C_R   0.821068 0.524956 0.967120 -0.160867
C18   C     C_R   0.178793 0.476301 0.033819 -0.156938
H7    H     H_    0.680719 0.542621 0.942523 0.115606
H8    H     H_    0.319136 0.458670 0.058439 0.115617
C19   C     C_R   0.832090 0.461818 0.032771 -0.151816
C20   C     C_R   0.167759 0.539479 0.968194 -0.162248
H9    H     H_    0.699684 0.432693 0.056517 0.118433
H10   H     H_    0.300127 0.568714 0.944514 0.114780
C21   C     C_R   0.011131 0.436456 0.067009 -0.047524
C22   C     C_R   0.988766 0.564536 0.933732 -0.050771
C23   C     C_R   0.678985 0.025687 0.467718 -0.166988
C24   C     C_R   0.320957 0.973815 0.531828 -0.161457
H11   H     H_    0.819362 0.044524 0.443976 0.114930
H12   H     H_    0.180569 0.954946 0.555534 0.117179
C25   C     C_R   0.668047 0.960568 0.531560 -0.153932
C26   C     C_R   0.331896 0.038941 0.467995 -0.157775
H13   H     H_    0.800542 0.931216 0.555034 0.118395
H14   H     H_    0.199395 0.068273 0.444502 0.117748
C27   C     C_R   0.488892 0.933816 0.564543 -0.043194
C28   C     C_R   0.511066 0.065797 0.435107 -0.042957
C29   C     C_R   0.678924 0.015505 0.039884 0.501271
C30   C     C_R   0.319656 0.958772 0.980676 0.503721
C31   C     C_R   0.665737 0.957500 0.969579 -0.295262
C32   C     C_R   0.332875 0.028522 0.041641 -0.296005
H15   H     H_    0.796008 0.931726 0.941555 0.219162
H16   H     H_    0.202632 0.056367 0.068057 0.218149
C33   C     C_R   0.486773 0.928879 0.938213 -0.245706
C34   C     C_R   0.512012 0.058737 0.071750 -0.247134
O21   O     O_3   0.856007 0.027869 0.077295 -0.539089
C35   C     C_3   0.868086 0.967537 0.146139 -0.196314
H17   H     H_    0.843203 0.894693 0.126975 0.104510
H18   H     H_    0.764375 0.986568 0.196275 0.114004
H19   H     H_    0.014543 0.972358 0.173496 0.138954
O22   O     O_3   0.142627 0.919397 0.964755 -0.539186
C36   C     C_3   0.132002 0.835553 0.008943 -0.202251
H20   H     H_    0.158194 0.845838 0.077105 0.106315
H21   H     H_    0.235348 0.783796 0.984156 0.113667
H22   H     H_    0.985629 0.806206 0.001145 0.133733

loop_
_geom_bond_atom_site_label_1
_geom_bond_atom_site_label_2
_ccdc_geom_bond_type
C30   O22   S    
C18   C21   A    
C24   C26   A    
O13   V3    S    
C12   C14   S    
C35   H19   S    
C23   C28   A    
O4    C2    A    
V1    O19   S    
C36   H20   S    
C29   O21   S    
C17   H7    S    
O9    V1    S    
C9    H3    S    
C10   H4    S    
C9    C14   S    
C31   C33   A    
C11   H1    S    
C35   H18   S    
O3    C1    A    
C23   H11   S    
O12   V4    S    
C8    C13   S    
C25   H13   S    
O9    C5    A    
C31   H15   S    
O7    C3    A    
C26   H14   S    
O13   V1    S    
O5    C7    A    
O7    V1    S    
O6    C8    A    
O8    V2    S    
C32   C34   A    
O3    V1    S    
O14   V4    S    
C19   C21   A    
C20   H10   S    
C18   H8    S    
C2    C27   S    
C2    O12   A    
C13   C15   S    
C10   C13   S    
C14   C16   S    
O2    C4    A    
C36   H21   S    
C16   H6    S    
O11   V3    S    
O17   V3    S    
C26   C28   A    
C9    C15   S    
C4    C33   S    
C10   C16   S    
C35   H17   S    
O8    C4    A    
C17   C19   A    
C30   C33   A    
O15   V3    S    
C19   H9    S    
O21   C35   S    
C24   C27   A    
O10   V2    S    
O1    V3    S    
C29   C34   A    
C23   C25   A    
C11   C16   S    
C15   H5    S    
O18   V4    S    
O15   C5    A    
O16   C6    A    
C6    C22   S    
C36   H22   S    
V2    O20   S    
O16   V4    S    
O22   C36   S    
C5    C21   S    
O5    V1    S    
O17   C7    A    
O6    V2    S    
O10   C6    A    
O18   C8    A    
O2    V4    S    
C12   H2    S    
V3    O19   S    
C1    C28   S    
V4    O20   S    
C7    C14   S    
C1    O11   A    
C9    C11   S    
C10   C12   S    
O14   V2    S    
C11   C13   S    
O4    V2    S    
C25   C27   A    
C18   C20   A    
O1    C3    A    
C3    C34   S    
C30   C32   A    
C12   C15   S    
C32   H16   S    
C29   C31   A    
C24   H12   S    
C20   C22   A    
C17   C22   A    
