data_mof_unit_39772.cif
_audit_creation_date              2012-12-10T16:38:39-0500
_audit_creation_method            fapswitch 2.2
_symmetry_space_group_name_H-M    P1
_symmetry_Int_Tables_number       1
_space_group_crystal_system       triclinic
_cell_length_a                    10.937918
_cell_length_b                    10.890125
_cell_length_c                    17.862167
_cell_angle_alpha                 98.008751
_cell_angle_beta                  73.538487
_cell_angle_gamma                 97.25545
_cell_volume                      2012.08412986

loop_
_atom_site_label
_atom_site_type_symbol
_atom_type_description
_atom_site_fract_x
_atom_site_fract_y
_atom_site_fract_z
_atom_type_partial_charge
C1    C     C_R   0.158445 0.479708 0.517730 0.553866
C2    C     C_R   0.606200 0.386461 0.917827 0.131194
C3    C     C_R   0.681351 0.337375 0.956629 0.154772
C4    C     C_R   0.841743 0.521042 0.484477 0.503655
C5    C     C_R   0.666686 0.374229 0.038194 0.002484
C6    C     C_R   0.595025 0.478008 0.075774 -0.056030
C7    C     C_R   0.712429 0.302942 0.083927 0.160201
C8    C     C_R   0.670080 0.320249 0.165908 0.112536
C9    C     C_R   0.552709 0.496653 0.160744 -0.040866
C10   C     C_2   0.974741 0.540259 0.488536 0.117094
C11   C     C_2   0.022244 0.465583 0.526916 0.019580
C12   C     C_R   0.302066 0.642818 0.848636 0.135151
C13   C     C_2   0.531512 0.964682 0.477766 -0.118715
C14   C     C_2   0.452407 0.040901 0.530597 0.001022
C15   C     C_R   0.471083 0.169325 0.516912 0.506297
C16   C     C_R   0.528489 0.832479 0.483589 0.498927
C17   C     C_R   0.563750 0.437005 0.288736 0.499199
C18   C     C_R   0.434704 0.561299 0.712556 0.495987
C19   C     C_R   0.409276 0.584520 0.798641 -0.003076
C20   C     C_R   0.591118 0.415324 0.203746 0.040162
C21   C     C_R   0.294200 0.671568 0.929672 0.019281
C22   C     C_3   0.395523 0.850624 0.052393 -0.264432
C23   C     C_R   0.494374 0.540547 0.831869 -0.140065
C24   C     C_3   0.504612 0.953061 0.031666 -0.297996
C25   C     C_3   0.454117 0.080556 0.059958 -0.458895
C26   C     C_3   0.928177 0.239568 0.046799 -0.283633
C27   C     C_3   0.040590 0.758827 0.507012 -0.306521
C28   C     C_3   0.944290 0.355333 0.568919 -0.262910
C29   C     C_3   0.018979 0.275841 0.602332 -0.316463
C30   C     C_3   0.930303 0.171303 0.643785 -0.468724
C31   C     C_3   0.356224 0.004219 0.606750 -0.236868
C32   C     C_3   0.289386 0.114161 0.660028 -0.308396
C33   C     C_3   0.197797 0.073425 0.735720 -0.485767
C34   C     C_R   0.480254 0.559597 0.912431 0.002758
C35   C     C_3   0.465498 0.601134 0.202668 -0.262128
C36   C     C_3   0.381384 0.603323 0.287825 -0.285211
C37   C     C_3   0.297558 0.711870 0.306640 -0.473641
C38   C     C_3   0.629345 0.132206 0.231560 -0.314138
C39   C     C_3   0.879806 0.281409 0.864698 -0.302409
C40   C     C_3   0.167128 0.700636 0.988518 -0.235210
C41   C     C_3   0.064272 0.590762 0.990065 -0.291406
C42   C     C_3   0.941850 0.618259 0.054172 -0.454627
C43   C     C_3   0.201793 0.792454 0.802809 -0.293276
C44   C     C_3   0.461502 0.235202 0.865335 -0.319996
C45   C     C_R   0.399536 0.650410 0.956251 0.016206
C46   C     C_R   0.550020 0.498850 0.950537 0.029790
C47   C     C_R   0.558082 0.551272 0.026163 -0.019106
C48   C     C_R   0.527706 0.675679 0.048098 -0.132613
C49   C     C_R   0.437517 0.721852 0.019573 -0.009164
H1    H     H_    0.601736 0.002003 0.427792 0.080962
H2    H     H_    0.356346 0.853987 0.117227 0.133536
H3    H     H_    0.761322 0.120726 0.065310 0.255815
H4    H     H_    0.986481 0.165605 0.009967 0.126239
H5    H     H_    0.940026 0.248164 0.107064 0.158575
H6    H     H_    0.964012 0.328399 0.021327 0.139528
H7    H     H_    0.039117 0.656133 0.401125 0.258985
H8    H     H_    0.107733 0.834435 0.478283 0.132680
H9    H     H_    0.064376 0.747443 0.561964 0.170361
H10   H     H_    0.941520 0.786863 0.521786 0.140229
H11   H     H_    0.850739 0.209955 0.691429 0.147212
H12   H     H_    0.577293 0.498354 0.793771 0.178452
H13   H     H_    0.889665 0.106684 0.601225 0.156743
H14   H     H_    0.984854 0.117903 0.669795 0.141689
H15   H     H_    0.094854 0.232418 0.554210 0.188428
H16   H     H_    0.063969 0.335222 0.645025 0.149181
H17   H     H_    0.868120 0.392674 0.619672 0.174360
H18   H     H_    0.900323 0.292359 0.527085 0.165350
H19   H     H_    0.125503 0.998521 0.722731 0.146066
H20   H     H_    0.252122 0.040601 0.771743 0.139202
H21   H     H_    0.147878 0.154248 0.770028 0.137068
H22   H     H_    0.361538 0.186012 0.676554 0.187512
H23   H     H_    0.569467 0.735506 0.089232 0.104929
H24   H     H_    0.234842 0.156891 0.628145 0.158450
H25   H     H_    0.280576 0.935150 0.591634 0.164736
H26   H     H_    0.407305 0.961762 0.640954 0.159522
H27   H     H_    0.353185 0.797600 0.283388 0.142136
H28   H     H_    0.215094 0.688138 0.280956 0.146426
H29   H     H_    0.263241 0.733468 0.371021 0.177442
H30   H     H_    0.319738 0.514489 0.297171 0.185807
H31   H     H_    0.440381 0.622704 0.329919 0.189544
H32   H     H_    0.528655 0.689104 0.202285 0.140600
H33   H     H_    0.394148 0.601316 0.169267 0.165016
H34   H     H_    0.371855 0.090297 0.037016 0.138978
H35   H     H_    0.744835 0.290529 0.256384 0.249567
H36   H     H_    0.675812 0.074700 0.260330 0.134524
H37   H     H_    0.610267 0.075524 0.178878 0.135078
H38   H     H_    0.536962 0.156642 0.273019 0.176301
H39   H     H_    0.710331 0.164586 0.891113 0.244837
H40   H     H_    0.935628 0.200260 0.839006 0.134242
H41   H     H_    0.935421 0.348653 0.897972 0.151357
H42   H     H_    0.865648 0.327287 0.816450 0.124547
H43   H     H_    0.960958 0.635972 0.112767 0.154109
H44   H     H_    0.870034 0.537065 0.054754 0.157486
H45   H     H_    0.424031 0.095296 0.125129 0.153767
H46   H     H_    0.901782 0.700443 0.042828 0.153848
H47   H     H_    0.040362 0.570290 0.933026 0.187621
H48   H     H_    0.101255 0.507031 0.001790 0.145758
H49   H     H_    0.177705 0.717687 0.049152 0.130560
H50   H     H_    0.133532 0.785264 0.975585 0.143110
H51   H     H_    0.177534 0.599472 0.777436 0.259918
H52   H     H_    0.112602 0.803390 0.787423 0.133812
H53   H     H_    0.285126 0.814309 0.752679 0.170085
H54   H     H_    0.207755 0.859832 0.854588 0.129456
H55   H     H_    0.654116 0.275948 0.809532 0.248185
H56   H     H_    0.530201 0.152904 0.037624 0.171024
H57   H     H_    0.442425 0.193730 0.808894 0.143670
H58   H     H_    0.379363 0.288099 0.899656 0.157393
H59   H     H_    0.470187 0.158940 0.898291 0.131265
H60   H     H_    0.581507 0.943522 0.059251 0.147477
H61   H     H_    0.545905 0.946095 0.966866 0.166667
H62   H     H_    0.320216 0.873903 0.028092 0.139628
N1    N     N_2   0.795378 0.207643 0.047788 -0.460299
N2    N     N_2   0.052282 0.644263 0.454490 -0.532873
N3    N     N_2   0.712960 0.243333 0.210281 -0.524916
N4    N     N_2   0.758097 0.239632 0.916101 -0.482701
N5    N     N_2   0.199364 0.666150 0.819805 -0.521529
N6    N     N_2   0.578815 0.316764 0.849724 -0.537402
O1    O     O_3   0.500000 0.500000 0.500000 -0.430328
O2    O     O_R   0.470800 0.371790 0.332500 -0.556689
O3    O     O_R   0.380610 0.619380 0.674980 -0.551681
O4    O     O_R   0.632640 0.524780 0.317540 -0.553698
O5    O     O_R   0.515950 0.484050 0.674980 -0.551415
O6    O     O_R   0.535460 0.243030 0.556410 -0.551131
O7    O     O_R   0.437420 0.784080 0.535340 -0.560277
O8    O     O_R   0.223560 0.397520 0.472140 -0.552089
O9    O     O_R   0.803560 0.575360 0.436110 -0.538916
O10   O     O_R   0.209690 0.568800 0.556400 -0.547087
O11   O     O_R   0.763190 0.458310 0.535350 -0.575248
O12   O     O_R   0.414000 0.207090 0.472140 -0.552233
O13   O     O_R   0.613120 0.765800 0.436110 -0.539007
Zn1   Zn    Zn3+2 0.577310 0.422690 0.565550 0.899170
Zn2   Zn    Zn3+2 0.403760 0.371330 0.445150 0.896221
Zn3   Zn    Zn3+2 0.634990 0.589920 0.423760 0.914045
Zn4   Zn    Zn3+2 0.383940 0.616050 0.565540 0.895155

loop_
_geom_bond_atom_site_label_1
_geom_bond_atom_site_label_2
_ccdc_geom_bond_type
O11   Zn1   S    
C18   O3    A    
C42   H44   S    
C41   C42   S    
C19   C23   A    
C35   C36   S    
H51   N5    S    
O10   Zn4   S    
C14   C31   S    
C26   H6    S    
C40   H50   S    
C35   H32   S    
C25   H56   S    
C7    C8    A    
C2    C46   A    
C8    C20   A    
C15   O6    A    
C38   H37   S    
C11   C28   S    
C36   C37   S    
C48   H23   S    
C40   H49   S    
C5    C6    A    
C38   N3    S    
C41   H47   S    
H3    N1    S    
C4    O9    A    
C17   C20   S    
C7    N1    S    
C18   C19   S    
C41   H48   S    
O1    Zn1   S    
C35   H33   S    
C31   C32   S    
O9    Zn3   S    
C30   H11   S    
H7    N2    S    
C34   C46   A    
C16   O13   A    
C39   H41   S    
O3    Zn4   S    
O1    Zn4   S    
C33   H20   S    
O12   Zn2   S    
C29   H15   S    
C25   H45   S    
C13   C14   D    
C6    C9    A    
C26   H5    S    
C39   H42   S    
C2    N6    S    
C32   H22   S    
C21   C45   A    
C44   H59   S    
C6    C47   A    
C4    O11   A    
C38   H36   S    
C42   H46   S    
C28   H18   S    
C24   H61   S    
C24   C25   S    
C27   H8    S    
C32   H24   S    
C5    C7    A    
C31   H25   S    
C37   H28   S    
C12   C21   A    
C36   H30   S    
C28   H17   S    
C43   H52   S    
C29   C30   S    
C43   N5    S    
C9    C20   A    
C31   H26   S    
C47   C48   A    
C15   O12   A    
C45   C49   A    
C23   C34   A    
O2    Zn2   S    
C34   C45   A    
O1    Zn3   S    
C10   N2    S    
C33   H21   S    
C18   O5    A    
C22   C49   S    
C29   H16   S    
C27   N2    S    
C17   O4    A    
C40   C41   S    
C37   H27   S    
C39   N4    S    
C30   H13   S    
C36   H31   S    
C22   C24   S    
O13   Zn3   S    
C4    C10   S    
C26   H4    S    
C26   N1    S    
O5    Zn1   S    
C9    C35   S    
H55   N6    S    
C44   H58   S    
C46   C47   A    
C28   C29   S    
H35   N3    S    
O6    Zn1   S    
C24   H60   S    
C1    O10   A    
C1    O8    A    
C44   H57   S    
C3    C5    A    
C27   H9    S    
C8    N3    S    
C37   H29   S    
O7    Zn4   S    
C38   H38   S    
C32   C33   S    
H39   N4    S    
C2    C3    A    
C16   O7    A    
C43   H53   S    
C3    N4    S    
O8    Zn2   S    
C21   C40   S    
C44   N6    S    
C48   C49   A    
C12   C19   A    
C42   H43   S    
C43   H54   S    
O1    Zn2   S    
C10   C11   D    
C17   O2    A    
C13   H1    S    
C23   H12   S    
C22   H62   S    
C13   C16   S    
C25   H34   S    
C14   C15   S    
C27   H10   S    
C1    C11   S    
O4    Zn3   S    
C30   H14   S    
C39   H40   S    
C33   H19   S    
C22   H2    S    
C12   N5    S    
