data_mof_unit_11818.cif
_audit_creation_date              2012-12-10T19:09:02-0500
_audit_creation_method            fapswitch 2.2
_symmetry_space_group_name_H-M    P1
_symmetry_Int_Tables_number       1
_space_group_crystal_system       triclinic
_cell_length_a                    17.710677
_cell_length_b                    10.787697
_cell_length_c                    9.605303
_cell_angle_alpha                 89.780528
_cell_angle_beta                  89.521487
_cell_angle_gamma                 91.46182
_cell_volume                      1834.48813322

loop_
_atom_site_label
_atom_site_type_symbol
_atom_type_description
_atom_site_fract_x
_atom_site_fract_y
_atom_site_fract_z
_atom_type_partial_charge
C1    C     C_R   0.499471 0.262802 0.500256 0.803532
C2    C     C_R   0.886018 0.496052 0.490046 -0.015519
C3    C     C_1   0.967074 0.495313 0.486367 0.073452
C4    C     C_1   0.034755 0.495183 0.487014 -0.001504
C5    C     C_R   0.153152 0.546787 0.604865 -0.147685
C6    C     C_R   0.231846 0.547388 0.608686 -0.135264
C7    C     C_R   0.272995 0.495884 0.498746 -0.000990
C8    C     C_R   0.234473 0.445238 0.384063 -0.162558
C9    C     C_R   0.155843 0.444844 0.380298 -0.097868
C10   C     C_R   0.115296 0.495490 0.490714 0.118628
C11   C     C_R   0.536229 0.064690 0.598815 0.134658
C12   C     C_R   0.355788 0.498226 0.500230 0.830392
C13   C     C_R   0.494790 0.129712 0.502194 -0.148949
C14   C     C_R   0.443112 0.065609 0.417432 -0.295978
C15   C     C_R   0.439231 0.935495 0.419267 0.365945
C16   C     C_R   0.491576 0.870780 0.501816 -0.220453
C17   C     C_R   0.535308 0.937262 0.597648 0.073988
C18   C     C_3   0.618032 0.933051 0.626567 -0.476797
C19   C     C_3   0.618815 0.073689 0.627460 -0.451585
C20   C     C_R   0.555868 0.562827 0.071688 0.208619
C21   C     C_R   0.451431 0.426572 0.077945 -0.040346
C22   C     C_R   0.450259 0.425676 0.929914 0.222637
C23   C     C_R   0.497173 0.737283 0.499906 0.870168
C24   C     C_R   0.554531 0.563528 0.924934 0.187495
C25   C     C_3   0.572645 0.697661 0.913828 -0.539699
C26   C     C_3   0.576621 0.699902 0.072396 -0.101536
C27   C     C_R   0.644376 0.498796 0.499551 0.798074
C28   C     C_R   0.847438 0.486468 0.619108 0.092663
C29   C     C_R   0.768279 0.488042 0.621763 -0.213183
C30   C     C_R   0.727520 0.497099 0.497763 -0.123904
C31   C     C_R   0.766542 0.504309 0.370640 -0.290749
C32   C     C_R   0.845276 0.505801 0.365499 0.421236
Cu1   Cu    Cu3+1 0.500000 0.499980 0.640670 0.942906
Cu2   Cu    Cu3+1 0.500000 0.500020 0.359330 0.985572
H1    H     H_    0.629979 0.893602 0.730485 0.200545
H2    H     H_    0.651124 0.893711 0.539341 0.198459
H3    H     H_    0.630686 0.113877 0.731647 0.199501
H4    H     H_    0.651871 0.116382 0.539883 0.195293
H5    H     H_    0.411996 0.368741 0.137436 0.141368
H6    H     H_    0.627287 0.712893 0.857947 0.187929
H7    H     H_    0.524958 0.751518 0.872747 0.217243
H8    H     H_    0.738587 0.481986 0.720767 0.162747
H9    H     H_    0.532614 0.758272 0.119189 0.217938
H10   H     H_    0.735299 0.508918 0.275008 0.180201
H11   H     H_    0.121878 0.587096 0.690161 0.144848
H12   H     H_    0.260492 0.590980 0.695331 0.155931
H13   H     H_    0.265142 0.405442 0.297747 0.142219
H14   H     H_    0.126730 0.405255 0.291512 0.166102
H15   H     H_    0.405740 0.117158 0.351320 0.184980
N1    N     N_R   0.500470 0.500930 0.147930 -0.197030
N2    N     N_R   0.500480 0.500890 0.852020 -0.197356
O1    O     O_R   0.500000 0.319640 0.618810 -0.603743
O2    O     O_R   0.500010 0.319680 0.381230 -0.590226
O3    O     O_R   0.391250 0.499990 0.618840 -0.597310
O4    O     O_R   0.391260 0.500020 0.381250 -0.544754
O5    O     O_R   0.499990 0.680320 0.618770 -0.578220
O6    O     O_R   0.500000 0.680360 0.381190 -0.533880
O7    O     O_R   0.608740 0.499980 0.618750 -0.581212
O8    O     O_R   0.608750 0.500010 0.381160 -0.588285
C33   C     C_3   0.889589 0.474272 0.754591 -0.389005
C34   C     C_3   0.921173 0.599897 0.802592 -0.651970
H16   H     H_    0.959988 0.641616 0.723063 0.217159
H17   H     H_    0.874344 0.664243 0.822531 0.263566
H18   H     H_    0.953317 0.587806 0.900176 0.298343
H19   H     H_    0.851576 0.434836 0.836647 0.227205
H20   H     H_    0.936242 0.408081 0.742748 0.205174
S1    S     S_3+6 0.364393 0.859575 0.329519 0.016703
O9    O     O_2   0.325617 0.768164 0.426052 -0.275062
O10   O     O_2   0.307540 0.951664 0.282299 -0.291338
O11   O     O_3   0.396987 0.783563 0.190049 -0.514065
H21   H     H_    0.407274 0.848790 0.119030 0.331406
C35   C     C_3   0.390995 0.339037 0.867795 -0.377209
C36   C     C_3   0.311089 0.381176 0.901463 -0.813262
H22   H     H_    0.306503 0.482006 0.881743 0.263576
H23   H     H_    0.269611 0.330093 0.835569 0.249218
H24   H     H_    0.296502 0.362180 0.012271 0.240939
H25   H     H_    0.395696 0.327363 0.755579 0.258259
H26   H     H_    0.397980 0.244504 0.911636 0.176290
C37   C     C_3   0.657680 0.732721 0.121011 -0.330138
C38   C     C_3   0.659650 0.790582 0.265453 -0.816404
H27   H     H_    0.623295 0.872946 0.269468 0.239883
H28   H     H_    0.640692 0.723048 0.345551 0.259899
H29   H     H_    0.718471 0.820549 0.290055 0.250292
H30   H     H_    0.693436 0.649987 0.117880 0.230268
H31   H     H_    0.683962 0.802682 0.048994 0.215925
S2    S     S_3+6 0.891059 0.520922 0.201834 -0.025431
O12   O     O_2   0.945264 0.630328 0.204561 -0.255297
O13   O     O_2   0.934457 0.405989 0.171704 -0.307942
O14   O     O_3   0.827558 0.542797 0.075615 -0.573445
H32   H     H_    0.801140 0.461396 0.064837 0.327778

loop_
_geom_bond_atom_site_label_1
_geom_bond_atom_site_label_2
_ccdc_geom_bond_type
Cu1   O7    S    
C29   H8    S    
C36   H22   S    
C7    C8    A    
Cu1   O1    S    
C11   C19   S    
C35   H25   S    
C5    C6    A    
C32   S2    S    
C28   C29   A    
C25   H6    S    
C30   C31   A    
S2    O13   D    
C14   H15   S    
C16   C17   A    
C15   C16   A    
C2    C32   A    
C18   C19   S    
C34   H17   S    
C1    O2    A    
C20   N1    A    
C19   H3    S    
C20   C24   A    
C8    C9    A    
Cu2   O6    S    
C35   H26   S    
O11   H21   S    
C9    C10   A    
C24   N2    A    
C33   H20   S    
Cu2   O4    S    
C13   C14   A    
C27   C30   S    
C36   H23   S    
C38   H29   S    
C22   C35   S    
C21   N1    A    
C26   H9    S    
Cu1   Cu2   S    
C28   C33   S    
C7    C12   S    
Cu2   N1    S    
C31   H10   S    
S1    O9    D    
C23   O5    A    
C24   C25   S    
C38   H28   S    
C25   H7    S    
S2    O12   D    
C38   H27   S    
C25   C26   S    
C5    H11   S    
C27   O7    A    
C33   C34   S    
S1    O10   D    
C34   H18   S    
C29   C30   A    
C19   H4    S    
C31   C32   A    
C21   H5    S    
C15   S1    S    
C17   C18   S    
C9    H14   S    
C33   H19   S    
C16   C23   S    
Cu2   O8    S    
C36   H24   S    
C1    C13   S    
C4    C10   S    
C3    C4    T    
C37   H31   S    
C18   H1    S    
Cu1   O3    S    
C23   O6    A    
C11   C17   A    
C6    H12   S    
C35   C36   S    
S2    O14   S    
C6    C7    A    
Cu1   N2    S    
C26   C37   S    
S1    O11   S    
C2    C3    S    
C8    H13   S    
C5    C10   A    
C27   O8    A    
C11   C13   A    
C37   H30   S    
C20   C26   S    
Cu1   O5    S    
C34   H16   S    
C1    O1    A    
C12   O4    A    
C37   C38   S    
Cu2   O2    S    
C14   C15   A    
C2    C28   A    
O14   H32   S    
C21   C22   A    
C18   H2    S    
C12   O3    A    
C22   N2    A    
