data_mof_unit_64514.cif
_audit_creation_date              2012-12-10T17:34:21-0500
_audit_creation_method            fapswitch 2.2
_symmetry_space_group_name_H-M    P1
_symmetry_Int_Tables_number       1
_space_group_crystal_system       orthorhombic
_cell_length_a                    30.170481
_cell_length_b                    30.233125
_cell_length_c                    29.116015
_cell_angle_alpha                 90.0
_cell_angle_beta                  90.0
_cell_angle_gamma                 90.0
_cell_volume                      26558.1126194

loop_
_atom_site_label
_atom_site_type_symbol
_atom_type_description
_atom_site_fract_x
_atom_site_fract_y
_atom_site_fract_z
_atom_type_partial_charge
Br1   Br    Br    0.432669 0.627248 0.929160 -0.335134
Br2   Br    Br    0.873694 0.915225 0.456458 -0.342419
Br3   Br    Br    0.067329 0.872752 0.429158 -0.335132
Br4   Br    Br    0.126306 0.084775 0.456457 -0.342419
Br5   Br    Br    0.932671 0.872752 0.570842 -0.335132
Br6   Br    Br    0.873694 0.084775 0.543542 -0.342419
Br7   Br    Br    0.067330 0.127248 0.570841 -0.335132
Br8   Br    Br    0.126306 0.915225 0.543543 -0.342419
Br9   Br    Br    0.633670 0.698989 0.029045 -0.335643
Br10  Br    Br    0.301960 0.569469 0.122696 -0.334306
Br11  Br    Br    0.366330 0.301011 0.029046 -0.335643
Br12  Br    Br    0.373694 0.415226 0.956456 -0.342418
Br13  Br    Br    0.698040 0.430530 0.122696 -0.334306
Br14  Br    Br    0.633670 0.301011 0.970954 -0.335643
Br15  Br    Br    0.301960 0.430530 0.877304 -0.334306
Br16  Br    Br    0.366330 0.698989 0.970955 -0.335643
Br17  Br    Br    0.698040 0.569469 0.877304 -0.334306
Br18  Br    Br    0.133670 0.198989 0.529048 -0.335643
Br19  Br    Br    0.801960 0.069472 0.622694 -0.334306
Br20  Br    Br    0.866330 0.801011 0.529048 -0.335643
Br21  Br    Br    0.198039 0.930529 0.622695 -0.334306
Br22  Br    Br    0.133670 0.801011 0.470952 -0.335643
Br23  Br    Br    0.567330 0.372752 0.929160 -0.335133
Br24  Br    Br    0.801960 0.930528 0.377306 -0.334306
Br25  Br    Br    0.866330 0.198989 0.470952 -0.335643
Br26  Br    Br    0.198039 0.069471 0.377305 -0.334306
Br27  Br    Br    0.560432 0.873012 0.077031 -0.450185
Br28  Br    Br    0.122801 0.526929 0.093743 -0.484740
Br29  Br    Br    0.439568 0.126988 0.077031 -0.450185
Br30  Br    Br    0.877199 0.473071 0.093743 -0.484740
Br31  Br    Br    0.560432 0.126988 0.922969 -0.450185
Br32  Br    Br    0.122801 0.473071 0.906257 -0.484740
Br33  Br    Br    0.439568 0.873012 0.922969 -0.450185
Br34  Br    Br    0.626306 0.584774 0.956456 -0.342418
Br35  Br    Br    0.877199 0.526929 0.906257 -0.484739
Br36  Br    Br    0.060431 0.373012 0.577031 -0.450186
Br37  Br    Br    0.622801 0.026931 0.593742 -0.484739
Br38  Br    Br    0.939569 0.626988 0.577032 -0.450187
Br39  Br    Br    0.377199 0.973070 0.593743 -0.484739
Br40  Br    Br    0.060431 0.626988 0.422968 -0.450186
Br41  Br    Br    0.622801 0.973069 0.406258 -0.484739
Br42  Br    Br    0.939569 0.373012 0.422969 -0.450186
Br43  Br    Br    0.377199 0.026930 0.406257 -0.484739
Br44  Br    Br    0.432669 0.372752 0.070840 -0.335133
Br45  Br    Br    0.373694 0.584774 0.043544 -0.342418
Br46  Br    Br    0.567331 0.627248 0.070840 -0.335134
Br47  Br    Br    0.626306 0.415226 0.043543 -0.342418
Br48  Br    Br    0.932670 0.127248 0.429159 -0.335132
C1    C     C_R   0.500000 0.913368 0.000000 0.960956
C2    C     C_R   0.272929 0.548857 0.067178 0.265524
C3    C     C_R   1.000000 0.500000 0.914327 0.918950
C4    C     C_R   1.000000 0.500000 0.585703 0.893228
C5    C     C_R   0.500000 1.000000 0.585673 0.918950
C6    C     C_R   1.000000 0.500000 0.414297 0.893227
C7    C     C_R   0.500000 1.000000 0.414327 0.918949
C8    C     C_1   0.500000 1.000000 0.136538 -0.114459
C9    C     C_1   1.000000 0.500000 0.136507 -0.088280
C10   C     C_1   0.500000 1.000000 0.863462 -0.114459
C11   C     C_1   1.000000 0.500000 0.863493 -0.088280
C12   C     C_1   1.000000 0.500000 0.636538 -0.114458
C13   C     C_R   0.424007 0.272439 0.029364 0.273886
C14   C     C_1   0.500000 1.000000 0.636507 -0.088280
C15   C     C_1   1.000000 0.500000 0.363462 -0.114458
C16   C     C_1   0.500000 1.000000 0.363493 -0.088281
C17   C     C_1   0.500000 1.000000 0.178866 0.054961
C18   C     C_1   1.000000 0.500000 0.178832 0.065326
C19   C     C_1   0.500000 1.000000 0.821134 0.054961
C20   C     C_1   1.000000 0.500000 0.821168 0.065327
C21   C     C_1   1.000000 0.500000 0.678866 0.054961
C22   C     C_1   0.500000 1.000000 0.678832 0.065326
C23   C     C_1   1.000000 0.500000 0.321134 0.054961
C24   C     C_R   0.727071 0.451143 0.067178 0.265524
C25   C     C_1   0.500000 1.000000 0.321168 0.065326
C26   C     C_1   0.500000 1.000000 0.228853 0.057081
C27   C     C_1   1.000000 0.500000 0.228817 0.058577
C28   C     C_1   0.500000 1.000000 0.771146 0.057081
C29   C     C_1   1.000000 0.500000 0.771183 0.058577
C30   C     C_1   1.000000 0.500000 0.728854 0.057081
C31   C     C_1   0.500000 1.000000 0.728817 0.058577
C32   C     C_1   1.000000 0.500000 0.271146 0.057081
C33   C     C_1   0.500000 1.000000 0.271183 0.058577
C34   C     C_R   0.467071 0.658240 0.975459 0.242788
C35   C     C_R   0.575993 0.272439 0.970636 0.273886
C36   C     C_R   0.342118 0.468621 0.973760 0.242492
C37   C     C_R   0.532928 0.341760 0.975459 0.242788
C38   C     C_R   0.657882 0.531379 0.973760 0.242491
C39   C     C_R   0.467071 0.341760 0.024541 0.242788
C40   C     C_R   0.342118 0.531379 0.026240 0.242491
C41   C     C_R   0.532928 0.658240 0.024541 0.242787
C42   C     C_R   0.657882 0.468621 0.026240 0.242491
C43   C     C_R   0.967072 0.158240 0.475458 0.242789
C44   C     C_R   0.842118 0.968620 0.473761 0.242490
C45   C     C_R   0.032928 0.841760 0.475458 0.242788
C46   C     C_R   0.272929 0.451143 0.932822 0.265524
C47   C     C_R   0.157882 0.031379 0.473760 0.242490
C48   C     C_R   0.967072 0.841760 0.524542 0.242789
C49   C     C_R   0.842118 0.031379 0.526239 0.242490
C50   C     C_R   0.032928 0.158240 0.524542 0.242788
C51   C     C_R   0.157882 0.968621 0.526239 0.242490
C52   C     C_R   0.500000 0.635484 0.000000 -0.227488
C53   C     C_R   0.364690 0.500000 0.000000 -0.230549
C54   C     C_R   0.500000 0.364516 0.000000 -0.227488
C55   C     C_R   0.635310 0.500000 1.000000 -0.230549
C56   C     C_R   1.000000 0.135484 0.500000 -0.227488
C57   C     C_R   0.424007 0.727561 0.970636 0.273886
C58   C     C_R   0.864690 1.000000 0.500000 -0.230549
C59   C     C_R   1.000000 0.864516 0.500000 -0.227488
C60   C     C_R   0.135310 1.000000 0.500000 -0.230549
C61   C     C_R   0.536779 0.704124 0.018481 -0.009730
C62   C     C_R   0.296143 0.526834 0.031889 -0.009255
C63   C     C_R   0.463221 0.295876 0.018482 -0.009730
C64   C     C_R   0.703857 0.473166 0.031889 -0.009255
C65   C     C_R   0.536779 0.295876 0.981518 -0.009731
C66   C     C_R   0.296143 0.473166 0.968111 -0.009256
C67   C     C_R   0.463221 0.704124 0.981519 -0.009730
C68   C     C_R   0.727071 0.548857 0.932822 0.265524
C69   C     C_R   0.703857 0.526834 0.968111 -0.009256
C70   C     C_R   0.036779 0.204124 0.518482 -0.009730
C71   C     C_R   0.796143 0.026834 0.531888 -0.009256
C72   C     C_R   0.963221 0.795875 0.518482 -0.009731
C73   C     C_R   0.203857 0.973166 0.531888 -0.009256
C74   C     C_R   0.036779 0.795875 0.481518 -0.009731
C75   C     C_R   0.796143 0.973165 0.468112 -0.009256
C76   C     C_R   0.963221 0.204124 0.481518 -0.009731
C77   C     C_R   0.203857 0.026834 0.468112 -0.009256
C78   C     C_R   0.500000 0.727312 0.000000 -0.061978
C79   C     C_R   0.075992 0.227561 0.529365 0.273886
C80   C     C_R   0.272708 0.500000 0.000000 -0.057001
C81   C     C_R   0.500000 0.272688 0.000000 -0.061978
C82   C     C_R   0.727292 0.500000 1.000000 -0.057001
C83   C     C_R   1.000000 0.227312 0.500000 -0.061978
C84   C     C_R   0.772708 1.000000 0.500000 -0.057001
C85   C     C_R   0.000000 0.772688 0.500000 -0.061978
C86   C     C_R   0.227292 1.000000 0.500000 -0.057001
C87   C     C_1   0.616276 0.797128 0.039831 0.365650
C88   C     C_1   0.205220 0.582064 0.095883 0.372920
C89   C     C_1   0.383724 0.202871 0.039832 0.365650
C90   C     C_R   0.772929 0.048858 0.567177 0.265524
C91   C     C_1   0.794780 0.417936 0.095883 0.372920
C92   C     C_1   0.616276 0.202871 0.960168 0.365650
C93   C     C_1   0.205220 0.417936 0.904117 0.372920
C94   C     C_1   0.383724 0.797128 0.960168 0.365650
C95   C     C_1   0.794780 0.582064 0.904117 0.372920
C96   C     C_1   0.116276 0.297129 0.539834 0.365650
C97   C     C_1   0.705220 0.082066 0.595881 0.372919
C98   C     C_1   0.883724 0.702871 0.539834 0.365650
C99   C     C_1   0.294780 0.917935 0.595882 0.372920
C100  C     C_1   0.116275 0.702871 0.460166 0.365650
C101  C     C_R   0.924008 0.772439 0.529366 0.273886
C102  C     C_1   0.705220 0.917934 0.404119 0.372919
C103  C     C_1   0.883724 0.297129 0.460166 0.365650
C104  C     C_1   0.294780 0.082065 0.404118 0.372920
C105  C     C_R   0.086443 0.500000 0.000000 0.982624
C106  C     C_R   0.227071 0.951142 0.567178 0.265524
C107  C     C_R   0.075992 0.772439 0.470634 0.273886
C108  C     C_R   0.772929 0.951141 0.432823 0.265524
C109  C     C_R   0.924008 0.227561 0.470635 0.273886
C110  C     C_R   0.227071 0.048858 0.432823 0.265524
C111  C     C_R   0.574963 0.773846 0.031973 -0.103352
C112  C     C_R   0.226660 0.549596 0.066807 -0.099456
C113  C     C_R   0.425037 0.226154 0.031973 -0.103352
C114  C     C_R   0.773340 0.450404 0.066807 -0.099457
C115  C     C_R   0.574963 0.226154 0.968027 -0.103351
C116  C     C_R   0.500000 0.086632 0.000000 0.960955
C117  C     C_R   0.226660 0.450404 0.933193 -0.099456
C118  C     C_R   0.425036 0.773846 0.968027 -0.103352
C119  C     C_R   0.773340 0.549596 0.933193 -0.099456
C120  C     C_R   0.074963 0.273846 0.531974 -0.103352
C121  C     C_R   0.726660 0.049597 0.566806 -0.099456
C122  C     C_R   0.925037 0.726154 0.531975 -0.103352
C123  C     C_R   0.273340 0.950403 0.566806 -0.099457
C124  C     C_R   0.074963 0.726154 0.468025 -0.103352
C125  C     C_R   0.726660 0.950403 0.433194 -0.099456
C126  C     C_R   0.925037 0.273846 0.468025 -0.103352
C127  C     C_R   0.913557 0.500000 0.000000 0.982625
C128  C     C_R   0.273340 0.049597 0.433194 -0.099456
C129  C     C_R   0.535732 0.796890 0.020388 -0.009886
C130  C     C_R   0.202781 0.523281 0.035011 -0.002651
C131  C     C_R   0.464268 0.203110 0.020388 -0.009886
C132  C     C_R   0.797219 0.476718 0.035011 -0.002652
C133  C     C_R   0.535732 0.203110 0.979612 -0.009886
C134  C     C_R   0.202781 0.476718 0.964989 -0.002652
C135  C     C_R   0.464268 0.796890 0.979612 -0.009887
C136  C     C_R   0.797219 0.523281 0.964989 -0.002652
C137  C     C_R   0.035731 0.296890 0.520389 -0.009886
C138  C     C_R   1.000000 0.413368 0.500000 0.960957
C139  C     C_R   0.702781 0.023282 0.535010 -0.002652
C140  C     C_R   0.964269 0.703110 0.520389 -0.009886
C141  C     C_R   0.297219 0.976718 0.535010 -0.002652
C142  C     C_R   0.035731 0.703110 0.479611 -0.009886
C143  C     C_R   0.702781 0.976718 0.464990 -0.002652
C144  C     C_R   0.964269 0.296890 0.479611 -0.009886
C145  C     C_R   0.297219 0.023282 0.464990 -0.002652
C146  C     C_R   0.500000 0.773660 1.000000 0.015900
C147  C     C_R   0.226093 0.500000 0.000000 0.016593
C148  C     C_R   0.500000 0.226340 0.000000 0.015900
C149  C     C_R   0.586443 1.000000 0.500000 0.982624
C150  C     C_R   0.773907 0.500000 1.000000 0.016593
C151  C     C_R   1.000000 0.273660 0.500000 0.015900
C152  C     C_R   0.726093 1.000000 0.500000 0.016593
C153  C     C_R   0.000000 0.726340 0.500000 0.015900
C154  C     C_R   0.273907 1.000000 0.500000 0.016593
C155  C     C_R   0.531222 0.842719 0.026612 0.180506
C156  C     C_R   0.156467 0.517921 0.037568 0.165559
C157  C     C_R   0.468778 0.157281 0.026613 0.180506
C158  C     C_R   0.843533 0.482079 0.037568 0.165560
C159  C     C_R   0.531221 0.157281 0.973387 0.180506
C160  C     C_R   1.000000 0.586632 0.500000 0.960956
C161  C     C_R   0.156467 0.482079 0.962432 0.165560
C162  C     C_R   0.468778 0.842719 0.973387 0.180507
C163  C     C_R   0.843533 0.517921 0.962432 0.165560
C164  C     C_R   0.031221 0.342719 0.526613 0.180506
C165  C     C_R   0.656467 0.017922 0.537568 0.165560
C166  C     C_R   0.968779 0.657281 0.526613 0.180506
C167  C     C_R   0.343533 0.982079 0.537568 0.165560
C168  C     C_R   0.031221 0.657281 0.473387 0.180506
C169  C     C_R   0.656467 0.982078 0.462432 0.165560
C170  C     C_R   0.968779 0.342719 0.473387 0.180506
C171  C     C_R   0.413557 1.000000 0.500000 0.982625
C172  C     C_R   0.343533 0.017921 0.462432 0.165560
C173  C     C_R   0.500000 0.865555 1.000000 -0.195427
C174  C     C_R   0.134075 0.500000 0.000000 -0.166335
C175  C     C_R   0.500000 0.134445 0.000000 -0.195427
C176  C     C_R   0.865925 0.500000 0.000000 -0.166335
C177  C     C_R   1.000000 0.365555 0.500000 -0.195426
C178  C     C_R   0.634075 1.000000 0.500000 -0.166335
C179  C     C_R   1.000000 0.634445 0.500000 -0.195426
C180  C     C_R   0.365925 1.000000 0.500000 -0.166335
C181  C     C_R   0.412346 0.500000 0.000000 1.016371
C182  C     C_R   0.575993 0.727561 0.029364 0.273886
C183  C     C_R   0.500000 0.412258 0.000000 1.019636
C184  C     C_R   0.587654 0.500000 0.000000 1.016371
C185  C     C_R   0.500000 0.587742 0.000000 1.019635
C186  C     C_R   0.912346 1.000000 0.500000 1.016371
C187  C     C_R   1.000000 0.912258 0.500000 1.019636
C188  C     C_R   0.087654 1.000000 0.500000 1.016370
C189  C     C_R   1.000000 0.087742 0.500000 1.019635
C190  C     C_R   0.500000 0.000000 0.085703 0.893227
C191  C     C_R   1.000000 0.500000 0.085673 0.918950
C192  C     C_R   0.500000 1.000000 0.914297 0.893226
N1    N     N_1   0.649448 0.815465 0.045935 -0.096971
N2    N     N_1   0.688566 0.108370 0.619074 -0.093974
N3    N     N_1   0.850553 0.684534 0.545939 -0.096972
N4    N     N_1   0.311433 0.891631 0.619075 -0.093974
N5    N     N_1   0.149447 0.684534 0.454061 -0.096971
N6    N     N_1   0.688566 0.891630 0.380927 -0.093974
N7    N     N_1   0.850553 0.315465 0.454062 -0.096971
N8    N     N_1   0.311433 0.108369 0.380925 -0.093974
N9    N     N_1   0.188566 0.608367 0.119076 -0.093974
N10   N     N_1   0.350552 0.184534 0.045936 -0.096972
N11   N     N_1   0.811433 0.391632 0.119076 -0.093974
N12   N     N_1   0.649447 0.184534 0.954064 -0.096972
N13   N     N_1   0.188566 0.391632 0.880924 -0.093974
N14   N     N_1   0.350552 0.815465 0.954064 -0.096972
N15   N     N_1   0.811433 0.608368 0.880924 -0.093974
N16   N     N_1   0.149447 0.315465 0.545938 -0.096971
O1    O     O_R   0.537310 0.933950 0.000030 -0.585227
O2    O     O_R   0.566050 0.037310 0.500030 -0.590814
O3    O     O_R   0.962690 0.566050 0.500030 -0.585227
O4    O     O_R   0.433950 0.962690 0.500030 -0.590813
O5    O     O_R   0.037310 0.566050 0.499970 -0.585227
O6    O     O_R   0.566050 0.962690 0.499970 -0.590814
O7    O     O_R   0.962690 0.433950 0.499970 -0.585226
O8    O     O_R   0.433950 0.037310 0.499970 -0.590814
O9    O     O_R   0.537300 0.000020 0.063150 -0.584740
O10   O     O_R   0.999980 0.537300 0.063150 -0.587440
O11   O     O_R   0.462700 0.999980 0.063150 -0.584739
O12   O     O_R   0.066050 0.537310 0.000030 -0.590814
O13   O     O_R   0.000020 0.462700 0.063150 -0.587440
O14   O     O_R   0.537300 0.999980 0.936850 -0.584739
O15   O     O_R   0.999980 0.462700 0.936850 -0.587439
O16   O     O_R   0.462700 0.000020 0.936850 -0.584738
O17   O     O_R   0.000020 0.537300 0.936850 -0.587440
O18   O     O_R   0.037300 0.500020 0.563150 -0.584740
O19   O     O_R   0.499980 0.037300 0.563150 -0.587440
O20   O     O_R   0.962700 0.499980 0.563150 -0.584739
O21   O     O_R   0.500020 0.962700 0.563150 -0.587440
O22   O     O_R   0.037300 0.499980 0.436850 -0.584739
O23   O     O_R   0.462690 0.066050 0.000030 -0.585226
O24   O     O_R   0.499980 0.962700 0.436850 -0.587439
O25   O     O_R   0.962700 0.500020 0.436850 -0.584738
O26   O     O_R   0.500020 0.037300 0.436850 -0.587440
O27   O     O_R   0.433890 0.500020 0.035650 -0.593988
O28   O     O_R   0.499980 0.433890 0.035650 -0.590202
O29   O     O_R   0.566110 0.499980 0.035650 -0.593989
O30   O     O_R   0.500020 0.566110 0.035650 -0.590202
O31   O     O_R   0.433890 0.499980 0.964350 -0.593989
O32   O     O_R   0.499980 0.566110 0.964350 -0.590202
O33   O     O_R   0.566110 0.500020 0.964350 -0.593989
O34   O     O_R   0.933950 0.462690 0.000030 -0.590813
O35   O     O_R   0.500020 0.433890 0.964350 -0.590202
O36   O     O_R   0.933890 0.000020 0.535650 -0.593989
O37   O     O_R   0.999980 0.933890 0.535650 -0.590202
O38   O     O_R   0.066110 0.999980 0.535650 -0.593989
O39   O     O_R   0.000020 0.066110 0.535650 -0.590202
O40   O     O_R   0.933890 0.999980 0.464350 -0.593989
O41   O     O_R   0.999980 0.066110 0.464350 -0.590202
O42   O     O_R   0.066110 0.000020 0.464350 -0.593989
O43   O     O_R   0.000020 0.933890 0.464350 -0.590202
O44   O     O_R   0.537310 0.066050 0.999970 -0.585227
O45   O     O_R   0.066050 0.462690 0.999970 -0.590814
O46   O     O_R   0.462690 0.933950 0.999970 -0.585226
O47   O     O_R   0.933950 0.537310 0.999970 -0.590814
O48   O     O_R   0.037310 0.433950 0.500030 -0.585227
Zn1   Zn    Zn3+2 0.549820 0.000000 0.000000 1.096017
Zn2   Zn    Zn3+2 0.500000 0.500000 0.952400 1.160969
Zn3   Zn    Zn3+2 1.000000 1.000000 0.547600 1.160969
Zn4   Zn    Zn3+2 1.000000 1.000000 0.452400 1.160969
Zn5   Zn    Zn3+2 1.000000 0.549820 0.000000 1.085903
Zn6   Zn    Zn3+2 0.450180 0.000000 0.000000 1.096017
Zn7   Zn    Zn3+2 0.000000 0.450180 0.000000 1.085903
Zn8   Zn    Zn3+2 0.049820 0.500000 0.500000 1.096016
Zn9   Zn    Zn3+2 0.500000 0.049820 0.500000 1.085903
Zn10  Zn    Zn3+2 0.950180 0.500000 0.500000 1.096017
Zn11  Zn    Zn3+2 0.500000 0.950180 0.500000 1.085903
Zn12  Zn    Zn3+2 0.500000 0.500000 0.047600 1.160969

loop_
_geom_bond_atom_site_label_1
_geom_bond_atom_site_label_2
_ccdc_geom_bond_type
C145  C172  A    
C139  C165  A    
C28   C31   T    
C184  O29   A    
C143  C169  A    
C24   C64   A    
O19   Zn9   S    
C92   C115  S    
C8    C190  S    
C1    O46   A    
C133  C159  A    
Br8   C51   S    
O27   Zn12  S    
C160  C179  S    
O37   Zn3   S    
C10   C192  S    
O14   Zn1   S    
C6    C15   S    
C2    C62   A    
Br20  C101  S    
Br12  C36   S    
C72   C85   A    
O10   Zn5   S    
C188  O38   A    
C70   C83   A    
C189  O39   A    
Br48  C43   S    
O30   Zn12  S    
C163  C176  A    
O41   Zn4   S    
C169  C178  A    
C51   C73   A    
O34   Zn7   S    
C6    O22   A    
C161  C174  A    
Br14  C35   S    
Br38  C166  S    
C46   C117  A    
C25   C33   S    
C75   C108  A    
C85   C153  A    
C108  C125  A    
C87   C111  S    
C73   C106  A    
C191  O13   A    
Br6   C49   S    
C121  C139  A    
C44   C75   A    
C77   C110  A    
C124  C142  A    
Br1   C34   S    
O40   Zn4   S    
C125  C143  A    
C160  O5    A    
C187  O37   A    
Br31  C159  S    
C149  O6    A    
C188  O42   A    
C66   C80   A    
C61   C182  A    
C185  O30   A    
O32   Zn2   S    
Br36  C164  S    
C164  C177  A    
C44   C58   A    
C15   C23   T    
C136  C150  A    
C26   C33   T    
O17   Zn5   S    
O23   Zn6   S    
C20   C29   S    
O48   Zn8   S    
C36   C66   A    
C22   C31   S    
C127  O34   A    
C91   C114  S    
C138  O48   A    
C171  O8    A    
Br42  C170  S    
O22   Zn8   S    
Br13  C24   S    
Br39  C167  S    
C139  C152  A    
C87   N1    T    
C93   N13   T    
C105  C174  S    
C89   C113  S    
Br32  C161  S    
O4    Zn11  S    
C100  N5    T    
Br26  C110  S    
C38   C69   A    
C132  C150  A    
C47   C60   A    
O3    Zn10  S    
C10   C19   T    
Br24  C108  S    
C62   C80   A    
O44   Zn1   S    
C131  C157  A    
C159  C175  A    
C75   C84   A    
C115  C133  A    
C74   C107  A    
Br43  C172  S    
C9    C18   T    
Br15  C46   S    
C89   N10   T    
Br46  C41   S    
C51   C60   A    
C14   C22   T    
C72   C101  A    
Br27  C155  S    
C34   C67   A    
C167  C180  A    
Br18  C79   S    
C185  O32   A    
C181  O27   A    
C84   C152  A    
C135  C146  A    
Br29  C157  S    
C57   C118  A    
C133  C148  A    
C4    C12   S    
C1    O1    A    
C158  C176  A    
C16   C25   T    
C165  C178  A    
C171  C180  S    
C113  C131  A    
C114  C132  A    
O18   Zn8   S    
C109  C126  A    
O47   Zn5   S    
C149  C178  S    
C103  C126  S    
C95   N15   T    
C90   C121  A    
C50   C70   A    
Br22  C107  S    
C105  O12   A    
C143  C152  A    
C140  C166  A    
C42   C64   A    
C4    O18   A    
C127  O47   A    
C17   C26   S    
C191  O10   A    
Br9   C182  S    
C49   C71   A    
C94   C118  S    
Br33  C162  S    
C119  C136  A    
Br40  C168  S    
O35   Zn2   S    
Br3   C45   S    
C137  C151  A    
C166  C179  A    
C95   C119  S    
C9    C191  S    
O36   Zn3   S    
Br16  C57   S    
Br47  C42   S    
C70   C79   A    
O31   Zn2   S    
C136  C163  A    
C102  N6    T    
C58   C186  S    
C1    C173  S    
C71   C90   A    
C57   C67   A    
C149  O2    A    
Br11  C13   S    
Br41  C169  S    
C141  C154  A    
C93   C117  S    
C94   N14   T    
C37   C65   A    
C138  C177  S    
C12   C21   T    
C97   N2    T    
C88   C112  S    
C105  O45   A    
C61   C78   A    
C102  C125  S    
O25   Zn10  S    
C122  C140  A    
C24   C114  A    
C134  C147  A    
C64   C82   A    
O1    Zn1   S    
C37   C54   A    
C126  C144  A    
C77   C86   A    
O39   Zn3   S    
C60   C188  S    
C35   C65   A    
C92   N12   T    
C80   C147  A    
C4    O20   A    
O7    Zn10  S    
C29   C30   T    
C135  C162  A    
C5    O21   A    
C96   N16   T    
C67   C78   A    
C117  C134  A    
C3    O15   A    
C103  N7    T    
C39   C63   A    
C172  C180  A    
C141  C167  A    
C107  C124  A    
C63   C81   A    
C79   C120  A    
C129  C155  A    
C116  O23   A    
C186  O36   A    
C73   C86   A    
Br44  C39   S    
C183  O35   A    
O12   Zn5   S    
C40   C62   A    
C6    O25   A    
C7    O24   A    
C160  O3    A    
C52   C185  S    
Br37  C165  S    
C189  O41   A    
C131  C148  A    
C56   C189  S    
C97   C121  S    
C129  C146  A    
C3    O17   A    
C41   C52   A    
Br45  C40   S    
C45   C74   A    
C184  O33   A    
O38   Zn3   S    
O33   Zn2   S    
C145  C154  A    
O15   Zn7   S    
O8    Zn9   S    
Br4   C47   S    
C78   C146  A    
O29   Zn12  S    
C76   C109  A    
C49   C58   A    
C48   C59   A    
C54   C183  S    
C88   N9    T    
O20   Zn10  S    
Br10  C2    S    
Br5   C48   S    
C35   C115  A    
C156  C174  A    
O6    Zn11  S    
C118  C135  A    
O21   Zn11  S    
C138  O7    A    
C2    C112  A    
C116  C175  S    
C99   N4    T    
C18   C27   S    
C157  C175  A    
O26   Zn9   S    
O16   Zn6   S    
C42   C55   A    
C104  N8    T    
C53   C181  S    
C142  C168  A    
O42   Zn4   S    
Br7   C50   S    
C130  C156  A    
O5    Zn8   S    
C144  C170  A    
C43   C56   A    
C40   C53   A    
C46   C66   A    
O2    Zn9   S    
C155  C173  A    
C65   C81   A    
C96   C120  S    
C13   C113  A    
C190  O11   A    
O24   Zn11  S    
O43   Zn4   S    
C8    C17   T    
Br30  C158  S    
C41   C61   A    
C140  C153  A    
C68   C69   A    
C123  C141  A    
Br34  C38   S    
C144  C151  A    
C192  O14   A    
Br35  C163  S    
C98   N3    T    
C106  C123  A    
C7    O26   A    
Br21  C106  S    
C68   C119  A    
C27   C32   T    
C170  C177  A    
C162  C173  A    
C36   C53   A    
C21   C30   S    
C111  C129  A    
C132  C158  A    
C38   C55   A    
C23   C32   S    
C99   C123  S    
C86   C154  A    
O28   Zn12  S    
C168  C179  A    
C101  C122  A    
Br28  C156  S    
C111  C182  A    
C183  O28   A    
O9    Zn1   S    
C134  C161  A    
C76   C83   A    
C186  O40   A    
C83   C151  A    
C74   C85   A    
C11   C20   T    
C39   C54   A    
C5    C14   S    
C47   C77   A    
C127  C176  S    
C112  C130  A    
C7    C16   S    
O46   Zn6   S    
C71   C84   A    
C137  C164  A    
C187  O43   A    
Br2   C44   S    
C69   C82   A    
C181  O31   A    
O11   Zn6   S    
C110  C128  A    
C43   C76   A    
C98   C122  S    
Br25  C109  S    
C128  C145  A    
C3    C11   S    
C13   C63   A    
C55   C184  S    
C59   C187  S    
C120  C137  A    
C34   C52   A    
C48   C72   A    
C190  O9    A    
C91   N11   T    
C142  C153  A    
C171  O4    A    
C130  C147  A    
C192  O16   A    
C45   C59   A    
Br19  C90   S    
C50   C56   A    
C100  C124  S    
C116  O44   A    
C104  C128  S    
C5    O19   A    
O45   Zn7   S    
Br23  C37   S    
C19   C28   S    
C82   C150  A    
Br17  C68   S    
C81   C148  A    
O13   Zn7   S    
