data_mof_unit_50119.cif
_audit_creation_date              2012-12-11T16:31:35-0500
_audit_creation_method            fapswitch 2.2
_symmetry_space_group_name_H-M    P1
_symmetry_Int_Tables_number       1
_space_group_crystal_system       triclinic
_cell_length_a                    6.946526
_cell_length_b                    18.28026
_cell_length_c                    20.169522
_cell_angle_alpha                 68.30256
_cell_angle_beta                  90.618386
_cell_angle_gamma                 90.786391
_cell_volume                      2379.47919525

loop_
_atom_site_label
_atom_site_type_symbol
_atom_type_description
_atom_site_fract_x
_atom_site_fract_y
_atom_site_fract_z
_atom_type_partial_charge
O1    O     O_R   0.488990 0.443920 0.942160 -0.540679
O2    O     O_R   0.823840 0.406530 0.087600 -0.530333
O3    O     O_R   0.999650 0.556080 0.057840 -0.524612
C1    C     C_R   0.655187 0.384072 0.115427 0.816212
O4    O     O_R   0.818390 0.434590 0.944530 -0.540924
O5    O     O_R   0.994160 0.584350 0.913750 -0.538690
C2    C     C_R   0.648758 0.420514 0.924075 0.701647
O6    O     O_R   0.494480 0.415650 0.086250 -0.536057
O7    O     O_3   0.662600 0.549100 0.990070 -0.364360
V1    V     V_3+5 0.935320 0.490890 0.001840 1.461083
O8    O     O_R   0.324240 0.593470 0.912400 -0.542336
C3    C     C_R   0.155308 0.616485 0.884955 0.683463
O9    O     O_R   0.329690 0.565410 0.055470 -0.532046
C4    C     C_R   0.162078 0.579533 0.075954 0.741373
V2    V     V_3+5 0.435990 0.509110 0.998160 1.456414
O10   O     O_3   0.158840 0.450900 0.009930 -0.372300
C5    C     C_3   0.980957 0.675911 0.264280 -0.331658
C6    C     C_3   0.335493 0.705112 0.247213 -0.326461
C7    C     C_3   0.326542 0.752968 0.296905 -0.331614
H1    H     H_    0.995572 0.683701 0.370237 0.138336
H2    H     H_    0.009032 0.612971 0.296942 0.136720
H3    H     H_    0.453416 0.729029 0.207894 0.134383
H4    H     H_    0.370831 0.642767 0.279497 0.139927
H5    H     H_    0.357533 0.713403 0.352856 0.137894
H6    H     H_    0.440225 0.799645 0.281231 0.132847
C8    C     C_1   0.110829 0.874540 0.378493 -0.179303
C9    C     C_3   0.140996 0.708898 0.207489 0.293846
C10   C     C_3   0.971932 0.723828 0.313922 -0.325523
C11   C     C_3   0.125732 0.790796 0.292492 0.289599
C12   C     C_3   0.088184 0.844622 0.213602 -0.323202
C13   C     C_3   0.096955 0.796735 0.163924 -0.331668
C14   C     C_1   0.117297 0.836737 0.340020 -0.105010
C15   C     C_1   0.149367 0.662992 0.159940 -0.104639
C16   C     C_1   0.155636 0.625247 0.121419 -0.179671
H7    H     H_    0.957188 0.801574 0.135186 0.135538
H8    H     H_    0.210046 0.822429 0.122916 0.136991
H9    H     H_    0.944303 0.872318 0.208454 0.138409
H10   H     H_    0.838971 0.678341 0.237471 0.133384
H11   H     H_    0.825715 0.749145 0.310651 0.137094
H12   H     H_    0.197233 0.893079 0.196293 0.135083
H13   H     H_    0.423399 0.545533 0.693055 0.134954
C17   C     C_R   0.994901 0.765549 0.875793 -0.131486
C18   C     C_R   0.915099 0.836123 0.873074 -0.129541
C19   C     C_R   0.902108 0.899457 0.808509 -0.119147
C20   C     C_R   0.968940 0.892708 0.746169 -0.135621
C21   C     C_R   0.049062 0.821517 0.747032 0.063543
C22   C     C_R   0.062202 0.756550 0.813246 0.069985
C23   C     C_R   0.119320 0.814966 0.683669 -0.182697
C24   C     C_R   0.202472 0.743354 0.686573 0.070225
C25   C     C_R   0.215560 0.678379 0.752782 0.062998
C26   C     C_R   0.145338 0.684934 0.816149 -0.182527
C27   C     C_R   0.269864 0.734374 0.624031 -0.132555
C28   C     C_R   0.349653 0.663799 0.626745 -0.129735
C29   C     C_R   0.362516 0.600444 0.691299 -0.111587
C30   C     C_R   0.295618 0.607179 0.753636 -0.137518
H14   H     H_    0.004698 0.718613 0.927593 0.100393
H15   H     H_    0.864337 0.841853 0.921471 0.107957
H16   H     H_    0.841192 0.954367 0.806747 0.117036
H17   H     H_    0.958230 0.944192 0.697612 0.116729
H18   H     H_    0.260159 0.781327 0.572237 0.100694
H19   H     H_    0.400497 0.658084 0.578353 0.110953
H20   H     H_    0.306231 0.555677 0.802181 0.117661
H21   H     H_    0.776033 0.466449 0.323869 0.101093
C31   C     C_R   0.571866 0.229502 0.118979 -0.141362
C32   C     C_R   0.530964 0.155897 0.117025 -0.160921
C33   C     C_R   0.520322 0.090545 0.179732 -0.194548
C34   C     C_R   0.550291 0.097398 0.246288 0.339954
C35   C     C_R   0.590541 0.173158 0.249662 0.043486
C36   C     C_R   0.602140 0.240039 0.184416 -0.004212
C37   C     C_R   0.620880 0.183966 0.315572 -0.172021
C38   C     C_R   0.663404 0.260165 0.315826 -0.004510
C39   C     C_R   0.675055 0.327045 0.250575 0.043517
C40   C     C_R   0.644718 0.316232 0.184671 -0.171967
C41   C     C_R   0.693513 0.270716 0.381261 -0.141109
C42   C     C_R   0.734273 0.344337 0.383211 -0.158235
C43   C     C_R   0.745022 0.409684 0.320498 -0.194107
C44   C     C_R   0.715299 0.402809 0.253940 0.339869
H22   H     H_    0.508170 0.149434 0.066265 0.122847
H23   H     H_    0.489209 0.033791 0.176357 0.099795
H24   H     H_    0.756893 0.350815 0.433972 0.124367
O11   O     O_R   0.770890 0.084490 0.414040 -0.536030
O12   O     O_R   0.445980 0.065450 0.555510 -0.539998
O13   O     O_R   0.270670 0.915620 0.586180 -0.538833
C45   C     C_R   0.615415 0.079571 0.576107 0.701857
O14   O     O_R   0.441480 0.093500 0.412450 -0.530218
O15   O     O_R   0.266140 0.943870 0.442100 -0.524823
C46   C     C_R   0.610259 0.116104 0.384805 0.815348
O16   O     O_R   0.775410 0.056240 0.558120 -0.541088
O17   O     O_3   0.602660 0.950990 0.510100 -0.364745
V3    V     V_3+5 0.329740 0.009100 0.498130 1.463523
O18   O     O_R   0.936120 0.934420 0.444240 -0.532762
C47   C     C_R   0.103937 0.920324 0.423897 0.740169
O19   O     O_R   0.940610 0.906370 0.587310 -0.542269
C48   C     C_R   0.109470 0.883429 0.614872 0.683384
V4    V     V_3+5 0.829110 0.990690 0.501470 1.458221
O20   O     O_3   0.106080 0.049010 0.489880 -0.371725
C49   C     C_3   0.841213 0.233912 0.719821 0.225654
C50   C     C_3   0.513571 0.285778 0.673009 -0.450475
C51   C     C_3   0.516835 0.334934 0.722176 0.231025
H25   H     H_    0.899272 0.273605 0.667448 0.114961
H26   H     H_    0.574887 0.321975 0.620065 0.117396
H27   H     H_    0.591702 0.391832 0.692796 0.108129
C52   C     C_1   0.638530 0.374905 0.878658 -0.183289
C53   C     C_3   0.631729 0.209243 0.707249 0.187924
C54   C     C_3   0.841102 0.281044 0.770704 -0.468612
C55   C     C_3   0.632530 0.291482 0.792390 0.192145
C56   C     C_3   0.546171 0.207705 0.831016 -0.363172
C57   C     C_3   0.537226 0.161198 0.780194 -0.354830
C58   C     C_1   0.634170 0.337221 0.840101 -0.018190
C59   C     C_1   0.629646 0.163140 0.659850 -0.012956
C60   C     C_1   0.625252 0.125277 0.621446 -0.178982
H28   H     H_    0.608657 0.103365 0.805808 0.141984
H29   H     H_    0.384067 0.148125 0.771588 0.183642
H30   H     H_    0.636609 0.174995 0.878350 0.143854
H31   H     H_    0.929454 0.250855 0.819325 0.166471
H32   H     H_    0.399989 0.210937 0.851588 0.151024
H33   H     H_    0.579666 0.278081 0.068130 0.092526
O21   O     O_3   0.542054 0.030425 0.307606 -0.654353
H34   H     H_    0.512113 0.983764 0.295250 0.274253
H35   H     H_    0.685647 0.222137 0.432110 0.093085
O22   O     O_3   0.723802 0.469762 0.192610 -0.654154
H36   H     H_    0.753667 0.516431 0.204965 0.274617
H37   H     H_    0.908913 0.339912 0.743088 0.149010
H38   H     H_    0.363046 0.270693 0.662935 0.189092
O23   O     O_3   0.329620 0.353583 0.736278 -0.650270
H39   H     H_    0.254926 0.303763 0.756264 0.305837
O24   O     O_3   0.964700 0.168760 0.745102 -0.655089
H40   H     H_    0.929103 0.136868 0.795045 0.289922

loop_
_geom_bond_atom_site_label_1
_geom_bond_atom_site_label_2
_ccdc_geom_bond_type
C8    C14   T    
O19   C48   A    
V4    O20   S    
C49   O24   S    
C3    C26   S    
C51   O23   S    
C20   C21   A    
C9    C15   S    
C50   H38   S    
C33   H23   S    
C39   C44   A    
C23   C48   S    
C10   C11   S    
C11   C14   S    
O5    C3    A    
C12   C13   S    
O11   V4    S    
H21   C43   S    
C8    C47   S    
V2    O10   S    
C30   H20   S    
C54   H37   S    
C6    C7    S    
C21   C22   A    
C51   C55   S    
O21   H34   S    
C27   H18   S    
C17   H14   S    
C59   C60   T    
C28   H19   S    
C19   H16   S    
C35   C36   A    
C56   C57   S    
C36   C40   A    
C37   C38   A    
O1    V2    S    
C42   H24   S    
C1    O6    A    
C5    H10   S    
C49   C54   S    
C33   C34   A    
O16   V4    S    
O19   V4    S    
C2    C52   S    
O9    C4    A    
O8    V2    S    
C34   C35   A    
C37   C46   S    
C15   C16   T    
O14   C46   A    
C56   H32   S    
C21   C23   A    
C45   C60   S    
C41   C42   A    
C9    C13   S    
C6    H4    S    
C5    C9    S    
C43   C44   A    
O15   V3    S    
O18   C47   A    
O4    C2    A    
C22   C26   A    
H1    C10   S    
C10   H11   S    
C28   C29   A    
O13   C48   A    
C5    H2    S    
C31   H33   S    
C57   H28   S    
C12   H9    S    
C57   H29   S    
O17   V4    S    
O2    C1    A    
C42   C43   A    
C56   H30   S    
O5    V1    S    
C11   C12   S    
O8    C3    A    
C24   C27   A    
C25   C26   A    
O22   H36   S    
C12   H12   S    
C31   C36   A    
C1    C40   S    
O11   C46   A    
O3    C4    A    
C23   C24   A    
C24   C25   A    
O6    V2    S    
O12   C45   A    
O9    V2    S    
C18   C19   A    
O23   H39   S    
C13   H7    S    
C17   C18   A    
O24   H40   S    
O2    V1    S    
C53   C57   S    
C49   H25   S    
C19   C20   A    
O7    V1    S    
O13   V3    S    
C29   C30   A    
C20   H17   S    
C32   H22   S    
O1    C2    A    
C5    C10   S    
C54   H31   S    
C6    C9    S    
C45   O16   A    
C39   C40   A    
C4    C16   S    
C38   C41   A    
O14   V3    S    
V3    O20   S    
C50   H26   S    
C41   H35   S    
C54   C55   S    
C25   C30   A    
O12   V3    S    
C52   C58   T    
C31   C32   A    
C6    H3    S    
C7    H5    S    
O7    V2    S    
C38   C39   A    
O3    V1    S    
O15   C47   A    
C53   C59   S    
C50   C53   S    
C17   C22   A    
C32   C33   A    
C7    H6    S    
C34   O21   S    
H13   C29   S    
C49   C53   S    
C44   O22   S    
C18   H15   S    
O18   V4    S    
O4    V1    S    
C51   H27   S    
C35   C37   A    
C50   C51   S    
C55   C56   S    
C13   H8    S    
V1    O10   S    
O17   V3    S    
C27   C28   A    
C55   C58   S    
C7    C11   S    
