data_mof_unit_25193.cif
_audit_creation_date              2012-12-11T15:48:45-0500
_audit_creation_method            fapswitch 2.2
_symmetry_space_group_name_H-M    P1
_symmetry_Int_Tables_number       1
_space_group_crystal_system       triclinic
_cell_length_a                    10.963001
_cell_length_b                    10.912512
_cell_length_c                    18.785517
_cell_angle_alpha                 90.738422
_cell_angle_beta                  90.639867
_cell_angle_gamma                 60.558116
_cell_volume                      1956.95253898

loop_
_atom_site_label
_atom_site_type_symbol
_atom_type_description
_atom_site_fract_x
_atom_site_fract_y
_atom_site_fract_z
_atom_type_partial_charge
C1    C     C_R   0.242867 0.644421 0.611258 0.544723
C2    C     C_R   0.577429 0.143263 0.709779 -0.183948
C3    C     C_R   0.574087 0.150250 0.782887 -0.176353
C4    C     C_R   0.655734 0.624027 0.599585 0.536563
C5    C     C_3   0.937008 0.083928 0.786227 -0.255342
C6    C     C_3   0.931492 0.093136 0.705765 -0.281747
C7    C     C_R   0.674397 0.164397 0.672261 0.014498
C8    C     C_R   0.188322 0.665625 0.837056 0.024858
C9    C     C_R   0.159868 0.575788 0.795228 -0.013687
C10   C     C_R   0.167346 0.574063 0.721535 -0.015117
C11   C     C_R   0.230441 0.756096 0.728078 -0.159126
C12   C     C_3   0.645401 0.573748 0.798411 -0.256569
C13   C     C_R   0.229191 0.754881 0.802669 0.105293
C14   C     C_3   0.230224 0.419491 0.798403 -0.282995
C15   C     C_3   0.235234 0.418155 0.717853 -0.265082
C16   C     C_R   0.630177 0.225783 0.601901 0.537251
C17   C     C_R   0.203822 0.662915 0.686519 -0.019103
C18   C     C_R   0.669078 0.681440 0.173047 0.011176
C19   C     C_R   0.774564 0.569310 0.209876 0.026645
C20   C     C_R   0.774609 0.560697 0.282148 0.024919
C21   C     C_R   0.565334 0.786831 0.287840 -0.169799
C22   C     C_R   0.568322 0.796544 0.213121 -0.165844
C23   C     C_3   0.703413 0.674976 0.810620 0.049529
C24   C     C_3   0.834047 0.415485 0.198001 -0.284389
C25   C     C_3   0.833035 0.404562 0.278060 -0.267533
C26   C     C_R   0.664528 0.662979 0.322305 0.017257
C27   C     C_R   0.662885 0.138382 0.179727 0.019884
C28   C     C_R   0.218859 0.650709 0.401921 0.542838
C29   C     C_R   0.552487 0.140001 0.215809 0.049325
C30   C     C_R   0.546874 0.146035 0.288627 -0.004095
C31   C     C_R   0.774667 0.129084 0.293490 -0.169069
C32   C     C_R   0.778087 0.125477 0.219349 -0.172725
C33   C     C_3   0.397439 0.230453 0.207079 0.004555
C34   C     C_3   0.674151 0.648991 0.674584 0.062466
C35   C     C_3   0.389672 0.235732 0.287813 -0.215013
C36   C     C_R   0.651713 0.155232 0.328065 0.013256
C37   C     C_R   0.048592 0.730460 0.195217 0.014054
C38   C     C_R   0.065504 0.831572 0.233423 0.025267
C39   C     C_R   0.103564 0.812413 0.303722 0.027769
C40   C     C_R   0.642822 0.623949 0.392909 0.541329
C41   C     C_R   0.092964 0.596691 0.304466 -0.155278
C42   C     C_R   0.052064 0.617521 0.232452 -0.131736
C43   C     C_3   0.157046 0.894651 0.217851 -0.271075
C44   C     C_3   0.196369 0.876380 0.295342 -0.269799
C45   C     C_3   0.829241 0.602460 0.691672 -0.242950
C46   C     C_R   0.131038 0.688645 0.338464 0.009721
C47   C     C_R   0.702172 0.099925 0.895318 0.542454
C48   C     C_R   0.725381 0.688970 0.887363 0.536537
C49   C     C_R   0.120054 0.705346 0.906470 0.549138
C50   C     C_R   0.677229 0.103835 0.105092 0.540172
C51   C     C_R   0.698030 0.692262 0.098750 0.536215
C52   C     C_R   0.617275 0.226075 0.396152 0.541588
C53   C     C_R   0.026849 0.747456 0.118735 0.565064
C54   C     C_3   0.604008 0.820463 0.776401 -0.230183
C55   C     C_3   0.583337 0.804760 0.696548 -0.245633
C56   C     C_3   0.628302 0.558318 0.718342 -0.210062
C57   C     C_3   0.846245 0.615897 0.771965 -0.218272
C58   C     C_3   0.337002 0.813255 0.906180 -0.261545
C59   C     C_3   0.419253 0.449812 0.191048 -0.277315
C60   C     C_R   0.682839 0.152815 0.822500 0.011722
C61   C     C_R   0.782173 0.171237 0.785161 -0.011881
C62   C     C_R   0.775793 0.181044 0.710945 0.011782
Cr1   Cr    Cr6+3 0.392960 0.397920 0.502240 0.999403
Cr2   Cr    Cr6+3 0.398340 0.708480 0.501250 0.998935
Cr3   Cr    Cr6+3 0.708670 0.393570 0.496460 1.001397
Cr4   Cr    Cr6+3 0.937650 0.938540 0.007610 0.994605
Cr5   Cr    Cr6+3 0.625330 0.937370 0.994520 0.979031
Cr6   Cr    Cr6+3 0.937940 0.625230 0.001190 0.997992
H1    H     H_    0.653095 0.887395 0.783390 0.143027
H2    H     H_    0.964762 0.990431 0.678612 0.143968
H3    H     H_    0.259846 0.826227 0.702748 0.131939
H4    H     H_    0.500449 0.875037 0.802300 0.121401
H5    H     H_    0.161291 0.380953 0.819750 0.133531
H6    H     H_    0.334035 0.375705 0.824852 0.141450
H7    H     H_    0.342007 0.372366 0.696161 0.179057
H8    H     H_    0.166905 0.381639 0.692087 0.124422
H9    H     H_    0.482117 0.871718 0.317681 0.123377
H10   H     H_    0.491664 0.891829 0.187064 0.128694
H11   H     H_    0.941406 0.365304 0.175492 0.139250
H12   H     H_    0.693186 0.446240 0.703099 0.145340
H13   H     H_    0.759634 0.389355 0.170177 0.131129
H14   H     H_    0.755571 0.375096 0.296680 0.167670
H15   H     H_    0.470602 0.841940 0.685832 0.130799
H16   H     H_    0.939523 0.345389 0.301972 0.130245
H17   H     H_    0.860887 0.128060 0.322731 0.130393
H18   H     H_    0.868594 0.117012 0.192870 0.137567
H19   H     H_    0.347017 0.172952 0.182645 0.116917
H20   H     H_    0.350891 0.341955 0.311319 0.178071
H21   H     H_    0.337969 0.178242 0.309123 0.094281
H22   H     H_    0.107088 0.503016 0.330918 0.122715
H23   H     H_    0.922180 0.510476 0.792950 0.139597
H24   H     H_    0.035945 0.539219 0.204704 0.151642
H25   H     H_    0.098979 0.006724 0.202126 0.124194
H26   H     H_    0.613711 0.871267 0.665229 0.113270
H27   H     H_    0.247282 0.826924 0.182954 0.147918
H28   H     H_    0.308839 0.799495 0.303814 0.160572
H29   H     H_    0.156597 0.977729 0.324874 0.130062
H30   H     H_    0.888850 0.688381 0.781586 0.129500
H31   H     H_    0.862744 0.668718 0.662236 0.117057
H32   H     H_    0.717961 0.468961 0.821502 0.126504
H33   H     H_    0.542895 0.613604 0.824833 0.128285
H34   H     H_    0.899199 0.491112 0.675303 0.136565
H35   H     H_    0.517612 0.588517 0.706229 0.129562
H36   H     H_    0.260584 0.931090 0.811833 0.227355
H37   H     H_    0.429303 0.825150 0.900292 0.143955
H38   H     H_    0.372154 0.702422 0.920721 0.134874
H39   H     H_    0.275618 0.884871 0.950353 0.169183
H40   H     H_    0.327263 0.369096 0.120755 0.267403
H41   H     H_    0.346853 0.561593 0.178149 0.152535
H42   H     H_    0.514365 0.414304 0.158196 0.127954
H43   H     H_    0.447628 0.444133 0.248192 0.149407
H44   H     H_    0.496086 0.131272 0.682657 0.130478
H45   H     H_    0.492640 0.136900 0.807586 0.139963
H46   H     H_    0.970818 0.976600 0.805965 0.185612
H47   H     H_    0.988148 0.139510 0.811888 0.137356
H48   H     H_    0.980083 0.153813 0.684768 0.132496
N1    N     N_2   0.254797 0.854595 0.840913 -0.516925
N2    N     N_2   0.351388 0.367179 0.174078 -0.510602
O1    O     O_R   0.507380 0.255700 0.581440 -0.535905
O2    O     O_R   0.837170 0.593410 0.915250 -0.523684
O3    O     O_R   0.065200 0.635530 0.931570 -0.503924
O4    O     O_R   0.280320 0.527350 0.578930 -0.500038
O5    O     O_R   0.068260 0.828890 0.091840 -0.532965
O6    O     O_R   0.798870 0.057410 0.079340 -0.526144
O7    O     O_R   0.584930 0.080350 0.076780 -0.518447
O8    O     O_R   0.626960 0.809650 0.067060 -0.511480
O9    O     O_R   0.816040 0.596610 0.076510 -0.524398
O10   O     O_R   0.045610 0.638500 0.081060 -0.508122
O11   O     O_3   0.833640 0.833710 0.001100 -0.265285
O12   O     O_R   0.524480 0.695810 0.424040 -0.510359
O13   O     O_R   0.260510 0.739590 0.584590 -0.532487
O14   O     O_R   0.532300 0.695080 0.573820 -0.511460
O15   O     O_R   0.744840 0.503500 0.576370 -0.527933
O16   O     O_R   0.699120 0.276560 0.571960 -0.498629
O17   O     O_R   0.498940 0.256500 0.419860 -0.527306
O18   O     O_R   0.272500 0.528080 0.429150 -0.512261
O19   O     O_R   0.252060 0.740380 0.423010 -0.520016
O20   O     O_R   0.736390 0.504290 0.414790 -0.521588
O21   O     O_R   0.691300 0.277290 0.422170 -0.512410
O22   O     O_3   0.499990 0.499990 0.499980 -0.246561
O23   O     O_R   0.089400 0.825690 0.930570 -0.499336
O24   O     O_R   0.818460 0.054440 0.929850 -0.497524
O25   O     O_R   0.606060 0.077150 0.915510 -0.535012
O26   O     O_R   0.646550 0.806680 0.917570 -0.523689

loop_
_geom_bond_atom_site_label_1
_geom_bond_atom_site_label_2
_ccdc_geom_bond_type
C15   H7    S    
C21   C26   A    
C34   C56   S    
C8    C13   A    
C31   H17   S    
C29   C33   S    
C5    H46   S    
C27   C29   A    
Cr1   O22   S    
C2    C7    A    
C24   H13   S    
C16   O16   A    
C52   O21   A    
C48   O2    A    
Cr4   O23   S    
C45   H31   S    
C12   C23   S    
C45   C57   S    
C29   C30   A    
C30   C35   S    
C14   H6    S    
C18   C19   A    
C10   C15   S    
Cr5   O7    S    
C38   C39   A    
C11   H3    S    
C20   C25   S    
C10   C17   A    
C47   O25   A    
C59   H42   S    
C48   O26   A    
C23   C57   S    
C58   H39   S    
C41   C42   A    
C37   C42   A    
C1    O4    A    
C43   H25   S    
C47   C60   S    
Cr3   O22   S    
Cr2   O14   S    
C8    C9    A    
C40   O20   A    
C25   H16   S    
C59   H43   S    
C41   C46   A    
C9    C10   A    
Cr6   O10   S    
C31   C36   A    
Cr3   O16   S    
C36   C52   S    
C27   C50   S    
Cr4   O11   S    
C37   C53   S    
C3    C60   A    
C61   C62   A    
C41   H22   S    
Cr5   O25   S    
C34   C55   S    
C18   C22   A    
C21   C22   A    
C5    H47   S    
Cr5   O11   S    
C55   H26   S    
Cr5   O26   S    
C18   C51   S    
Cr2   O19   S    
C49   O3    A    
C4    C34   S    
C14   H5    S    
H40   N2    S    
C50   O6    A    
C24   C25   S    
C22   H10   S    
C35   H20   S    
C4    O14   A    
C53   O5    A    
Cr5   O8    S    
C50   O7    A    
C9    C14   S    
C2    H44   S    
C58   N1    S    
C38   C43   S    
C59   H41   S    
C49   O23   A    
C60   C61   A    
C58   H38   S    
Cr1   O17   S    
C43   C44   S    
C7    C62   A    
C37   C38   A    
C44   H28   S    
C53   O10   A    
Cr1   O1    S    
C44   H29   S    
C24   H11   S    
C43   H27   S    
C31   C32   A    
C47   O24   A    
Cr2   O13   S    
C32   H18   S    
C5    C61   S    
C34   C45   S    
Cr6   O9    S    
C6    H48   S    
C12   C56   S    
C39   C46   A    
Cr3   O20   S    
C35   H21   S    
C7    C16   S    
Cr2   O12   S    
C59   N2    S    
C3    H45   S    
C25   H14   S    
Cr4   O6    S    
C16   O1    A    
C55   H15   S    
Cr1   O4    S    
C23   C54   S    
H36   N1    S    
Cr2   O22   S    
C6    H2    S    
C40   O12   A    
C54   C55   S    
C11   C17   A    
C23   C48   S    
C57   H23   S    
C27   C32   A    
C28   O18   A    
C51   O8    A    
C28   O19   A    
C56   H35   S    
C1    O13   A    
Cr6   O3    S    
C13   N1    S    
C39   C44   S    
Cr4   O24   S    
C1    C17   S    
C56   H12   S    
C30   C36   A    
C28   C46   S    
C58   H37   S    
C51   O9    A    
Cr1   O18   S    
C6    C62   S    
C19   C20   A    
C19   C24   S    
C33   H19   S    
C12   H33   S    
Cr6   O2    S    
C11   C13   A    
C26   C40   S    
C5    C6    S    
C54   H1    S    
C20   C26   A    
C57   H30   S    
C33   C35   S    
C2    C3    A    
C42   H24   S    
Cr6   O11   S    
Cr3   O21   S    
C12   H32   S    
C45   H34   S    
Cr4   O5    S    
C33   N2    S    
C54   H4    S    
C21   H9    S    
C52   O17   A    
C14   C15   S    
C15   H8    S    
C8    C49   S    
Cr3   O15   S    
C4    O15   A    
