data_mof_unit_65772.cif
_audit_creation_date              2013-03-05T15:42:25-0500
_audit_creation_method            fapswitch 2.2
_symmetry_space_group_name_H-M    P1
_symmetry_Int_Tables_number       1
_space_group_crystal_system       triclinic
_cell_length_a                    6.949047
_cell_length_b                    17.463667
_cell_length_c                    18.870998
_cell_angle_alpha                 105.324323
_cell_angle_beta                  89.690393
_cell_angle_gamma                 90.454376
_cell_volume                      2208.59942601

loop_
_atom_site_label
_atom_site_type_symbol
_atom_site_description
_atom_site_fract_x
_atom_site_fract_y
_atom_site_fract_z
_atom_type_partial_charge
O1    O     O_R   0.494360 0.416740 0.414860 -0.557096
O2    O     O_R   0.818980 0.432970 0.557290 -0.525053
O3    O     O_R   0.994290 0.583260 0.585140 -0.517339
C1    C     C_R   0.649980 0.415967 0.580644 0.864823
O4    O     O_R   0.823740 0.407570 0.413690 -0.533260
O5    O     O_R   0.999090 0.557670 0.440510 -0.549669
C2    C     C_R   0.654609 0.384883 0.386817 0.886821
O6    O     O_R   0.489560 0.442330 0.559490 -0.536963
O7    O     O_3   0.662450 0.549280 0.508970 -0.266377
V1    V     V_3+5 0.935350 0.490860 0.498340 1.203148
O8    O     O_R   0.329100 0.567030 0.442710 -0.547450
C3    C     C_R   0.160968 0.584025 0.419348 0.801135
O9    O     O_R   0.324330 0.592430 0.586310 -0.565628
C4    C     C_R   0.154885 0.613117 0.614865 0.774622
V2    V     V_3+5 0.435960 0.509140 0.501660 1.166561
O10   O     O_3   0.158990 0.450720 0.491030 -0.247000
C5    C     C_2   0.275921 0.787153 0.785495 -0.041106
C6    C     C_2   0.112927 0.823014 0.815973 -0.167147
H1    H     H_    0.413313 0.807036 0.811287 0.115732
H2    H     H_    0.976490 0.807555 0.788065 0.119213
C7    C     C_2   0.281336 0.724870 0.713951 -0.139063
C8    C     C_2   0.139536 0.671123 0.688206 0.194216
H3    H     H_    0.410620 0.723596 0.681059 0.104086
C9    C     C_1   0.110663 0.863905 0.132634 -0.147879
C10   C     C_1   0.118245 0.821313 0.176176 0.011513
C11   C     C_1   0.127787 0.771069 0.228038 0.023925
C12   C     C_1   0.135949 0.728766 0.271819 0.018561
C13   C     C_1   0.145494 0.678544 0.323699 -0.005157
C14   C     C_1   0.153077 0.635985 0.367269 -0.170284
C15   C     C_1   0.641323 0.364066 0.632704 -0.124186
C16   C     C_1   0.636954 0.321507 0.676300 0.022194
C17   C     C_1   0.633281 0.271300 0.728216 0.029393
C18   C     C_1   0.630498 0.228998 0.772045 0.021431
C19   C     C_1   0.626815 0.178761 0.823936 -0.004124
C20   C     C_1   0.622430 0.136151 0.867486 -0.171698
C21   C     C_2   0.773188 0.221654 0.211646 -0.028814
C22   C     C_2   0.616827 0.176367 0.184766 -0.253611
H4    H     H_    0.490560 0.180092 0.219789 0.104927
C23   C     C_2   0.774443 0.266290 0.290987 0.322342
C24   C     C_2   0.642967 0.324036 0.315680 -0.260792
H5    H     H_    0.528959 0.331506 0.278861 0.036330
O11   O     O_R   0.774180 0.057760 0.940580 -0.541605
O12   O     O_R   0.439830 0.092440 0.086330 -0.560599
O13   O     O_R   0.264640 0.942310 0.059470 -0.533086
C25   C     C_R   0.609055 0.115288 0.113325 0.838802
O14   O     O_R   0.444740 0.067040 0.942730 -0.543707
O15   O     O_R   0.269590 0.916730 0.914840 -0.558662
C26   C     C_R   0.613759 0.084157 0.919466 0.808136
O16   O     O_R   0.769230 0.083340 0.085210 -0.558517
O17   O     O_3   0.601340 0.950770 0.991070 -0.256678
V3    V     V_3+5 0.328370 0.009130 0.001660 1.125308
O18   O     O_R   0.939550 0.907490 0.913620 -0.551262
C27   C     C_R   0.108348 0.886223 0.885704 0.830914
O19   O     O_R   0.934640 0.932890 0.057220 -0.534379
C28   C     C_R   0.102769 0.915913 0.080596 0.834696
V4    V     V_3+5 0.827780 0.990750 0.998250 1.136061
O20   O     O_3   0.104690 0.049230 0.008930 -0.276649
N1    N     N_R   0.978250 0.663093 0.734066 0.074569
O21   O     O_R   0.803794 0.657698 0.708359 -0.369134
O22   O     O_R   0.007366 0.652722 0.798972 -0.352344
C29   C     C_3   0.948170 0.226863 0.163958 -0.127332
C30   C     C_3   0.050171 0.308148 0.186609 -0.235147
C31   C     C_3   0.214573 0.312798 0.133900 -0.416479
H6    H     H_    0.321696 0.265709 0.132926 0.137343
H7    H     H_    0.158523 0.305646 0.077477 0.138472
H8    H     H_    0.287417 0.371501 0.152314 0.125972
H9    H     H_    0.945192 0.355889 0.186600 0.108518
H10   H     H_    0.110717 0.318839 0.242762 0.163179
H11   H     H_    0.051120 0.179232 0.166359 0.165187
H12   H     H_    0.902215 0.217813 0.105978 0.098885
N2    N     N_R   0.913666 0.245648 0.339392 0.099142
O23   O     O_R   0.066309 0.205600 0.312238 -0.377640
O24   O     O_R   0.870162 0.252092 0.407896 -0.353236

loop_
_geom_bond_atom_site_label_1
_geom_bond_atom_site_label_2
_geom_bond_distance
_ccdc_geom_bond_type
C29   H12   1.111610 S    
O5    V1    1.846087 S    
C21   C22   1.357825 D    
O2    C1    1.311345 A    
O8    C3    1.314433 A    
C31   H7    1.111046 S    
C8    N1    1.440814 S    
C30   C31   1.526459 S    
V3    O20   1.699840 S    
C30   H10   1.110742 S    
C3    C14   1.504995 S    
O15   V3    2.013543 S    
O16   V4    2.018353 S    
O17   V4    1.707849 S    
O7    V1    2.143785 S    
C16   C17   1.477391 S    
C25   O16   1.295644 A    
C1    O6    1.313053 A    
C17   C18   1.246110 T    
C4    C8    1.487320 S    
O9    V2    2.011368 S    
C5    C6    1.348977 D    
O7    V2    1.709177 S    
C31   H8    1.110559 S    
C1    C15   1.503163 S    
O4    V1    2.009074 S    
O17   V3    2.143765 S    
O3    V1    2.013539 S    
V1    O10   1.699838 S    
O9    C4    1.305505 A    
O18   C27   1.299294 A    
C9    C28   1.505011 S    
O12   C25   1.301218 A    
O13   C28   1.311798 A    
O12   V3    2.009080 S    
C11   C12   1.247148 T    
C22   H4    1.087590 S    
O3    C4    1.294178 A    
O8    V2    1.851029 S    
C30   H9    1.112225 S    
O1    V2    2.014378 S    
O15   C27   1.297679 A    
O13   V3    1.845922 S    
C24   H5    1.087627 S    
C5    H1    1.086014 S    
C18   C19   1.477390 S    
O6    V2    1.837196 S    
C6    H2    1.084133 S    
C7    H3    1.086230 S    
O5    C3    1.311787 A    
C15   C16   1.246075 T    
O19   V4    1.850937 S    
N1    O21   1.301645 A    
C29   C30   1.538426 S    
C20   C26   1.503180 S    
N1    O22   1.301720 A    
V2    O10   2.156465 S    
C23   C24   1.352946 D    
O14   C26   1.311415 A    
O18   V4    2.011247 S    
N2    O24   1.301787 A    
N2    O23   1.301272 A    
C9    C10   1.247133 T    
O4    C2    1.299360 A    
C19   C20   1.246077 T    
C29   H11   1.111525 S    
C12   C13   1.479056 S    
V4    O20   2.156532 S    
C23   N2    1.445498 S    
O19   C28   1.314420 A    
C13   C14   1.247121 T    
O1    C2    1.295172 A    
O11   C26   1.313019 A    
C6    C27   1.477646 S    
O11   V4    1.837669 S    
C10   C11   1.479066 S    
C7    C8    1.355538 D    
C2    C24   1.477706 S    
C22   C25   1.482564 S    
O14   V3    1.866861 S    
C21   C23   1.494196 S    
C5    C7    1.493700 S    
C21   C29   1.525243 S    
C31   H6    1.110095 S    
O2    V1    1.866892 S    
