data_mof_unit_36279.cif
_audit_creation_date              2012-12-11T14:34:11-0500
_audit_creation_method            fapswitch 2.2
_symmetry_space_group_name_H-M    P1
_symmetry_Int_Tables_number       1
_space_group_crystal_system       triclinic
_cell_length_a                    14.029859
_cell_length_b                    14.101544
_cell_length_c                    27.174544
_cell_angle_alpha                 89.899093
_cell_angle_beta                  89.753156
_cell_angle_gamma                 119.888383
_cell_volume                      4661.13618906

loop_
_atom_site_label
_atom_site_type_symbol
_atom_type_description
_atom_site_fract_x
_atom_site_fract_y
_atom_site_fract_z
_atom_type_partial_charge
C1    C     C_R   0.233603 0.787335 0.568161 0.543892
C2    C     C_1   0.701939 0.866361 0.861582 0.239739
C3    C     C_1   0.119935 0.874157 0.854050 0.254159
C4    C     C_1   0.156530 0.300680 0.861347 0.168236
C5    C     C_1   0.636199 0.821684 0.657617 0.243317
C6    C     C_1   0.177357 0.817540 0.655663 0.240210
C7    C     C_1   0.177053 0.358014 0.656640 0.234681
C8    C     C_1   0.606062 0.800051 0.615556 0.139695
C9    C     C_1   0.198724 0.805803 0.614305 0.142835
C10   C     C_1   0.189983 0.389737 0.614660 0.140109
C11   C     C_R   0.065571 0.152265 0.096282 0.595638
C12   C     C_R   0.211549 0.445111 0.568257 0.546578
C13   C     C_R   0.774332 0.882060 0.086436 0.609787
C14   C     C_R   0.116478 0.893068 0.087708 0.613136
C15   C     C_R   0.107678 0.221350 0.951318 0.573884
C16   C     C_R   0.779684 0.887245 0.951178 0.553337
C17   C     C_R   0.092559 0.928089 0.943182 0.547944
C18   C     C_R   0.533691 0.845510 0.347943 -0.134714
C19   C     C_R   0.098114 0.734281 0.363945 -0.131316
C20   C     C_R   0.259038 0.349172 0.366986 -0.111153
C21   C     C_R   0.556069 0.860381 0.297330 -0.058646
C22   C     C_R   0.081249 0.745254 0.314084 -0.044964
C23   C     C_R   0.553509 0.765880 0.568616 0.554466
C24   C     C_R   0.235954 0.297787 0.321012 -0.054027
C25   C     C_R   0.620433 0.897801 0.197543 -0.025473
C26   C     C_R   0.061569 0.758877 0.211655 -0.034229
C27   C     C_R   0.198668 0.225424 0.222623 -0.045311
C28   C     C_R   0.232537 0.789044 0.432221 0.540899
C29   C     C_R   0.210794 0.442776 0.432427 0.552821
C30   C     C_R   0.501537 0.737026 0.425504 0.551830
C31   C     C_R   0.601961 0.973230 0.223674 0.550726
C32   C     C_R   0.978161 0.671471 0.238828 0.490028
C33   C     C_R   0.299459 0.254603 0.245630 0.471430
C34   C     C_3   0.656756 0.741005 0.791177 0.679357
C35   C     C_R   0.572841 0.955857 0.273454 0.448581
C36   C     C_R   0.989315 0.663528 0.289460 0.436395
C37   C     C_R   0.316878 0.288346 0.294658 0.478617
C38   C     C_R   0.670568 0.923147 0.150743 0.403014
C39   C     C_R   0.051479 0.769792 0.160931 0.369011
C40   C     C_R   0.181831 0.197644 0.172486 0.348611
C41   C     C_R   0.695029 0.849169 0.127483 0.018382
C42   C     C_R   0.137403 0.856421 0.134872 0.012486
C43   C     C_R   0.082823 0.174958 0.149627 0.004725
C44   C     C_R   0.523439 0.668544 0.344229 0.403173
C45   C     C_3   0.253991 0.940247 0.785060 0.677413
C46   C     C_R   0.260248 0.915209 0.363262 0.418697
C47   C     C_R   0.071188 0.312807 0.373562 0.426617
C48   C     C_R   0.547561 0.682903 0.293895 -0.019196
C49   C     C_R   0.251183 0.922626 0.312565 -0.045127
C50   C     C_R   0.047501 0.263469 0.327247 -0.017368
C51   C     C_R   0.564932 0.779636 0.270365 -0.135183
C52   C     C_R   0.162240 0.836347 0.287645 -0.143712
C53   C     C_R   0.131914 0.261174 0.299717 -0.145294
C54   C     C_R   0.559272 0.604338 0.267080 0.474064
C55   C     C_R   0.334150 0.010171 0.285842 0.479815
C56   C     C_3   0.074787 0.347412 0.790198 0.688595
C57   C     C_R   0.942568 0.221259 0.306828 0.488206
C58   C     C_R   0.588191 0.620967 0.217677 0.445179
C59   C     C_R   0.334996 0.006970 0.234883 0.454223
C60   C     C_R   0.924500 0.187602 0.258149 0.423664
C61   C     C_R   0.607333 0.717710 0.193764 -0.062110
C62   C     C_R   0.244518 0.924125 0.209435 -0.060331
C63   C     C_R   0.010848 0.195185 0.228548 -0.046755
C64   C     C_3   0.564264 0.856371 0.735746 0.445008
C65   C     C_3   0.137990 0.724232 0.737478 0.457403
C66   C     C_3   0.282929 0.428958 0.733482 0.493390
C67   C     C_3   0.651121 0.732110 0.733854 0.508539
C68   C     C_R   0.596324 0.797858 0.220392 -0.180799
C69   C     C_R   0.155656 0.840221 0.236217 -0.181740
C70   C     C_R   0.113348 0.225789 0.250397 -0.167127
C71   C     C_R   0.647178 0.740961 0.145197 0.212308
C72   C     C_R   0.238336 0.924962 0.158051 0.208913
C73   C     C_R   0.997607 0.173849 0.177684 0.178226
C74   C     C_R   0.520933 0.751497 0.371918 -0.028764
C75   C     C_R   0.192115 0.815593 0.387532 -0.017956
C76   C     C_R   0.179542 0.364659 0.391404 -0.022663
C77   C     C_3   0.771894 0.937256 0.723202 0.591005
C78   C     C_3   0.265901 0.933336 0.728261 0.503930
C79   C     C_3   0.060888 0.849510 0.714521 0.582804
C80   C     C_3   0.150799 0.223709 0.724263 0.598534
C81   C     C_3   0.787034 0.946152 0.780845 0.666796
C82   C     C_3   0.049922 0.868500 0.770585 0.675006
C83   C     C_3   0.141644 0.211559 0.782066 0.666465
C84   C     C_1   0.730945 0.873855 0.903711 0.131572
C85   C     C_1   0.107435 0.897002 0.895177 0.149330
C86   C     C_1   0.140211 0.270942 0.903650 0.114699
C87   C     C_3   0.655880 0.837207 0.711253 -0.081617
C88   C     C_3   0.160515 0.830184 0.707816 -0.084816
C89   C     C_3   0.071759 0.350050 0.732557 0.506355
C90   C     C_3   0.170534 0.339896 0.710401 -0.098557
C91   C     C_3   0.581296 0.872688 0.794066 0.348388
C92   C     C_3   0.117446 0.736137 0.794545 0.349594
C93   C     C_3   0.281616 0.416940 0.791834 0.364976
C94   C     C_3   0.681046 0.857391 0.808129 -0.071942
C95   C     C_3   0.134648 0.853925 0.802318 -0.071984
C96   C     C_3   0.165111 0.320430 0.807673 -0.113197
Cr1   Cr    Cr6+3 0.164410 0.584450 0.499910 1.148191
Cr2   Cr    Cr6+3 0.415550 0.579960 0.499910 1.160239
Cr3   Cr    Cr6+3 0.420040 0.835590 0.499910 1.163735
Cr4   Cr    Cr6+3 0.155170 0.075460 0.019960 1.164781
Cr5   Cr    Cr6+3 0.924540 0.079710 0.019960 1.173422
Cr6   Cr    Cr6+3 0.920290 0.844830 0.019960 1.187903
F1    F     F_    0.737808 0.720538 0.808154 -0.451181
F2    F     F_    0.567327 0.035511 0.298995 -0.453922
F3    F     F_    0.910003 0.575843 0.314395 -0.496372
F4    F     F_    0.413734 0.313384 0.316165 -0.419067
F5    F     F_    0.607556 0.546222 0.195169 -0.453633
F6    F     F_    0.424332 0.086946 0.211166 -0.423050
F7    F     F_    0.821629 0.148025 0.240518 -0.516574
F8    F     F_    0.550430 0.514039 0.289169 -0.415190
F9    F     F_    0.418219 0.096874 0.308722 -0.378725
F10   F     F_    0.857350 0.215700 0.333146 -0.433806
F11   F     F_    0.569310 0.947834 0.714236 -0.584327
F12   F     F_    0.277467 0.044691 0.797278 -0.449709
F13   F     F_    0.047037 0.634684 0.717610 -0.583115
F14   F     F_    0.367283 0.417000 0.713373 -0.573894
F15   F     F_    0.503319 0.573882 0.366447 -0.544812
F16   F     F_    0.342798 0.000187 0.387879 -0.498366
F17   F     F_    0.990312 0.316166 0.399936 -0.500907
F18   F     F_    0.852775 0.919972 0.702805 -0.368154
F19   F     F_    0.080893 0.942648 0.688574 -0.383172
F20   F     F_    0.052489 0.144761 0.703942 -0.362438
F21   F     F_    0.816161 0.049743 0.797671 -0.509413
F22   F     F_    0.944607 0.799685 0.787842 -0.504372
F23   F     F_    0.972377 0.269712 0.808112 -0.432583
F24   F     F_    0.210700 0.177340 0.800938 -0.534528
F25   F     F_    0.872771 0.929983 0.793413 -0.385132
F26   F     F_    0.070016 0.973835 0.776573 -0.370924
F27   F     F_    0.036175 0.131445 0.794650 -0.378704
F28   F     F_    0.739767 0.723285 0.716509 -0.482058
F29   F     F_    0.277097 0.027382 0.706130 -0.484267
F30   F     F_    0.972988 0.262731 0.716414 -0.475044
F31   F     F_    0.558958 0.660686 0.811962 -0.515303
F32   F     F_    0.331199 0.923792 0.809441 -0.549964
F33   F     F_    0.094870 0.446619 0.809357 -0.570295
F34   F     F_    0.698237 0.019736 0.128401 -0.494141
F35   F     F_    0.956715 0.700440 0.137351 -0.506154
F36   F     F_    0.263242 0.197413 0.145395 -0.558427
F37   F     F_    0.618063 0.067034 0.202058 -0.381455
F38   F     F_    0.886943 0.591828 0.216484 -0.424989
F39   F     F_    0.383283 0.254922 0.220421 -0.413841
H1    H     H_    0.528016 0.907919 0.368827 0.236714
H2    H     H_    0.428338 0.811364 0.814758 0.424188
H3    H     H_    0.175550 0.647456 0.822154 0.432605
H4    H     H_    0.311662 0.510685 0.849683 0.391397
H5    H     H_    0.571023 0.594991 0.118952 0.381150
H6    H     H_    0.339675 0.069851 0.135994 0.436245
H7    H     H_    0.891150 0.216805 0.162565 0.416945
H8    H     H_    0.757171 0.070200 0.722060 0.387643
H9    H     H_    0.926111 0.703111 0.717484 0.389808
H10   H     H_    0.294963 0.228908 0.725896 0.393025
H11   H     H_    0.563899 0.573945 0.728750 0.440598
H12   H     H_    0.042674 0.659377 0.383355 0.223772
H13   H     H_    0.424748 0.001687 0.724654 0.437532
H14   H     H_    0.003485 0.439656 0.724939 0.441993
H15   H     H_    0.340758 0.383336 0.382182 0.262761
H16   H     H_    0.644544 0.033575 0.785893 0.392479
H17   H     H_    0.955888 0.640206 0.785853 0.393811
H18   H     H_    0.370128 0.342429 0.788206 0.389775
H19   H     H_    0.443471 0.707100 0.745288 0.408135
H20   H     H_    0.287537 0.753706 0.750884 0.389016
H21   H     H_    0.258194 0.553631 0.737235 0.407867
O1    O     O_R   0.137150 0.468200 0.553200 -0.464988
O2    O     O_R   0.140110 0.470540 0.446010 -0.422181
O3    O     O_R   0.529460 0.669570 0.446010 -0.399684
O4    O     O_R   0.330430 0.859890 0.446010 -0.431287
O5    O     O_R   0.176710 0.690910 0.450560 -0.517459
O6    O     O_R   0.309090 0.485800 0.450560 -0.507880
O7    O     O_R   0.514200 0.823290 0.450560 -0.493552
O8    O     O_3   0.333333 0.666667 0.499990 -0.359085
O9    O     O_R   0.176750 0.985260 0.074180 -0.473136
O10   O     O_R   0.014740 0.191490 0.074180 -0.436988
O11   O     O_R   0.808510 0.823250 0.074180 -0.432128
O12   O     O_R   0.531800 0.668950 0.553200 -0.466293
O13   O     O_R   0.146100 0.172630 0.068980 -0.431671
O14   O     O_R   0.827370 0.973470 0.068980 -0.465271
O15   O     O_R   0.026530 0.853900 0.068980 -0.445568
O16   O     O_3   0.000000 0.000000 0.020040 -0.349928
O17   O     O_R   0.148270 0.170520 0.969620 -0.505486
O18   O     O_R   0.829480 0.977750 0.969620 -0.492910
O19   O     O_R   0.022250 0.851730 0.969620 -0.476095
O20   O     O_3   0.599716 0.976021 0.810082 -0.543012
O21   O     O_3   0.011686 0.655947 0.811266 -0.544839
O22   O     O_3   0.366582 0.398512 0.808472 -0.543906
O23   O     O_R   0.331050 0.862850 0.553200 -0.463710
O24   O     O_3   0.459716 0.769667 0.723764 -0.565137
O25   O     O_3   0.225237 0.703731 0.730106 -0.568961
O26   O     O_3   0.305946 0.533732 0.718617 -0.546530
O27   O     O_3   0.487816 0.793852 0.819936 -0.575210
O28   O     O_3   0.193297 0.724761 0.824233 -0.596065
O29   O     O_3   0.300041 0.515120 0.813930 -0.569224
O30   O     O_3   0.644389 0.661103 0.114935 -0.557974
O31   O     O_3   0.328026 0.995567 0.129950 -0.556013
O32   O     O_3   0.903295 0.155263 0.154102 -0.558371
O33   O     O_3   0.786635 0.034100 0.700771 -0.486434
O34   O     O_R   0.179100 0.982980 0.967000 -0.463710
O35   O     O_3   0.964023 0.763870 0.693800 -0.497326
O36   O     O_3   0.232160 0.204836 0.703377 -0.475777
O37   O     O_3   0.555238 0.637133 0.719024 -0.569758
O38   O     O_3   0.361265 0.928849 0.716672 -0.576341
O39   O     O_3   0.075111 0.446069 0.715898 -0.588644
O40   O     O_R   0.017020 0.196120 0.967000 -0.467628
O41   O     O_R   0.803880 0.820900 0.967000 -0.483019
O42   O     O_R   0.173970 0.688730 0.549930 -0.483973
O43   O     O_R   0.311270 0.485240 0.549930 -0.481819
O44   O     O_R   0.514760 0.826030 0.549930 -0.474130

loop_
_geom_bond_atom_site_label_1
_geom_bond_atom_site_label_2
_ccdc_geom_bond_type
C25   C31   A    
C65   C92   S    
C89   O39   S    
C39   F35   S    
C26   C32   A    
C79   O35   S    
C15   O17   A    
C13   O14   A    
C18   C21   A    
C55   C59   A    
C2    C84   T    
C29   O2    A    
H19   O24   S    
Cr6   O41   S    
C77   F18   S    
Cr4   O16   S    
C56   F33   S    
C6    C9    T    
C13   C41   S    
C66   C90   S    
C29   C76   S    
C80   F20   S    
C27   C33   A    
Cr6   O11   S    
C13   O11   A    
C79   F19   S    
C46   C49   A    
C54   F8    S    
C45   F32   S    
C89   F30   S    
C66   F14   S    
C81   F21   S    
C60   C63   A    
C17   C85   S    
C32   C36   A    
C29   O6    A    
C51   C68   A    
C47   C76   A    
C32   F38   S    
C66   O26   S    
Cr5   O40   S    
Cr2   O12   S    
C93   O22   S    
C26   C39   A    
C57   F10   S    
C4    C86   T    
C16   O18   A    
C16   C84   S    
C8    C23   S    
C6    C88   S    
C46   F16   S    
Cr5   O10   S    
C58   F5    S    
C7    C10   T    
C79   C88   S    
C60   F7    S    
C28   O5    A    
C4    C96   S    
C45   F12   S    
C40   C43   A    
C20   C24   A    
Cr1   O1    S    
C40   F36   S    
C93   O29   S    
Cr2   O43   S    
C11   C43   S    
C45   C78   S    
Cr5   O16   S    
C38   F34   S    
C71   O30   S    
C39   C42   A    
C16   O41   A    
H17   O21   S    
C52   C69   A    
H9    O35   S    
C28   O4    A    
C14   C42   S    
Cr3   O4    S    
C61   C71   A    
C58   C61   A    
C47   F17   S    
C11   O10   A    
C18   C74   A    
C73   O32   S    
H4    O29   S    
Cr4   O9    S    
C65   F13   S    
H10   O36   S    
H5    O30   S    
C25   C68   A    
C78   O38   S    
C80   C83   S    
C53   C70   A    
C82   F22   S    
C46   C75   A    
C92   O28   S    
C47   C50   A    
Cr4   O34   S    
C26   C69   A    
C77   C87   S    
C48   C51   A    
C50   C53   A    
Cr3   O44   S    
Cr2   O3    S    
C2    C94   S    
C19   C22   A    
C1    C9    S    
C38   C41   A    
C35   F2    S    
C72   O31   S    
C23   O12   A    
C57   C60   A    
C63   C73   A    
C34   F31   S    
C33   F39   S    
C24   C53   A    
C49   C55   A    
C7    C90   S    
C92   C95   S    
C33   C37   A    
Cr1   O8    S    
H11   O37   S    
C5    C87   S    
C48   C54   A    
C78   F29   S    
C30   O7    A    
Cr2   O6    S    
C25   C38   A    
C79   C82   S    
C91   O27   S    
H13   O38   S    
C63   C70   A    
C18   H1    S    
C27   C40   A    
C49   C52   A    
C80   O36   S    
C65   O25   S    
Cr4   O13   S    
C42   C72   A    
C24   C37   A    
H2    O27   S    
C62   C72   A    
C56   F23   S    
C44   C74   A    
C82   F26   S    
C1    O42   A    
C27   C70   A    
C10   C12   S    
C15   C86   S    
C21   C35   A    
H7    O32   S    
C56   C89   S    
C93   C96   S    
C66   C93   S    
C23   O44   A    
H18   O22   S    
C31   C35   A    
C3    C85   T    
C67   F28   S    
H16   O20   S    
Cr1   O42   S    
C31   F37   S    
C45   C95   S    
Cr3   O23   S    
C15   O40   A    
C65   C88   S    
C22   C52   A    
C54   C58   A    
C78   C88   S    
C56   C96   S    
Cr6   O16   S    
C19   H12   S    
C59   C62   A    
C82   C95   S    
C20   H15   S    
C55   F9    S    
C36   F3    S    
Cr6   O19   S    
C11   O13   A    
C34   C94   S    
C30   O3    A    
C14   O9    A    
Cr5   O14   S    
C92   O21   S    
C34   C67   S    
C5    C8    T    
C83   F27   S    
Cr3   O7    S    
C1    O23   A    
C22   C36   A    
C67   C87   S    
C59   F6    S    
C41   C71   A    
Cr1   O2    S    
Cr3   O8    S    
C12   O43   A    
C19   C75   A    
C77   O33   S    
C43   C73   A    
C37   F4    S    
H20   O25   S    
Cr5   O18   S    
Cr1   O5    S    
H8    O33   S    
C12   O1    A    
H21   O26   S    
C81   C94   S    
C50   C57   A    
C61   C68   A    
C28   C75   S    
H3    O28   S    
C44   F15   S    
C30   C74   S    
C83   C96   S    
C34   F1    S    
H6    O31   S    
C67   O37   S    
C20   C76   A    
C80   C90   S    
C64   O24   S    
C14   O15   A    
Cr2   O8    S    
C17   O19   A    
C21   C51   A    
C62   C69   A    
C77   C81   S    
C91   O20   S    
Cr6   O15   S    
C17   O34   A    
C3    C95   S    
C83   F24   S    
C64   C91   S    
C89   C90   S    
H14   O39   S    
Cr4   O17   S    
C64   C87   S    
C81   F25   S    
C44   C48   A    
C64   F11   S    
C91   C94   S    
