data_mof_unit_12839.cif
_audit_creation_date              2012-12-10T19:07:01-0500
_audit_creation_method            fapswitch 2.2
_symmetry_space_group_name_H-M    P1
_symmetry_Int_Tables_number       1
_space_group_crystal_system       triclinic
_cell_length_a                    27.818511
_cell_length_b                    10.81354
_cell_length_c                    9.537425
_cell_angle_alpha                 90.063741
_cell_angle_beta                  90.115854
_cell_angle_gamma                 90.180103
_cell_volume                      2868.99374913

loop_
_atom_site_label
_atom_site_type_symbol
_atom_type_description
_atom_site_fract_x
_atom_site_fract_y
_atom_site_fract_z
_atom_type_partial_charge
C1    C     C_R   0.499046 0.262310 0.499895 0.805509
C2    C     C_R   0.278835 0.507338 0.372443 -0.094948
C3    C     C_R   0.253699 0.495256 0.498635 0.348788
C4    C     C_R   0.102084 0.491861 0.497348 -0.096412
C5    C     C_R   0.127619 0.379112 0.509912 -0.114199
C6    C     C_R   0.101274 0.267640 0.522690 0.424029
C7    C     C_R   0.127787 0.604075 0.485721 -0.013233
C8    C     C_R   0.354509 0.498566 0.499483 -0.040820
C9    C     C_R   0.645442 0.499487 0.498797 -0.038900
C10   C     C_R   0.974033 0.380636 0.493735 0.067658
C11   C     C_R   0.974915 0.608828 0.495531 0.043601
C12   C     C_R   0.407457 0.499711 0.499846 0.801102
C13   C     C_R   0.949216 0.495191 0.494304 0.071882
C14   C     C_R   0.946672 0.270322 0.483149 -0.199681
C15   C     C_R   0.896760 0.272431 0.480691 -0.144440
C16   C     C_R   0.872042 0.384396 0.487536 -0.020741
C17   C     C_R   0.898098 0.496112 0.493709 -0.048015
C18   C     C_R   0.872914 0.608746 0.499402 -0.019517
C19   C     C_R   0.822440 0.607574 0.499398 0.535055
C20   C     C_R   0.821585 0.387307 0.487766 0.536275
C21   C     C_R   0.720444 0.461417 0.376379 -0.097898
C22   C     C_R   0.670321 0.461943 0.377953 -0.218004
C23   C     C_R   0.499204 0.737718 0.499971 0.806267
C24   C     C_R   0.671609 0.537055 0.617538 -0.221421
C25   C     C_R   0.721723 0.536608 0.615786 -0.097364
C26   C     C_R   0.746326 0.498668 0.495306 0.351835
C27   C     C_R   0.025091 0.379941 0.502486 -0.020216
C28   C     C_R   0.050883 0.493049 0.496319 0.071349
C29   C     C_R   0.025967 0.607600 0.489138 0.051856
C30   C     C_R   0.051275 0.269382 0.519244 -0.245156
C31   C     C_R   0.102948 0.715487 0.473168 -0.106393
C32   C     C_R   0.948425 0.720185 0.504221 -0.202338
C33   C     C_R   0.898501 0.719865 0.505800 -0.141553
C34   C     C_R   0.592526 0.500005 0.499949 0.800442
C35   C     C_R   0.053149 0.717476 0.474606 -0.193830
C36   C     C_R   0.493975 0.063790 0.625605 0.124014
C37   C     C_R   0.494170 0.129224 0.499601 -0.097052
C38   C     C_R   0.487615 0.064232 0.373200 -0.206218
C39   C     C_R   0.487759 0.935340 0.373247 -0.206639
C40   C     C_R   0.494450 0.870794 0.499698 -0.098401
C41   C     C_R   0.494192 0.936553 0.625635 0.140620
C42   C     C_3   0.528060 0.930920 0.747185 -0.476950
C43   C     C_3   0.527638 0.071294 0.747547 -0.454482
C44   C     C_R   0.522362 0.592809 0.074077 0.253159
C45   C     C_R   0.178519 0.383285 0.509926 0.582711
C46   C     C_R   0.473992 0.415570 0.074184 -0.078844
C47   C     C_R   0.473974 0.415598 0.925236 -0.079886
C48   C     C_R   0.522602 0.592357 0.926566 0.260705
C49   C     C_3   0.574862 0.622907 0.922585 -0.515641
C50   C     C_3   0.574324 0.625805 0.081375 -0.487758
C51   C     C_R   0.178100 0.602784 0.486132 0.544594
C52   C     C_R   0.278846 0.484864 0.625258 -0.094387
C53   C     C_R   0.328972 0.486765 0.625891 -0.206611
C54   C     C_R   0.328961 0.508706 0.372652 -0.207645
Cu1   Cu    Cu3+1 0.500000 0.499980 0.640670 0.946994
Cu2   Cu    Cu3+1 0.500000 0.500020 0.359330 0.944407
H1    H     H_    0.347643 0.517980 0.273690 0.160054
H2    H     H_    0.259482 0.475592 0.723080 0.142097
H3    H     H_    0.121974 0.802515 0.462013 0.221667
H4    H     H_    0.965119 0.809806 0.513135 0.141462
H5    H     H_    0.653492 0.568440 0.710919 0.147281
H6    H     H_    0.880005 0.807709 0.512381 0.187857
H7    H     H_    0.741501 0.565693 0.708070 0.143772
H8    H     H_    0.037097 0.807124 0.460921 0.151940
H9    H     H_    0.484745 0.112277 0.273952 0.160740
H10   H     H_    0.484970 0.887008 0.274007 0.164121
H11   H     H_    0.511025 0.889793 0.841690 0.198292
H12   H     H_    0.259464 0.515343 0.274295 0.141397
H13   H     H_    0.563549 0.891396 0.718333 0.196629
H14   H     H_    0.510143 0.111217 0.841951 0.195842
H15   H     H_    0.562911 0.113186 0.719694 0.205989
H16   H     H_    0.453693 0.345775 0.129857 0.138694
H17   H     H_    0.453645 0.345853 0.869152 0.140784
H18   H     H_    0.596611 0.545296 0.881014 0.215164
H19   H     H_    0.582144 0.714574 0.874712 0.193257
H20   H     H_    0.596712 0.551935 0.128702 0.217501
H21   H     H_    0.580170 0.719828 0.125582 0.198376
H22   H     H_    0.651089 0.431776 0.285182 0.150264
H23   H     H_    0.739225 0.432172 0.282755 0.143657
H24   H     H_    0.877584 0.185295 0.473161 0.188973
H25   H     H_    0.962648 0.180184 0.473276 0.141596
H26   H     H_    0.033776 0.181422 0.533881 0.169178
H27   H     H_    0.347666 0.478500 0.725140 0.158675
N1    N     N_R   0.202193 0.493729 0.498222 -0.482245
N2    N     N_R   0.797896 0.497846 0.493878 -0.469016
N3    N     N_R   0.500300 0.500930 0.147930 -0.185058
N4    N     N_R   0.500310 0.500890 0.852020 -0.183861
O1    O     O_R   0.500000 0.319640 0.618810 -0.581888
O2    O     O_2   0.796376 0.280514 0.483355 -0.533088
O3    O     O_2   0.202912 0.709835 0.475181 -0.504377
O4    O     O_2   0.798056 0.715218 0.503815 -0.533519
O5    O     O_R   0.500010 0.319680 0.381230 -0.587628
O6    O     O_R   0.430260 0.500000 0.618780 -0.583692
O7    O     O_R   0.430270 0.500040 0.381190 -0.584242
O8    O     O_R   0.499990 0.680320 0.618770 -0.576746
O9    O     O_R   0.500000 0.680360 0.381190 -0.584541
O10   O     O_R   0.569730 0.499960 0.618810 -0.582172
O11   O     O_R   0.569740 0.500000 0.381220 -0.583517
O12   O     O_2   0.204543 0.278817 0.520425 -0.447815
Cl1   Cl    Cl    0.127655 0.120375 0.544614 -0.539115

loop_
_geom_bond_atom_site_label_1
_geom_bond_atom_site_label_2
_ccdc_geom_bond_type
C10   C27   A    
C21   C26   A    
C40   C41   A    
C24   H5    S    
C41   C42   S    
Cu1   O10   S    
Cu2   O11   S    
Cu1   Cu2   S    
Cu2   O7    S    
C28   C29   A    
C16   C20   A    
C2    H12   S    
C51   O3    S    
C5    C6    A    
C9    C22   A    
C42   H11   S    
C23   C40   S    
C34   O10   A    
C23   O9    A    
C18   C19   A    
C25   H7    S    
C31   H3    S    
Cu1   O1    S    
C33   H6    S    
C49   H19   S    
C35   H8    S    
C46   H16   S    
C1    C37   S    
C1    O1    A    
C21   C22   A    
C27   C30   A    
C12   O7    A    
C36   C41   A    
C4    C7    A    
C44   N3    A    
C4    C28   A    
C7    C31   A    
C24   C25   A    
C22   H22   S    
Cu1   O8    S    
C45   O12   S    
C8    C54   A    
C39   C40   A    
C16   C17   A    
C25   C26   A    
C5    C45   A    
C42   H13   S    
C6    Cl1   S    
C30   H26   S    
C37   C38   A    
C50   H20   S    
Cu2   N3    S    
C15   H24   S    
C38   H9    S    
C8    C12   S    
C20   N2    A    
C21   H23   S    
C17   C18   A    
C48   N4    A    
C47   H17   S    
C52   H2    S    
C48   C49   S    
C6    C30   A    
C11   C32   A    
C43   H14   S    
C2    C54   A    
C9    C34   S    
C39   H10   S    
C31   C35   A    
C12   O6    A    
C45   N1    A    
C42   C43   S    
C32   H4    S    
C50   H21   S    
C3    N1    S    
C52   C53   A    
C44   C50   S    
Cu2   O9    S    
C46   C47   A    
C36   C37   A    
C43   H15   S    
C14   C15   A    
C4    C5    A    
C19   N2    A    
C10   C13   A    
C8    C53   A    
C3    C52   A    
C9    C24   A    
C1    O5    A    
C20   O2    S    
C29   C35   A    
C13   C17   A    
C53   H27   S    
C32   C33   A    
C2    C3    A    
C7    C51   A    
C11   C13   A    
C38   C39   A    
C26   N2    S    
C51   N1    A    
C34   O11   A    
C23   O8    A    
Cu1   N4    S    
C18   C33   A    
C19   O4    S    
C44   C48   A    
Cu2   O5    S    
C11   C29   A    
C49   C50   S    
C27   C28   A    
C49   H18   S    
C36   C43   S    
C14   H25   S    
Cu1   O6    S    
C15   C16   A    
C10   C14   A    
C46   N3    A    
C54   H1    S    
C47   N4    A    
