data_mof_unit_57146.cif
_audit_creation_date              2012-10-26T17:13:11-0400
_audit_creation_method            fapswitch 2.2
_symmetry_space_group_name_H-M    P1
_symmetry_Int_Tables_number       1
_space_group_crystal_system       triclinic
_cell_length_a                    16.828498
_cell_length_b                    16.810074
_cell_length_c                    16.957479
_cell_angle_alpha                 67.252701
_cell_angle_beta                  67.535323
_cell_angle_gamma                 67.789684
_cell_volume                      3936.20059378

loop_
_atom_site_label
_atom_site_type_symbol
_atom_type_description
_atom_site_fract_x
_atom_site_fract_y
_atom_site_fract_z
_atom_type_partial_charge
C1    C     C_R   0.323596 0.957500 0.448824 -0.014169
C2    C     C_R   0.309296 0.433101 0.006382 -0.015002
C3    C     C_R   0.545886 0.424890 0.965828 -0.026769
C4    C     C_R   0.002659 0.458963 0.588120 -0.029877
C5    C     C_R   0.007381 0.538080 0.408952 -0.033425
C6    C     C_3   0.280336 0.952423 0.854414 -0.028859
C7    C     C_3   0.266271 0.934582 0.953225 -0.352428
C8    C     C_3   0.718719 0.033459 0.149501 -0.024959
C9    C     C_3   0.742345 0.053944 0.048958 -0.337306
C10   C     C_3   0.032234 0.849762 0.210665 0.001545
C11   C     C_3   0.038785 0.942592 0.196227 -0.382540
C12   C     C_3   0.057765 0.137664 0.686218 -0.010460
C13   C     C_R   0.038358 0.678824 0.550326 -0.013028
C14   C     C_3   0.051273 0.042124 0.734825 -0.353926
C15   C     C_3   0.828981 0.276941 0.004294 0.015286
C16   C     C_3   0.924461 0.221706 0.001779 -0.334387
C17   C     C_3   0.167716 0.718646 0.000239 -0.005674
C18   C     C_3   0.070526 0.768066 0.004367 -0.339796
C19   C     C_3   0.290018 0.763562 0.748529 -0.013165
C20   C     C_3   0.216682 0.724771 0.759750 -0.381283
C21   C     C_3   0.716114 0.228445 0.253414 -0.017058
C22   C     C_3   0.790946 0.264875 0.242831 -0.379231
C23   C     C_3   0.747304 0.264671 0.790574 0.004842
C24   C     C_R   0.965473 0.320731 0.448246 -0.008875
C25   C     C_3   0.773403 0.178365 0.766135 -0.346745
C26   C     C_3   0.266656 0.698624 0.231290 -0.023148
C27   C     C_3   0.257781 0.768197 0.272904 -0.380421
C28   C     C_3   0.881030 0.739199 0.230854 -0.025347
C29   C     C_3   0.847536 0.786926 0.148310 -0.394376
C30   C     C_3   0.106680 0.270273 0.788330 -0.017283
C31   C     C_3   0.142274 0.183778 0.854235 -0.389783
C32   C     C_R   0.451949 0.991569 0.451996 0.021944
C33   C     C_R   0.548994 0.005402 0.548870 0.022097
C34   C     C_R   0.994488 0.451806 0.451093 0.023229
C35   C     C_R   0.015244 0.545338 0.545969 0.022325
C36   C     C_R   0.452005 0.452068 0.991232 0.022331
C37   C     C_R   0.549066 0.549913 0.003917 0.022824
C38   C     C_R   0.026417 0.828711 0.565269 0.546502
C39   C     C_R   0.676749 0.040574 0.551892 -0.013204
C40   C     C_R   0.974055 0.171312 0.434534 0.543960
C41   C     C_R   0.831722 0.569633 0.013846 0.556278
C42   C     C_R   0.168473 0.430501 0.985631 0.553733
C43   C     C_R   0.569633 0.013835 0.831628 0.553988
C44   C     C_R   0.430476 0.985663 0.168565 0.553273
C45   C     C_R   0.434896 0.171611 0.972885 0.551818
C46   C     C_R   0.565204 0.828393 0.026899 0.551398
C47   C     C_R   0.982456 0.431763 0.169320 0.554741
C48   C     C_R   0.018280 0.568088 0.830403 0.552767
C49   C     C_R   0.171448 0.972666 0.435100 0.543233
C50   C     C_R   0.994017 0.442163 0.310913 -0.017575
C51   C     C_R   0.828584 0.026932 0.565076 0.544906
C52   C     C_R   0.403372 0.984632 0.403449 0.030345
C53   C     C_R   0.597226 0.012996 0.597343 0.030386
C54   C     C_R   0.984056 0.405011 0.403329 0.027757
C55   C     C_R   0.022659 0.593311 0.594518 0.027220
C56   C     C_R   0.403288 0.403133 0.984941 0.029460
C57   C     C_R   0.597659 0.598102 0.011581 0.029891
C58   C     C_R   0.269336 0.963179 0.398386 -0.030639
C59   C     C_R   0.730841 0.035590 0.602097 -0.030930
C60   C     C_R   0.982100 0.394320 0.263946 -0.023653
C61   C     C_R   0.010978 0.556743 0.687279 -0.012221
C62   C     C_R   0.020375 0.605250 0.735160 -0.023996
C63   C     C_R   0.397802 0.269201 0.964153 -0.030106
C64   C     C_R   0.602618 0.730957 0.034823 -0.029964
C65   C     C_R   0.609684 0.010863 0.737645 -0.024715
C66   C     C_R   0.390556 0.987873 0.262828 -0.025641
C67   C     C_R   0.738108 0.610345 0.010190 -0.026173
C68   C     C_R   0.262421 0.390053 0.988318 -0.026909
C69   C     C_R   0.036476 0.730687 0.601066 -0.030788
C70   C     C_R   0.965498 0.269183 0.398208 -0.030158
C71   C     C_R   0.495928 0.950354 0.735046 -0.107037
C72   C     C_R   0.448467 0.323369 0.958932 -0.012925
C73   C     C_R   0.504999 0.046969 0.265875 -0.111228
C74   C     C_R   0.051241 0.710901 0.457187 -0.088889
C75   C     C_R   0.950562 0.289897 0.541578 -0.123916
C76   C     C_R   0.735367 0.496026 0.952199 -0.116915
C77   C     C_R   0.265731 0.504378 0.045629 -0.119445
C78   C     C_R   0.301330 0.925139 0.542547 -0.113519
C79   C     C_R   0.699252 0.072285 0.458235 -0.100301
C80   C     C_R   0.542351 0.300424 0.928993 -0.105267
C81   C     C_R   0.458516 0.698577 0.070985 -0.104855
C82   C     C_R   0.014390 0.526406 0.270253 -0.104414
C83   C     C_R   0.552263 0.676957 0.039226 -0.013752
C84   C     C_R   0.990237 0.472871 0.727771 -0.120825
C85   C     C_R   0.307002 0.971031 0.307487 -0.166948
C86   C     C_R   0.693272 0.027586 0.692976 -0.165843
C87   C     C_R   0.970040 0.308537 0.308056 -0.171049
C88   C     C_R   0.031743 0.691291 0.691325 -0.170419
C89   C     C_R   0.306580 0.306610 0.971940 -0.163400
C90   C     C_R   0.693831 0.693631 0.026947 -0.162352
C91   C     C_R   0.650358 0.067860 0.409529 -0.027567
C92   C     C_R   0.351148 0.928158 0.591293 -0.032567
C93   C     C_R   0.997043 0.420312 0.678330 -0.055761
C94   C     C_R   0.566718 0.991667 0.691249 -0.013328
C95   C     C_R   0.010090 0.577928 0.319673 -0.035109
C96   C     C_R   0.409757 0.649754 0.066072 -0.024220
C97   C     C_R   0.591365 0.349284 0.933418 -0.027307
C98   C     C_R   0.554046 0.053531 0.312994 -0.038466
C99   C     C_R   0.447915 0.942027 0.687889 -0.034066
C100  C     C_R   0.313052 0.554823 0.049635 -0.047493
C101  C     C_R   0.687987 0.445997 0.947520 -0.048888
C102  C     C_R   0.973840 0.328838 0.585696 -0.058154
C103  C     C_R   0.029966 0.670795 0.412641 -0.023541
C104  C     C_R   0.675178 0.098199 0.315712 0.272804
C105  C     C_R   0.433745 0.006365 0.309496 -0.013234
C106  C     C_R   0.327947 0.895545 0.685007 0.258196
C107  C     C_R   0.995927 0.329709 0.718596 0.309868
C108  C     C_R   0.004104 0.670334 0.281557 0.280529
C109  C     C_R   0.315778 0.673676 0.096061 0.274265
C110  C     C_R   0.685450 0.321664 0.908832 0.270021
C111  C     C_R   0.629883 0.087274 0.267538 0.265480
C112  C     C_R   0.373753 0.905759 0.733291 0.266751
C113  C     C_R   0.267714 0.632258 0.079468 0.262436
C114  C     C_R   0.733111 0.366401 0.921561 0.263346
C115  C     C_R   0.981743 0.284604 0.673087 0.264742
C116  C     C_R   0.691617 0.567765 0.990930 -0.014661
C117  C     C_R   0.016858 0.717704 0.327351 0.260451
C118  C     C_R   0.527618 0.025338 0.406688 -0.028942
C119  C     C_R   0.473734 0.971005 0.594200 -0.029748
C120  C     C_R   0.991695 0.412601 0.541217 -0.026961
C121  C     C_R   0.017482 0.584743 0.455887 -0.032124
C122  C     C_R   0.406791 0.528029 0.023268 -0.028579
C123  C     C_R   0.594296 0.473801 0.972116 -0.027860
C124  C     C_R   0.576052 0.032221 0.455022 -0.030062
C125  C     C_R   0.425189 0.964233 0.545852 -0.030274
C126  C     C_R   0.455209 0.576688 0.029877 -0.027224
Cu1   Cu    Cu3+1 0.995180 0.995180 0.424630 0.949920
Cu2   Cu    Cu3+1 0.004820 0.004820 0.575370 0.878320
Cu3   Cu    Cu3+1 0.995180 0.424630 0.995180 0.882935
Cu4   Cu    Cu3+1 0.004820 0.575370 0.004820 0.878825
Cu5   Cu    Cu3+1 0.424630 0.995180 0.995180 0.886931
Cu6   Cu    Cu3+1 0.575370 0.004820 0.004820 0.885066
H1    H     H_    0.269575 0.966625 0.270324 0.151909
H2    H     H_    0.919337 0.236616 0.582429 0.175450
H3    H     H_    0.806390 0.479793 0.921630 0.179919
H4    H     H_    0.194988 0.519348 0.077823 0.178342
H5    H     H_    0.247087 0.894089 0.578186 0.177909
H6    H     H_    0.753057 0.103859 0.422512 0.177776
H7    H     H_    0.578145 0.246160 0.899077 0.172668
H8    H     H_    0.422773 0.751841 0.102350 0.177532
H9    H     H_    0.039836 0.554136 0.200276 0.205706
H10   H     H_    0.961248 0.447164 0.797463 0.198326
H11   H     H_    0.215918 0.961279 0.843650 0.152414
H12   H     H_    0.730809 0.031759 0.730117 0.149309
H13   H     H_    0.300686 0.016065 0.819056 0.118686
H14   H     H_    0.217624 0.993476 0.975480 0.074776
H15   H     H_    0.239862 0.875419 0.992391 0.179840
H16   H     H_    0.330463 0.922222 0.965960 0.197354
H17   H     H_    0.687523 0.976693 0.179922 0.125769
H18   H     H_    0.781427 0.012250 0.168982 0.152910
H19   H     H_    0.680577 0.082945 0.026787 0.202547
H20   H     H_    0.783813 0.101888 0.015725 0.182245
H21   H     H_    0.780956 0.991467 0.028914 0.072062
H22   H     H_    0.984880 0.860719 0.174349 0.173734
H23   H     H_    0.966728 0.270631 0.270784 0.152155
H24   H     H_    0.099162 0.808477 0.182336 0.210352
H25   H     H_    0.071371 0.971154 0.125029 0.087142
H26   H     H_    0.970849 0.987643 0.214883 0.165562
H27   H     H_    0.077975 0.939596 0.237505 0.161770
H28   H     H_    0.112421 0.146566 0.700871 0.127749
H29   H     H_    0.075433 0.146937 0.613540 0.153287
H30   H     H_    0.996069 0.031448 0.722928 0.160075
H31   H     H_    0.114767 0.994491 0.710015 0.150636
H32   H     H_    0.038528 0.028989 0.807419 0.137256
H33   H     H_    0.785818 0.230142 0.037062 0.165377
H34   H     H_    0.033712 0.729559 0.729025 0.153490
H35   H     H_    0.809331 0.322561 0.045707 0.123009
H36   H     H_    0.967406 0.267432 0.977598 0.173236
H37   H     H_    0.928657 0.178171 0.069474 0.075357
H38   H     H_    0.947909 0.178310 0.957439 0.203342
H39   H     H_    0.189630 0.672080 0.959315 0.132837
H40   H     H_    0.207221 0.768717 0.965627 0.153698
H41   H     H_    0.046062 0.816585 0.043311 0.157287
H42   H     H_    0.063507 0.805763 0.936247 0.077089
H43   H     H_    0.030007 0.719270 0.034995 0.191600
H44   H     H_    0.310162 0.735436 0.811292 0.165762
H45   H     H_    0.268942 0.269220 0.967598 0.155422
H46   H     H_    0.348374 0.741635 0.694115 0.119914
H47   H     H_    0.199945 0.747528 0.695772 0.148251
H48   H     H_    0.239609 0.650431 0.780473 0.113495
H49   H     H_    0.155708 0.747136 0.810992 0.159489
H50   H     H_    0.658459 0.250437 0.308288 0.113510
H51   H     H_    0.695372 0.258384 0.190914 0.159372
H52   H     H_    0.851363 0.242529 0.191127 0.159621
H53   H     H_    0.769243 0.339260 0.223121 0.112860
H54   H     H_    0.808110 0.240433 0.306785 0.148835
H55   H     H_    0.802478 0.297493 0.755284 0.189412
H56   H     H_    0.731274 0.730792 0.031966 0.153618
H57   H     H_    0.687365 0.310004 0.767259 0.093332
H58   H     H_    0.717675 0.146253 0.800036 0.150588
H59   H     H_    0.787639 0.193032 0.693162 0.099232
H60   H     H_    0.833500 0.131192 0.787320 0.197171
H61   H     H_    0.327510 0.643224 0.243249 0.115038
H62   H     H_    0.207840 0.670926 0.265930 0.151526
H63   H     H_    0.196013 0.822835 0.267122 0.161482
H64   H     H_    0.254841 0.736615 0.344480 0.093929
H65   H     H_    0.316001 0.796777 0.238979 0.155919
H66   H     H_    0.853342 0.785674 0.273064 0.153961
H67   H     H_    0.479794 0.920117 0.805984 0.193794
H68   H     H_    0.854923 0.679108 0.267956 0.142486
H69   H     H_    0.869887 0.740846 0.106927 0.171563
H70   H     H_    0.773402 0.809079 0.168122 0.103922
H71   H     H_    0.873465 0.846539 0.108659 0.127254
H72   H     H_    0.114010 0.326985 0.800855 0.157807
H73   H     H_    0.150060 0.265861 0.720346 0.101828
H74   H     H_    0.126658 0.127025 0.850493 0.145675
H75   H     H_    0.215817 0.169670 0.838263 0.100476
H76   H     H_    0.112763 0.189710 0.923015 0.134783
H77   H     H_    0.520875 0.078050 0.195089 0.193439
H78   H     H_    0.080449 0.765572 0.416138 0.175214
O1    O     O_R   0.124540 0.978640 0.385460 -0.517144
O2    O     O_R   0.124540 0.385460 0.978640 -0.511921
O3    O     O_R   0.021360 0.875460 0.614540 -0.514373
O4    O     O_R   0.978640 0.124540 0.385460 -0.509815
O5    O     O_R   0.013780 0.867370 0.487190 -0.497644
O6    O     O_R   0.986220 0.132630 0.512810 -0.525602
O7    O     O_R   0.867370 0.487190 0.013780 -0.523916
O8    O     O_R   0.132630 0.512810 0.986220 -0.527115
O9    O     O_R   0.487190 0.013780 0.867370 -0.523545
O10   O     O_R   0.512810 0.986220 0.132630 -0.522859
O11   O     O_R   0.512810 0.132630 0.986220 -0.519784
O12   O     O_R   0.875460 0.021360 0.614540 -0.518035
O13   O     O_R   0.487190 0.867370 0.013780 -0.522466
O14   O     O_R   0.986220 0.512810 0.132630 -0.526420
O15   O     O_R   0.013780 0.487190 0.867370 -0.532839
O16   O     O_R   0.132630 0.986220 0.512810 -0.517777
O17   O     O_R   0.867370 0.013780 0.487190 -0.495255
O18   O     O_3   0.346020 0.879332 0.825390 -0.564970
O19   O     O_3   0.659937 0.110779 0.175532 -0.563809
O20   O     O_3   0.998148 0.811091 0.302483 -0.570167
O21   O     O_3   0.975036 0.197645 0.715266 -0.555042
O22   O     O_3   0.822683 0.326693 0.916788 -0.522356
O23   O     O_R   0.978640 0.385460 0.124540 -0.512715
O24   O     O_3   0.177421 0.671480 0.087212 -0.549171
O25   O     O_3   0.256982 0.857768 0.730066 -0.582974
O26   O     O_3   0.747350 0.134216 0.270488 -0.561798
O27   O     O_3   0.730961 0.243844 0.883428 -0.559862
O28   O     O_3   0.270524 0.739155 0.139908 -0.578818
O29   O     O_3   0.975562 0.714804 0.205472 -0.575812
O30   O     O_3   0.015262 0.282097 0.799451 -0.521661
O31   O     O_R   0.021360 0.614540 0.875460 -0.512589
O32   O     O_R   0.385460 0.124540 0.978640 -0.509172
O33   O     O_R   0.614540 0.875460 0.021360 -0.509082
O34   O     O_R   0.614540 0.021360 0.875460 -0.518632
O35   O     O_R   0.385460 0.978640 0.124540 -0.512679
O36   O     O_R   0.875460 0.614540 0.021360 -0.515185

loop_
_geom_bond_atom_site_label_1
_geom_bond_atom_site_label_2
_ccdc_geom_bond_type
C81   H8    S    
C42   C68   S    
C47   O14   A    
C78   H5    S    
C9    H20   S    
C14   H30   S    
C112  O18   S    
C41   O36   A    
C4    C120  A    
C44   C66   S    
C19   C20   S    
C44   O10   A    
C64   C90   A    
C91   C104  A    
C92   C125  A    
C10   H22   S    
C66   C85   A    
Cu4   O36   S    
C110  O27   S    
C86   H12   S    
C65   C86   A    
C20   H48   S    
C71   C94   A    
C106  C112  A    
C17   O24   S    
C98   C111  A    
C97   C110  A    
C11   H25   S    
C26   C27   S    
C101  C123  A    
C40   C70   S    
C74   H78   S    
C29   H71   S    
C73   H77   S    
C28   C29   S    
C37   C126  A    
C2    C68   A    
C25   H58   S    
C28   O29   S    
C114  O22   S    
C30   C31   S    
C80   C97   A    
Cu4   O31   S    
C21   O26   S    
C51   O12   A    
C24   C54   A    
C15   C16   S    
C5    C121  A    
C117  O20   S    
C10   O20   S    
C72   C80   A    
C77   C100  A    
Cu5   O9    S    
C14   H31   S    
Cu4   O8    S    
C13   C74   A    
C3    C97   A    
C19   H44   S    
C32   C52   A    
C22   H52   S    
C102  C115  A    
Cu5   O35   S    
C81   C83   A    
C12   H29   S    
C37   C123  A    
C48   C62   S    
C16   H37   S    
Cu6   O34   S    
C33   C119  A    
C47   O23   A    
C8    C9    S    
C56   C72   A    
C6    O18   S    
C33   C124  A    
Cu3   O7    S    
C57   C83   A    
C82   C95   A    
C77   H4    S    
C89   H45   S    
C20   H47   S    
C38   O5    A    
C79   C91   A    
C109  C113  A    
Cu2   O3    S    
C7    H14   S    
C18   H43   S    
C47   C60   S    
C38   C69   S    
C9    H21   S    
C21   C22   S    
Cu1   O17   S    
C1    C78   A    
C20   H49   S    
C15   H35   S    
C103  C117  A    
C46   O33   A    
C82   H9    S    
C70   C87   A    
C5    C95   A    
C76   H3    S    
C3    C123  A    
C98   C118  A    
C57   C116  A    
C7    H15   S    
C33   C53   A    
C113  O24   S    
C17   H40   S    
C29   H69   S    
C106  O25   S    
C24   C70   A    
Cu6   O11   S    
C35   C121  A    
C32   C118  A    
C31   H74   S    
C41   C67   S    
C25   H59   S    
C10   H24   S    
C49   O16   A    
C81   C96   A    
C15   O22   S    
C78   C92   A    
C109  O28   S    
C30   H73   S    
C71   C99   A    
C25   H60   S    
C67   C90   A    
C28   H66   S    
C46   O13   A    
C63   C89   A    
C46   C64   S    
Cu6   O10   S    
C39   C79   A    
C32   C125  A    
C122  C126  A    
C8    H18   S    
C67   C116  A    
C64   C83   A    
C31   H75   S    
C36   C56   A    
C21   H50   S    
C75   C102  A    
C8    O19   S    
C26   O28   S    
Cu6   O33   S    
C73   C105  A    
C108  O29   S    
C84   H10   S    
C43   C65   S    
C39   C59   A    
C5    C34   A    
C40   O6    A    
C17   C18   S    
C11   H27   S    
C96   C126  A    
C24   C75   A    
C118  C124  A    
C12   H28   S    
Cu3   O2    S    
C19   H46   S    
C107  C115  A    
C35   C55   A    
C69   C88   A    
C44   O35   A    
Cu2   O6    S    
C18   H42   S    
Cu1   O1    S    
C65   C94   A    
C90   H56   S    
C12   C14   S    
C52   C105  A    
C34   C54   A    
C88   H34   S    
C91   C124  A    
C51   O17   A    
C111  O19   S    
C87   H23   S    
C27   H63   S    
C66   C105  A    
Cu2   O12   S    
Cu5   Cu6   S    
C103  C121  A    
C58   C85   A    
C119  C125  A    
C23   H57   S    
C42   O2    A    
C50   C82   A    
C12   O21   S    
C7    H16   S    
C107  O30   S    
C92   C106  A    
C76   C101  A    
C6    H13   S    
C110  C114  A    
C27   H65   S    
C9    H19   S    
C29   H70   S    
C40   O4    A    
C53   C94   A    
C115  O21   S    
C108  C117  A    
C43   O9    A    
C100  C113  A    
C30   O30   S    
C48   O31   A    
C42   O8    A    
Cu5   O32   S    
C19   O25   S    
C60   C87   A    
C104  C111  A    
C41   O7    A    
C61   C84   A    
C17   H39   S    
Cu1   O4    S    
C71   H67   S    
C6    C7    S    
C43   O34   A    
C80   H7    S    
C30   H72   S    
C96   C109  A    
C21   H51   S    
C102  C120  A    
C45   O11   A    
C13   C69   A    
C22   H53   S    
Cu4   O14   S    
C8    H17   S    
Cu3   Cu4   S    
C59   C86   A    
C50   C60   A    
C31   H76   S    
C50   C54   A    
C36   C122  A    
C2    C56   A    
C1    C58   A    
C93   C107  A    
C23   H55   S    
C48   O15   A    
C28   H68   S    
Cu1   O5    S    
C39   C53   A    
C62   C88   A    
C3    C36   A    
C16   H36   S    
C23   O27   S    
C99   C112  A    
C55   C61   A    
C22   H54   S    
C76   C116  A    
C45   C63   S    
Cu3   O15   S    
C100  C122  A    
C84   C93   A    
C23   C25   S    
C14   H32   S    
C61   C62   A    
C1    C52   A    
C73   C98   A    
C4    C35   A    
C95   C108  A    
C49   C58   S    
C99   C119  A    
C4    C93   A    
C18   H41   S    
C16   H38   S    
C49   O1    A    
C104  O26   S    
C79   H6    S    
C51   C59   S    
C63   C72   A    
C34   C120  A    
Cu2   O16   S    
Cu3   O23   S    
C10   C11   S    
C2    C77   A    
C15   H33   S    
C75   H2    S    
Cu5   O13   S    
C27   H64   S    
C38   O3    A    
C101  C114  A    
C68   C89   A    
C6    H11   S    
C26   H61   S    
C45   O32   A    
C37   C57   A    
Cu1   Cu2   S    
C11   H26   S    
C85   H1    S    
C74   C103  A    
C13   C55   A    
C26   H62   S    
