data_mof_unit_52595.cif
_audit_creation_date              2012-12-11T15:39:30-0500
_audit_creation_method            fapswitch 2.2
_symmetry_space_group_name_H-M    P1
_symmetry_Int_Tables_number       1
_space_group_crystal_system       triclinic
_cell_length_a                    7.005116
_cell_length_b                    15.180248
_cell_length_c                    16.519577
_cell_angle_alpha                 95.424833
_cell_angle_beta                  90.287736
_cell_angle_gamma                 90.319877
_cell_volume                      1748.75941442

loop_
_atom_site_label
_atom_site_type_symbol
_atom_type_description
_atom_site_fract_x
_atom_site_fract_y
_atom_site_fract_z
_atom_type_partial_charge
O1    O     O_R   0.633330 0.174290 0.828230 -0.535041
O2    O     O_R   0.366670 0.825710 0.171770 -0.534895
O3    O     O_R   0.301450 0.154140 0.662030 -0.515711
O4    O     O_R   0.698550 0.845860 0.337970 -0.515428
O5    O     O_R   0.133140 0.325730 0.671770 -0.532873
O6    O     O_R   0.866860 0.674270 0.328230 -0.534651
C1    C     C_R   0.469638 0.133734 0.631759 0.791880
C2    C     C_R   0.530383 0.866159 0.368317 0.794178
O7    O     O_R   0.303490 0.163670 0.827000 -0.534433
O8    O     O_R   0.696510 0.836330 0.173000 -0.531877
O9    O     O_R   0.135190 0.335320 0.837920 -0.554284
O10   O     O_R   0.864810 0.664680 0.162080 -0.549538
C3    C     C_R   0.472832 0.141106 0.851858 0.732235
C4    C     C_R   0.527752 0.855679 0.145316 0.728372
O11   O     O_R   0.631280 0.164690 0.662080 -0.523394
O12   O     O_R   0.368720 0.835310 0.337920 -0.522836
O13   O     O_3   0.467420 0.306310 0.753380 -0.387437
O14   O     O_3   0.532580 0.693690 0.246620 -0.385496
V1    V     V_3+5 0.191790 0.239560 0.749370 1.479828
V2    V     V_3+5 0.808210 0.760440 0.250630 1.483697
O15   O     O_R   0.805590 0.345870 0.837970 -0.546552
O16   O     O_R   0.194410 0.654130 0.162030 -0.547516
C5    C     C_R   0.974283 0.366365 0.868305 0.664515
C6    C     C_R   0.025577 0.632904 0.132826 0.655824
O17   O     O_R   0.803560 0.336340 0.672990 -0.533957
O18   O     O_R   0.196440 0.663660 0.327010 -0.533394
C7    C     C_R   0.972378 0.356749 0.646229 0.744485
C8    C     C_R   0.027618 0.643251 0.353771 0.741407
V3    V     V_3+5 0.692030 0.260450 0.750630 1.451015
V4    V     V_3+5 0.307970 0.739550 0.249370 1.454468
O19   O     O_3   0.966260 0.193700 0.746610 -0.345134
O20   O     O_3   0.033740 0.806300 0.253390 -0.345401
C9    C     C_1   0.982746 0.418745 0.583720 -0.184299
C10   C     C_1   0.017225 0.581246 0.416270 -0.182600
C11   C     C_1   0.993349 0.469962 0.531069 0.019718
C12   C     C_1   0.006601 0.530025 0.468915 0.019846
C13   C     C_3   0.935467 0.575820 0.977329 0.100053
C14   C     C_3   0.063472 0.423279 0.026091 0.102153
C15   C     C_3   0.104801 0.521792 0.939591 0.097532
C16   C     C_3   0.894034 0.477238 0.064235 0.077686
C17   C     C_3   0.984805 0.435974 0.940294 -0.093563
C18   C     C_3   0.013939 0.562303 0.062657 -0.100846
C19   C     C_3   0.813533 0.490304 0.978307 -0.213111
C20   C     C_3   0.184860 0.508854 0.025277 -0.192066
H1    H     H_    0.662078 0.482088 0.958766 0.113089
H2    H     H_    0.336170 0.518106 0.044576 0.109927
C21   C     C_3   0.667887 0.040686 0.514277 0.210425
C22   C     C_3   0.332190 0.959062 0.485923 0.211577
C23   C     C_3   0.629936 0.940809 0.521256 -0.212650
C24   C     C_3   0.370143 0.058942 0.478932 -0.212306
H3    H     H_    0.722777 0.889923 0.544124 0.189161
H4    H     H_    0.277321 0.109830 0.456055 0.189707
C25   C     C_3   0.518305 0.935643 0.439929 -0.165992
C26   C     C_3   0.481766 0.064122 0.560258 -0.164651
C27   C     C_3   0.556670 0.034454 0.433002 0.144541
C28   C     C_3   0.443422 0.965305 0.567206 0.145270
C29   C     C_1   0.484139 0.075922 0.911611 -0.160561
C30   C     C_1   0.517974 0.915488 0.080900 -0.170268
C31   C     C_1   0.495210 0.023762 0.963518 0.008465
C32   C     C_1   0.508033 0.964872 0.026697 0.014675
C33   C     C_3   0.221543 0.538376 0.864570 -0.353793
C34   C     C_3   0.322313 0.628461 0.872402 -0.349114
C35   C     C_3   0.363977 0.657815 0.788029 -0.711066
H5    H     H_    0.467624 0.612478 0.755288 0.222230
H6    H     H_    0.231563 0.658071 0.750864 0.229909
H7    H     H_    0.421345 0.726141 0.793618 0.245406
H8    H     H_    0.236437 0.680072 0.906780 0.205278
H9    H     H_    0.455203 0.623366 0.908023 0.191063
H10   H     H_    0.330785 0.485781 0.854182 0.178405
H11   H     H_    0.122967 0.532191 0.811371 0.159741
C36   C     C_3   0.771107 0.465520 0.139905 -0.352135
C37   C     C_3   0.740957 0.369854 0.158942 -0.341346
C38   C     C_3   0.587370 0.364641 0.223637 -0.715276
H12   H     H_    0.627423 0.406989 0.279777 0.230423
H13   H     H_    0.447980 0.387001 0.201059 0.219820
H14   H     H_    0.572868 0.295415 0.239293 0.243638
H15   H     H_    0.702093 0.327584 0.103066 0.205096
H16   H     H_    0.873938 0.344017 0.184080 0.202448
H17   H     H_    0.840106 0.500850 0.194394 0.166651
H18   H     H_    0.631100 0.497474 0.131154 0.179290
C39   C     C_3   0.863941 0.668054 0.961309 -0.361176
C40   C     C_3   0.833190 0.680137 0.871229 -0.340474
C41   C     C_3   0.768944 0.774410 0.860887 -0.709316
H19   H     H_    0.744115 0.781906 0.795465 0.239391
H20   H     H_    0.635427 0.789929 0.895184 0.226822
H21   H     H_    0.881420 0.822516 0.883676 0.235586
H22   H     H_    0.965049 0.668851 0.836236 0.218270
H23   H     H_    0.729208 0.630966 0.844027 0.200638
H24   H     H_    0.727831 0.680342 0.994651 0.164557
H25   H     H_    0.969031 0.718218 0.987287 0.158716
C42   C     C_3   0.131783 0.337697 0.057857 -0.374597
C43   C     C_3   0.321624 0.305614 0.021773 -0.333936
C44   C     C_3   0.383531 0.222328 0.059468 -0.741610
H26   H     H_    0.385152 0.233156 0.126726 0.248228
H27   H     H_    0.282346 0.167349 0.041375 0.236108
H28   H     H_    0.529304 0.203606 0.038711 0.209271
H29   H     H_    0.308544 0.290108 0.955313 0.211760
H30   H     H_    0.431514 0.358171 0.033595 0.194322
H31   H     H_    0.152247 0.350805 0.124500 0.177116
H32   H     H_    0.020701 0.285669 0.044931 0.169754
I1    I     I_    0.920099 0.119104 0.530529 -0.339311
I2    I     I_    0.080122 0.880520 0.469741 -0.341173
I3    I     I_    0.639309 0.089223 0.323488 -0.400817
I4    I     I_    0.361179 0.910460 0.676759 -0.417767

loop_
_geom_bond_atom_site_label_1
_geom_bond_atom_site_label_2
_ccdc_geom_bond_type
C33   H11   S    
V4    O20   S    
C35   H6    S    
C44   H26   S    
C21   I1    S    
C16   C36   S    
C6    C18   S    
C38   H12   S    
C11   C12   S    
O4    C2    A    
V1    O19   S    
C36   H17   S    
C39   C40   S    
C43   H30   S    
C15   C17   S    
C7    C9    S    
O9    V1    S    
C24   C26   S    
C34   H8    S    
O3    C1    A    
C40   H23   S    
C29   C31   T    
C3    C29   S    
O12   V4    S    
C40   H22   S    
C27   I3    S    
O13   V3    S    
C13   C18   S    
O7    C3    A    
C37   H16   S    
C37   H15   S    
C9    C11   T    
O5    C7    A    
O7    V1    S    
C16   C19   S    
O6    C8    A    
O8    V2    S    
C23   H3    S    
C24   H4    S    
O3    V1    S    
O14   V4    S    
C42   H32   S    
C10   C12   T    
C39   H24   S    
C1    O11   A    
C35   H7    S    
C8    C10   S    
C31   C32   S    
C2    O12   A    
C17   C19   S    
C13   C39   S    
C18   C20   S    
C15   C33   S    
C36   H18   S    
C20   H2    S    
C43   H29   S    
O11   V3    S    
C25   C27   S    
O17   V3    S    
C22   C25   S    
C4    C30   S    
C26   C28   S    
C28   I4    S    
C14   C17   S    
C21   C23   S    
O8    C4    A    
C42   C43   S    
C37   C38   S    
O15   V3    S    
C14   C42   S    
C13   C19   S    
C14   C20   S    
C34   C35   S    
C41   H19   S    
C22   I2    S    
O10   V2    S    
O1    V3    S    
C22   C24   S    
C19   H1    S    
C21   C26   S    
C39   H25   S    
C41   H20   S    
O18   V4    S    
C44   H28   S    
O15   C5    A    
C38   H14   S    
O16   C6    A    
O1    C3    A    
C38   H13   S    
C21   C27   S    
V2    O20   S    
C33   H10   S    
C22   C28   S    
O16   V4    S    
C16   C18   S    
C2    C25   S    
C15   C20   S    
O5    V1    S    
O17   C7    A    
C23   C28   S    
O6    V2    S    
O10   C6    A    
O18   C8    A    
C24   C27   S    
C5    C17   S    
C34   H9    S    
O2    V4    S    
C36   C37   S    
V3    O19   S    
C14   C16   S    
C23   C25   S    
O9    C5    A    
C43   C44   S    
O13   V1    S    
O14   V2    S    
C33   C34   S    
O2    C4    A    
C35   H5    S    
O4    V2    S    
C13   C15   S    
C41   H21   S    
C44   H27   S    
C40   C41   S    
C1    C26   S    
C42   H31   S    
C30   C32   T    
