data_mof_unit_67987.cif
_audit_creation_date              2013-03-05T16:49:26-0500
_audit_creation_method            fapswitch 2.2
_symmetry_space_group_name_H-M    P1
_symmetry_Int_Tables_number       1
_space_group_crystal_system       triclinic
_cell_length_a                    11.032078
_cell_length_b                    9.055381
_cell_length_c                    8.314221
_cell_angle_alpha                 91.760136
_cell_angle_beta                  91.012259
_cell_angle_gamma                 91.168474
_cell_volume                      829.884328399

loop_
_atom_site_label
_atom_site_type_symbol
_atom_site_description
_atom_site_fract_x
_atom_site_fract_y
_atom_site_fract_z
_atom_type_partial_charge
O1    O     O_R   0.499990 0.285340 0.636850 -0.675139
O2    O     O_R   0.500010 0.714660 0.363150 -0.679393
O3    O     O_R   0.500010 0.285350 0.363100 -0.603253
O4    O     O_R   0.499990 0.714650 0.636900 -0.583963
C1    C     C_R   0.499957 0.218585 0.498426 0.902850
C2    C     C_R   0.499926 0.781424 0.501594 0.938968
O5    O     O_R   0.316750 0.500000 0.636870 -0.559005
O6    O     O_R   0.683250 0.500000 0.363130 -0.547435
O7    O     O_R   0.316770 0.500020 0.363120 -0.655512
O8    O     O_R   0.683230 0.499980 0.636880 -0.674928
C3    C     C_R   0.259824 0.500446 0.498343 0.965888
C4    C     C_R   0.740208 0.498234 0.501556 0.954505
Zn1   Zn    Zn3+2 0.499990 0.499990 0.682780 0.973760
Zn2   Zn    Zn3+2 0.500010 0.500010 0.317220 0.968907
H1    H     H_    0.312739 0.352752 0.850562 0.232791
H2    H     H_    0.674520 0.654402 0.141201 0.239794
C5    C     C_R   0.229272 0.511730 0.003742 0.528017
C6    C     C_R   0.767923 0.490154 0.002651 0.501566
C7    C     C_R   0.149037 0.532133 0.131658 0.376475
C8    C     C_R   0.854410 0.466599 0.883405 0.357164
C9    C     C_R   0.107918 0.405359 0.212366 -0.128582
C10   C     C_R   0.890051 0.587492 0.790390 -0.117299
C11   C     C_R   0.130765 0.261562 0.153804 0.520306
C12   C     C_R   0.860667 0.732764 0.836787 0.429562
C13   C     C_R   0.199078 0.241070 0.015182 0.408859
C14   C     C_R   0.785944 0.758276 0.968923 0.381974
C15   C     C_R   0.249735 0.367252 0.945115 -0.466844
C16   C     C_R   0.736850 0.635547 0.045705 -0.498376
C17   C     C_R   0.932535 0.415123 0.383891 0.602675
C18   C     C_R   0.067745 0.567382 0.622315 0.611758
C19   C     C_R   0.873259 0.492686 0.505468 -0.387358
C20   C     C_R   0.126767 0.498620 0.495982 -0.291991
C21   C     C_R   0.943173 0.557519 0.633470 -0.040860
C22   C     C_R   0.057330 0.427703 0.371710 -0.086753
C23   C     C_1   0.499917 0.065056 0.497839 -0.224505
C24   C     C_1   0.499818 0.934971 0.502271 -0.212129
N1    N     N_1   0.500020 0.500030 0.073640 -0.056643
N2    N     N_1   0.499980 0.499970 0.926360 -0.046917
O9    O     O_3   0.287472 0.627025 0.925598 -0.530361
C25   C     C_3   0.326143 0.748259 0.025466 -0.117910
H3    H     H_    0.354319 0.715352 0.147010 0.192303
H4    H     H_    0.254190 0.831151 0.033042 0.227964
H5    H     H_    0.406037 0.801803 0.970571 0.154624
O10   O     O_3   0.716195 0.376315 0.087875 -0.511308
C26   C     C_3   0.675366 0.255518 0.989240 -0.114942
H6    H     H_    0.595441 0.203407 0.045603 0.158088
H7    H     H_    0.746435 0.172469 0.983667 0.239724
H8    H     H_    0.647205 0.286729 0.866638 0.138370
O11   O     O_3   0.139898 0.672420 0.203301 -0.632916
C27   C     C_3   0.019294 0.717645 0.217167 -0.306312
H9    H     H_    0.951962 0.636388 0.166986 0.146475
H10   H     H_    0.009028 0.823523 0.156287 0.210539
H11   H     H_    0.999685 0.739820 0.345800 0.194902
O12   O     O_3   0.915839 0.333921 0.877381 -0.602608
C28   C     C_3   0.884572 0.246875 0.738153 -0.286354
H12   H     H_    0.799594 0.276804 0.676654 0.156504
H13   H     H_    0.864667 0.133348 0.772281 0.217008
H14   H     H_    0.962078 0.244030 0.655104 0.182117
O13   O     O_3   0.085131 0.140468 0.232551 -0.557043
C29   C     C_3   0.176000 0.088632 0.336932 -0.272117
H15   H     H_    0.208812 0.176453 0.424553 0.108971
H16   H     H_    0.253477 0.043484 0.268720 0.189376
H17   H     H_    0.136845 0.997527 0.407023 0.202462
O14   O     O_3   0.903444 0.849104 0.749057 -0.621724
C30   C     C_3   0.000366 0.920030 0.835905 -0.144617
H18   H     H_    0.065065 0.842658 0.888978 0.226861
H19   H     H_    0.967147 0.992016 0.935440 0.220812
H20   H     H_    0.050698 0.989768 0.751585 0.194089
O15   O     O_3   0.218351 0.095524 0.962499 -0.628424
C31   C     C_3   0.286265 0.081536 0.820681 -0.382065
H21   H     H_    0.382410 0.115335 0.844804 0.197115
H22   H     H_    0.244913 0.143067 0.720565 0.165210
H23   H     H_    0.285509 0.963718 0.780303 0.222845
O16   O     O_3   0.758333 0.903554 0.011637 -0.614780
C32   C     C_3   0.735844 0.924317 0.177911 -0.309044
H24   H     H_    0.793856 0.855965 0.255735 0.159430
H25   H     H_    0.638364 0.903191 0.200652 0.185473
H26   H     H_    0.756853 0.040717 0.214815 0.248943
F1    F     F_    0.871342 0.319064 0.283725 -0.608527
F2    F     F_    0.130447 0.656295 0.726359 -0.658086

loop_
_geom_bond_atom_site_label_1
_geom_bond_atom_site_label_2
_geom_bond_distance
_ccdc_geom_bond_type
H2    C16   1.071506 S    
C28   H12   1.102593 S    
C23   C24   1.179656 T    
O7    Zn2   2.063840 S    
C26   H6    1.109487 S    
C11   O13   1.384838 S    
C29   H17   1.109367 S    
O1    C1    1.283431 A    
C7    C9    1.418010 A    
C12   C14   1.401440 A    
C29   H16   1.111970 S    
C5    O9    1.397658 S    
O4    Zn1   1.992367 S    
C5    C7    1.405903 A    
C25   H5    1.109341 S    
C30   H19   1.109682 S    
C27   H10   1.104757 S    
C19   C21   1.409371 A    
C31   H21   1.111046 S    
C18   F2    1.337317 S    
C25   H4    1.104833 S    
O13   C29   1.411349 S    
C12   O14   1.379749 S    
O2    C2    1.283642 A    
C26   H7    1.098012 S    
C27   H11   1.107999 S    
O16   C32   1.416370 S    
C5    C15   1.406054 A    
C6    C16   1.404582 A    
C8    O12   1.391388 S    
O9    C25   1.410333 S    
C9    C22   1.456647 S    
C17   C22   1.384891 A    
C29   H15   1.112441 S    
C20   C22   1.406399 A    
O5    C3    1.302216 A    
C32   H24   1.112422 S    
N1    N2    1.224493 T    
C6    O10   1.387651 S    
O7    C3    1.297488 A    
C7    O11   1.392708 S    
H1    C15   1.065388 S    
C17   F1    1.348185 S    
O6    C4    1.302174 A    
C30   H20   1.106902 S    
C31   H23   1.108402 S    
C27   H9    1.102341 S    
C32   H25   1.108995 S    
Zn1   N2    2.025185 S    
O3    Zn2   1.992366 S    
O8    C4    1.298290 A    
O4    C2    1.293423 A    
C25   H3    1.103544 S    
C8    C10   1.412904 A    
C3    C20   1.467428 S    
O11   C27   1.405705 S    
C28   H13   1.093843 S    
C4    C19   1.469537 S    
C10   C12   1.405360 A    
C13   O15   1.397630 S    
O10   C26   1.408433 S    
C26   H8    1.107035 S    
C10   C21   1.459806 S    
O12   C28   1.413870 S    
O6    Zn2   2.050605 S    
C18   C21   1.380302 A    
O3    C1    1.293530 A    
O8    Zn1   2.063840 S    
C13   C15   1.408411 A    
C14   C16   1.402579 A    
O14   C30   1.411882 S    
C9    C11   1.405325 A    
C17   C19   1.393258 A    
Zn2   N1    2.025185 S    
C18   C20   1.384008 A    
C1    C23   1.390113 S    
C14   O16   1.393216 S    
C2    C24   1.390295 S    
C6    C8    1.402694 A    
C11   C13   1.397852 A    
O15   C31   1.411949 S    
O2    Zn2   1.969352 S    
C32   H26   1.107490 S    
O5    Zn1   2.050605 S    
O1    Zn1   1.969351 S    
C30   H18   1.106041 S    
C28   H14   1.108703 S    
C31   H22   1.112153 S    
