data_mof_unit_32793.cif
_audit_creation_date              2013-03-05T15:53:24-0500
_audit_creation_method            fapswitch 2.2
_symmetry_space_group_name_H-M    P1
_symmetry_Int_Tables_number       1
_space_group_crystal_system       triclinic
_cell_length_a                    10.619016
_cell_length_b                    10.69715
_cell_length_c                    16.944767
_cell_angle_alpha                 98.750816
_cell_angle_beta                  98.800602
_cell_angle_gamma                 61.74961
_cell_volume                      1668.53849515

loop_
_atom_site_label
_atom_site_type_symbol
_atom_site_description
_atom_site_fract_x
_atom_site_fract_y
_atom_site_fract_z
_atom_type_partial_charge
O1    O     O_R   0.751220 0.499230 0.435170 -0.500340
O2    O     O_R   0.477220 0.727600 0.436870 -0.464480
C1    C     C_R   0.377338 0.719391 0.386167 0.551265
O3    O     O_R   0.258650 0.745120 0.411470 -0.528516
O4    O     O_R   0.297070 0.467240 0.395960 -0.522495
C2    C     C_R   0.370625 0.347118 0.358781 0.526222
O5    O     O_R   0.488830 0.252610 0.387790 -0.507535
O6    O     O_R   0.724400 0.302390 0.420980 -0.515736
C3    C     C_R   0.780570 0.374776 0.403380 0.523378
O7    O     O_R   0.752100 0.501210 0.612190 -0.494200
O8    O     O_R   0.478040 0.729440 0.600970 -0.465053
C4    C     C_R   0.353866 0.778101 0.625668 0.581814
O9    O     O_R   0.259530 0.747110 0.588490 -0.506756
O10   O     O_R   0.297880 0.469080 0.560050 -0.484477
C5    C     C_R   0.366503 0.345794 0.584887 0.573035
O11   O     O_R   0.489720 0.254590 0.564810 -0.498674
O12   O     O_R   0.725220 0.304230 0.585080 -0.480321
C6    C     C_R   0.779165 0.377210 0.628212 0.575770
Cr1   Cr    Cr6+3 0.608340 0.611040 0.520430 1.080154
Cr2   Cr    Cr6+3 0.287650 0.601120 0.489350 1.038620
Cr3   Cr    Cr6+3 0.604040 0.287870 0.490280 1.048004
O13   O     O_3   0.500010 0.500010 0.500020 -0.258683
C7    C     C_1   0.344033 0.336797 0.275026 -0.067719
C8    C     C_1   0.332417 0.326336 0.203832 -0.050324
C9    C     C_3   0.760794 0.276072 0.203340 -0.107103
C10   C     C_3   0.703121 0.417126 0.257788 -0.035481
H1    H     H_    0.588867 0.484407 0.269097 0.129178
H2    H     H_    0.694076 0.231425 0.165308 0.153180
C11   C     C_3   0.824139 0.343780 0.323091 0.048869
C12   C     C_3   0.880859 0.202850 0.269982 -0.145665
C13   C     C_3   0.979448 0.249172 0.237248 -0.154061
C14   C     C_3   0.921690 0.390001 0.291787 -0.129554
C15   C     C_3   0.801910 0.462972 0.225792 -0.038688
C16   C     C_3   0.858069 0.323018 0.172346 0.053247
H3    H     H_    0.912728 0.097985 0.291333 0.123884
H4    H     H_    0.093152 0.185091 0.224908 0.102417
H5    H     H_    0.988458 0.434859 0.329578 0.132149
H6    H     H_    0.775536 0.566280 0.204782 0.192188
C17   C     C_3   0.408370 0.743219 0.191195 0.231055
C18   C     C_3   0.299096 0.727598 0.233340 -0.150049
H7    H     H_    0.276517 0.634946 0.225091 0.134698
C19   C     C_3   0.356620 0.782471 0.312573 0.053310
C20   C     C_3   0.465525 0.796490 0.270035 0.226490
C21   C     C_3   0.357268 0.952375 0.256622 -0.168433
C22   C     C_3   0.246817 0.937836 0.300223 -0.152831
C23   C     C_3   0.188899 0.883645 0.220230 -0.157848
C24   C     C_3   0.299928 0.896735 0.177494 0.004680
H8    H     H_    0.381710 0.043730 0.264508 0.123004
H9    H     H_    0.181197 0.015938 0.347162 0.135722
H10   H     H_    0.074290 0.920073 0.197903 0.145778
C25   C     C_3   0.456921 0.253872 0.774792 -0.124783
C26   C     C_3   0.396099 0.394503 0.737616 0.229867
H11   H     H_    0.565568 0.199683 0.806876 0.149368
C27   C     C_3   0.334981 0.333626 0.662396 -0.005543
C28   C     C_3   0.393844 0.191874 0.699829 -0.171918
C29   C     C_3   0.249735 0.251593 0.737454 -0.172458
C30   C     C_3   0.190312 0.394112 0.698510 -0.165135
C31   C     C_3   0.254779 0.453077 0.773508 0.249625
C32   C     C_3   0.313777 0.314550 0.811177 0.070405
H12   H     H_    0.449244 0.084111 0.667934 0.143209
H13   H     H_    0.189514 0.191505 0.740438 0.103084
H14   H     H_    0.082174 0.450884 0.666432 0.132572
C33   C     C_1   0.825499 0.338220 0.708036 0.008610
C34   C     C_1   0.851247 0.311455 0.776587 0.004111
C35   C     C_1   0.334149 0.821036 0.708121 0.001394
C36   C     C_1   0.309690 0.846387 0.777006 0.004967
O14   O     O_R   0.171830 0.913880 0.057510 -0.479663
O15   O     O_R   0.940690 0.186050 0.054730 -0.525017
C37   C     C_R   0.893752 0.309809 0.091476 0.587188
O16   O     O_R   0.920470 0.405720 0.075010 -0.492273
O17   O     O_R   0.196690 0.370460 0.084120 -0.493890
C38   C     C_R   0.319398 0.299212 0.120210 0.570429
O18   O     O_R   0.412990 0.180750 0.091610 -0.519220
O19   O     O_R   0.366620 0.943130 0.065760 -0.445551
C39   C     C_R   0.260579 0.952677 0.099872 0.555252
O20   O     O_R   0.160510 0.906330 0.879210 -0.485483
O21   O     O_R   0.930190 0.179050 0.889450 -0.511055
C40   C     C_R   0.888544 0.297722 0.859953 0.579655
O22   O     O_R   0.909140 0.398170 0.896710 -0.474332
O23   O     O_R   0.186190 0.363460 0.918830 -0.468460
C41   C     C_R   0.306652 0.291460 0.890825 0.598367
O24   O     O_R   0.401670 0.173200 0.913310 -0.526695
O25   O     O_R   0.356120 0.936130 0.900470 -0.482245
C42   C     C_R   0.278885 0.886922 0.858222 0.609781
Cr4   Cr    Cr6+3 0.054020 0.052700 0.970850 1.060167
Cr5   Cr    Cr6+3 0.059230 0.375120 0.993390 1.091921
Cr6   Cr    Cr6+3 0.374950 0.061200 0.992340 1.077471
O26   O     O_3   0.162740 0.163010 0.985530 -0.325685
N1    N     N_R   0.475417 0.475194 0.743887 0.048785
O27   O     O_R   0.518520 0.517300 0.814038 -0.318205
O28   O     O_R   0.503978 0.505122 0.679844 -0.332206
O29   O     O_3   0.185964 0.587885 0.814726 -0.635139
H15   H     H_    0.156332 0.656318 0.773920 0.332056
N2    N     N_R   0.492716 0.640653 0.128912 0.079274
O30   O     O_R   0.577162 0.666616 0.093567 -0.316158
O31   O     O_R   0.474266 0.528925 0.103487 -0.350105
O32   O     O_3   0.608760 0.751555 0.300053 -0.694697
H16   H     H_    0.643806 0.801314 0.271240 0.325271

loop_
_geom_bond_atom_site_label_1
_geom_bond_atom_site_label_2
_geom_bond_distance
_ccdc_geom_bond_type
O25   Cr6   1.943602 S    
Cr6   O26   1.978104 S    
C1    C19   1.445812 S    
O11   Cr3   2.051921 S    
C28   C29   1.550972 S    
O20   C42   1.271597 A    
C32   C41   1.427789 S    
C41   O24   1.258677 A    
C30   H14   1.110030 S    
O4    Cr2   1.946399 S    
O21   C40   1.284869 A    
C9    H2    1.110091 S    
C18   C23   1.545724 S    
O8    Cr1   1.942688 S    
C10   H1    1.108726 S    
C12   H3    1.109243 S    
C11   C14   1.526999 S    
C12   C13   1.549714 S    
O23   C41   1.263556 A    
Cr5   O26   1.991497 S    
C6    C33   1.421026 S    
O24   Cr6   2.058028 S    
C29   C30   1.557535 S    
O12   C6    1.262301 A    
O18   Cr6   2.062684 S    
O23   Cr5   1.934792 S    
C23   C24   1.543521 S    
O25   C42   1.255635 A    
O15   C37   1.268172 A    
C7    C8    1.187229 T    
O19   Cr6   1.941214 S    
N1    O28   1.292467 A    
C21   C24   1.540515 S    
C3    C11   1.443960 S    
C9    C16   1.527206 S    
C18   C19   1.539126 S    
O21   Cr4   1.946323 S    
C28   H12   1.110297 S    
O15   Cr4   1.945421 S    
C26   N1    1.448692 S    
C37   O16   1.264058 A    
C26   C27   1.537616 S    
O32   H16   0.991156 S    
O14   Cr4   2.066217 S    
O1    Cr1   2.060783 S    
O19   C39   1.298023 A    
C25   C26   1.523514 S    
C5    C27   1.442822 S    
O10   Cr2   1.942112 S    
Cr1   O13   1.974905 S    
O1    C3    1.264928 A    
C17   C18   1.535522 S    
C40   O22   1.251989 A    
O6    C3    1.267364 A    
C17   C20   1.524933 S    
C31   C32   1.510752 S    
O5    Cr3   2.059714 S    
O12   Cr3   1.939599 S    
C25   H11   1.110640 S    
C19   C22   1.536936 S    
C20   C21   1.540946 S    
C17   N2    1.458239 S    
C11   C12   1.529324 S    
O17   Cr5   1.940239 S    
C10   C15   1.541731 S    
C13   C14   1.541051 S    
O10   C5    1.269911 A    
C22   H9    1.110165 S    
O7    Cr1   2.063982 S    
C15   C16   1.524694 S    
C13   C16   1.536729 S    
C14   H5    1.110250 S    
N2    O31   1.300618 A    
C16   C37   1.445892 S    
C26   C31   1.512514 S    
C18   H7    1.109899 S    
Cr2   O13   1.978286 S    
C25   C32   1.530684 S    
C19   C20   1.526964 S    
C1    O3    1.284177 A    
O16   Cr5   2.054350 S    
C21   C22   1.555139 S    
C8    C38   1.401415 S    
C17   C24   1.523400 S    
Cr4   O26   1.974741 S    
C9    C12   1.548363 S    
C27   C28   1.538314 S    
O9    Cr2   2.064915 S    
O2    Cr1   1.946430 S    
C29   H13   1.110655 S    
C34   C40   1.418018 S    
C20   O32   1.396000 S    
C38   O18   1.263614 A    
O6    Cr3   1.933718 S    
O8    C4    1.279702 A    
C2    O5    1.265061 A    
C4    C35   1.417759 S    
C23   H10   1.109578 S    
C15   H6    1.105735 S    
C29   C32   1.547315 S    
C14   C15   1.538871 S    
O2    C1    1.287324 A    
C9    C10   1.541925 S    
C24   C39   1.448206 S    
O17   C38   1.269100 A    
C21   H8    1.109043 S    
C30   C31   1.542779 S    
O4    C2    1.269746 A    
O7    C6    1.280843 A    
C2    C7    1.401887 S    
O29   H15   0.991149 S    
C25   C28   1.551077 S    
N2    O30   1.300251 A    
C36   C42   1.418033 S    
C33   C34   1.198302 T    
O3    Cr2   2.062583 S    
C22   C23   1.547548 S    
O14   C39   1.283857 A    
C4    O9    1.252201 A    
C10   C11   1.538194 S    
C35   C36   1.197168 T    
C13   H4    1.105272 S    
N1    O27   1.300435 A    
Cr3   O13   1.991475 S    
C31   O29   1.397671 S    
O20   Cr4   2.064693 S    
O22   Cr5   2.058330 S    
C5    O11   1.267426 A    
C27   C30   1.542521 S    
