data_mof_unit_5728.cif
_audit_creation_date              2012-12-10T17:18:19-0500
_audit_creation_method            fapswitch 2.2
_symmetry_space_group_name_H-M    P1
_symmetry_Int_Tables_number       1
_space_group_crystal_system       triclinic
_cell_length_a                    10.104493
_cell_length_b                    10.619397
_cell_length_c                    15.009731
_cell_angle_alpha                 90.066392
_cell_angle_beta                  81.204453
_cell_angle_gamma                 95.790458
_cell_volume                      1583.37015079

loop_
_atom_site_label
_atom_site_type_symbol
_atom_type_description
_atom_site_fract_x
_atom_site_fract_y
_atom_site_fract_z
_atom_type_partial_charge
C1    C     C_R   0.556927 0.734419 0.496917 0.828562
C2    C     C_2   0.073022 0.490584 0.491928 -0.119649
C3    C     C_R   0.500314 0.499888 0.673412 0.868968
C4    C     C_R   0.499683 0.500109 0.326593 0.930702
C5    C     C_R   0.621076 0.496668 0.172420 -0.220345
C6    C     C_R   0.378921 0.503374 0.827584 -0.242677
C7    C     C_R   0.499458 0.500451 0.230702 -0.079821
C8    C     C_R   0.500533 0.499545 0.769302 -0.070755
C9    C     C_R   0.378029 0.504288 0.197380 -0.219138
C10   C     C_R   0.621952 0.495668 0.802627 -0.243196
C11   C     C_R   0.377315 0.504106 0.105251 0.115437
C12   C     C_R   0.443115 0.265597 0.508651 0.825695
C13   C     C_R   0.622669 0.495876 0.894756 0.117954
C14   C     C_R   0.499878 0.500155 0.046364 0.061468
C15   C     C_R   0.500109 0.499849 0.953642 0.064581
C16   C     C_R   0.622216 0.496484 0.080185 0.114587
C17   C     C_R   0.377775 0.503539 0.919819 0.115571
C18   C     C_R   0.256273 0.507644 0.071172 -0.191380
C19   C     C_R   0.743712 0.492348 0.928835 -0.202209
C20   C     C_R   0.256495 0.507361 0.978582 -0.203527
C21   C     C_R   0.743495 0.492662 0.021424 -0.195639
C22   C     C_2   0.590195 0.869548 0.507709 0.275662
C23   C     C_2   0.410002 0.130428 0.525320 0.239900
C24   C     C_2   0.495766 0.931850 0.557130 -0.229002
C25   C     C_2   0.503440 0.068301 0.556532 -0.210036
C26   C     C_2   0.927338 0.510976 0.507028 -0.088807
H1    H     H_    0.715053 0.494178 0.198628 0.171169
H2    H     H_    0.402029 0.881814 0.590237 0.202252
H3    H     H_    0.109519 0.423343 0.441872 0.180334
H4    H     H_    0.891124 0.579496 0.556207 0.174332
H5    H     H_    0.119560 0.614391 0.584076 0.187291
H6    H     H_    0.880145 0.384339 0.416819 0.194272
H7    H     H_    0.109067 0.188499 0.505166 0.374446
H8    H     H_    0.923823 0.890775 0.369550 0.404323
H9    H     H_    0.284951 0.505905 0.801374 0.165999
H10   H     H_    0.284054 0.506834 0.242947 0.168934
H11   H     H_    0.715922 0.493081 0.757063 0.163441
H12   H     H_    0.161806 0.510624 0.116026 0.151824
H13   H     H_    0.838178 0.489360 0.883982 0.147056
H14   H     H_    0.162170 0.510150 0.952953 0.146133
H15   H     H_    0.837822 0.489887 0.047053 0.147946
H16   H     H_    0.596066 0.118600 0.572138 0.202521
N1    N     N_2   0.842700 0.448880 0.462930 -0.182560
N2    N     N_2   0.157300 0.551120 0.537070 -0.181965
O1    O     O_R   0.431060 0.692470 0.507460 -0.605071
O2    O     O_2   0.174324 0.993867 0.582465 -0.303840
O3    O     O_3   0.168205 0.155810 0.453359 -0.518648
O4    O     O_2   0.720512 0.051311 0.393601 -0.282122
O5    O     O_2   0.825496 0.000383 0.524007 -0.280706
O6    O     O_3   0.835326 0.842948 0.390894 -0.527221
O7    O     O_R   0.568940 0.307530 0.492540 -0.600021
O8    O     O_R   0.651120 0.659650 0.483670 -0.551271
O9    O     O_R   0.348880 0.340350 0.516330 -0.589042
O10   O     O_R   0.389960 0.516440 0.644050 -0.626837
O11   O     O_R   0.610040 0.483560 0.355950 -0.604588
O12   O     O_R   0.610030 0.483620 0.620260 -0.630791
O13   O     O_R   0.389970 0.516380 0.379740 -0.607465
O14   O     O_2   0.287731 0.950818 0.431512 -0.241170
S1    S     S_3+6 0.257008 0.053275 0.498412 0.055530
S2    S     S_3+6 0.746191 0.945976 0.453524 0.049058
Zn1   Zn    Zn3+2 0.353060 0.521920 0.515880 0.991856
Zn2   Zn    Zn3+2 0.646940 0.478080 0.484120 1.011698

loop_
_geom_bond_atom_site_label_1
_geom_bond_atom_site_label_2
_ccdc_geom_bond_type
C4    O13   A    
C25   H16   S    
C9    H10   S    
C11   C18   A    
C26   H4    S    
C16   C21   A    
O10   Zn1   S    
O2    S1    D    
C5    C7    A    
C3    O12   A    
C18   C20   A    
C12   O9    A    
C20   H14   S    
O12   Zn2   S    
O6    S2    S    
C17   C20   A    
C23   C25   D    
C18   H12   S    
C1    C22   S    
C2    C26   S    
C11   C14   A    
O8    Zn2   S    
C6    H9    S    
C23   S1    S    
C9    C11   A    
C12   C23   S    
C1    O1    A    
O5    S2    D    
C19   H13   S    
C10   H11   S    
O7    Zn2   S    
O1    Zn1   S    
C1    O8    A    
H6    N1    S    
C26   N1    D    
O4    S2    D    
C22   C24   D    
C13   C15   A    
C4    O11   A    
C22   S2    S    
H7    O3    S    
C3    O10   A    
C14   C16   A    
H8    O6    S    
H5    N2    S    
C13   C19   A    
O3    S1    S    
N2    Zn1   S    
O11   Zn2   S    
C12   O7    A    
C2    H3    S    
C24   C25   S    
C7    C9    A    
C3    C8    S    
C21   H15   S    
O13   Zn1   S    
C15   C17   A    
C6    C17   A    
C14   C15   A    
C5    C16   A    
C6    C8    A    
C4    C7    S    
O14   S1    D    
C5    H1    S    
O9    Zn1   S    
C8    C10   A    
C24   H2    S    
N1    Zn2   S    
C2    N2    D    
C19   C21   A    
C10   C13   A    
