data_mof_unit_28393.cif
_audit_creation_date              2012-12-11T15:09:06-0500
_audit_creation_method            fapswitch 2.2
_symmetry_space_group_name_H-M    P1
_symmetry_Int_Tables_number       1
_space_group_crystal_system       triclinic
_cell_length_a                    25.870687
_cell_length_b                    27.801045
_cell_length_c                    8.454677
_cell_angle_alpha                 90.0
_cell_angle_beta                  96.410846
_cell_angle_gamma                 90.000017
_cell_volume                      6042.85044941

loop_
_atom_site_label
_atom_site_type_symbol
_atom_type_description
_atom_site_fract_x
_atom_site_fract_y
_atom_site_fract_z
_atom_type_partial_charge
Ba1   Ba    Ba6+2 0.999910 0.465960 0.844870 1.626718
Ba2   Ba    Ba6+2 0.999910 0.534040 0.344870 1.626718
Ba3   Ba    Ba6+2 0.499910 0.965960 0.844870 1.626727
Ba4   Ba    Ba6+2 0.499910 0.034040 0.344870 1.626720
C1    C     C_3   0.995062 0.221287 0.543082 -0.071189
C2    C     C_R   0.845339 0.642097 0.593731 -0.141298
C3    C     C_3   0.501410 0.224702 0.079976 0.495620
C4    C     C_R   0.919879 0.378441 0.280985 -0.234253
C5    C     C_R   0.919879 0.621559 0.780985 -0.234254
C6    C     C_R   0.419881 0.878440 0.280985 -0.234248
C7    C     C_R   0.419879 0.121559 0.780987 -0.234251
C8    C     C_R   0.345342 0.857901 0.093728 -0.141307
C9    C     C_R   0.345339 0.142097 0.593731 -0.141299
C10   C     C_R   0.834269 0.318167 0.189403 -0.009663
C11   C     C_R   0.834267 0.681832 0.689404 -0.009663
C12   C     C_R   0.334273 0.818164 0.189398 -0.009659
C13   C     C_R   0.334268 0.181832 0.689405 -0.009663
C14   C     C_R   0.863509 0.312814 0.339556 -0.147954
C15   C     C_R   0.863508 0.687186 0.839556 -0.147954
C16   C     C_R   0.363515 0.812809 0.339547 -0.147931
C17   C     C_3   0.995067 0.778711 0.043083 -0.071192
C18   C     C_R   0.363508 0.187185 0.839557 -0.147956
C19   C     C_R   0.905173 0.343718 0.387203 0.015697
C20   C     C_R   0.905173 0.656281 0.887203 0.015697
C21   C     C_R   0.405178 0.843715 0.387198 0.015689
C22   C     C_R   0.405173 0.156281 0.887204 0.015699
C23   C     C_R   0.798597 0.233687 0.164995 -0.090923
C24   C     C_R   0.798594 0.766311 0.664997 -0.090920
C25   C     C_R   0.298599 0.733685 0.164991 -0.090913
C26   C     C_R   0.298595 0.266311 0.664998 -0.090923
C27   C     C_R   0.258804 0.699968 0.119064 0.146020
C28   C     C_3   0.495031 0.721263 0.543219 -0.071146
C29   C     C_R   0.258801 0.300029 0.619070 0.146019
C30   C     C_R   0.758803 0.199970 0.119066 0.146018
C31   C     C_R   0.758800 0.800029 0.619069 0.146016
C32   C     C_R   0.209583 0.716004 0.047344 0.068479
C33   C     C_R   0.209580 0.283994 0.547349 0.068481
C34   C     C_R   0.709581 0.216004 0.047345 0.068481
C35   C     C_R   0.709578 0.783993 0.547349 0.068482
C36   C     C_R   0.202592 0.765800 0.020652 -0.109082
C37   C     C_R   0.202588 0.234198 0.520656 -0.109082
C38   C     C_R   0.702590 0.265801 0.020652 -0.109079
C39   C     C_3   0.495060 0.278715 0.043091 -0.071178
C40   C     C_R   0.702587 0.734197 0.520656 -0.109077
C41   C     C_R   0.742778 0.298846 0.064446 -0.081311
C42   C     C_R   0.742776 0.701152 0.564450 -0.081313
C43   C     C_R   0.242781 0.798844 0.064445 -0.081312
C44   C     C_R   0.242777 0.201153 0.564450 -0.081311
C45   C     C_3   0.984020 0.289701 0.065923 0.373753
C46   C     C_3   0.984020 0.710299 0.565928 0.373749
C47   C     C_3   0.484018 0.789702 0.065947 0.373775
C48   C     C_3   0.484018 0.210297 0.565925 0.373747
C49   C     C_R   0.791256 0.283298 0.138189 0.043364
C50   C     C_R   0.887342 0.389009 0.141840 0.096960
C51   C     C_R   0.791254 0.716701 0.638191 0.043364
C52   C     C_R   0.291260 0.783295 0.138185 0.043362
C53   C     C_R   0.291255 0.216701 0.638192 0.043364
C54   C     C_R   0.136332 0.687098 0.845561 -0.130133
C55   C     C_R   0.136331 0.312901 0.345563 -0.130131
C56   C     C_R   0.636333 0.187098 0.845559 -0.130137
C57   C     C_R   0.636330 0.812900 0.345562 -0.130139
C58   C     C_R   0.097161 0.653905 0.792838 0.032877
C59   C     C_R   0.097161 0.346094 0.292839 0.032879
C60   C     C_R   0.597162 0.153905 0.792836 0.032878
C61   C     C_R   0.887342 0.610990 0.641840 0.096961
C62   C     C_R   0.597160 0.846094 0.292836 0.032857
C63   C     C_R   0.114444 0.609268 0.039593 0.058378
C64   C     C_R   0.114444 0.390731 0.539593 0.058379
C65   C     C_R   0.614444 0.109268 0.039592 0.058378
C66   C     C_R   0.614443 0.890731 0.539592 0.058380
C67   C     C_R   0.154035 0.642266 0.092410 -0.114909
C68   C     C_R   0.154033 0.357732 0.592412 -0.114910
C69   C     C_R   0.654035 0.142267 0.092409 -0.114903
C70   C     C_R   0.654032 0.857731 0.592412 -0.114887
C71   C     C_R   0.165788 0.681609 0.995805 -0.014942
C72   C     C_R   0.387344 0.889009 0.141840 0.096954
C73   C     C_R   0.165786 0.318390 0.495808 -0.014941
C74   C     C_R   0.665788 0.181609 0.995804 -0.014941
C75   C     C_R   0.665784 0.818389 0.495808 -0.014930
C76   C     C_R   0.085653 0.616082 0.891680 -0.270612
C77   C     C_R   0.085652 0.383918 0.391681 -0.270609
C78   C     C_R   0.585653 0.116081 0.891679 -0.270616
C79   C     C_R   0.585653 0.883919 0.391677 -0.270628
C80   C     C_3   0.960528 0.239922 0.036834 -0.355445
C81   C     C_3   0.960528 0.760078 0.536840 -0.355449
C82   C     C_3   0.460525 0.739923 0.036876 -0.355469
C83   C     C_R   0.387342 0.110990 0.641841 0.096958
C84   C     C_3   0.460525 0.260076 0.536850 -0.355454
C85   C     C_3   0.153233 0.469254 0.193652 0.322694
C86   C     C_3   0.153234 0.530746 0.693647 0.322689
C87   C     C_3   0.653233 0.969254 0.193650 0.322692
C88   C     C_3   0.653234 0.030746 0.693647 0.322690
C89   C     C_3   0.199369 0.441725 0.139937 -0.131213
C90   C     C_3   0.199369 0.558274 0.639929 -0.131210
C91   C     C_3   0.699369 0.941725 0.139935 -0.131217
C92   C     C_3   0.699369 0.058274 0.639927 -0.131213
C93   C     C_3   0.833062 0.529043 0.972078 0.571932
C94   C     C_R   0.845340 0.357902 0.093729 -0.141299
C95   C     C_3   0.833062 0.470957 0.472078 0.571931
C96   C     C_3   0.333062 0.029042 0.972078 0.571932
C97   C     C_3   0.333062 0.970957 0.472077 0.571930
C98   C     C_3   0.800994 0.558764 0.079961 -0.312202
C99   C     C_3   0.800994 0.441236 0.579961 -0.312201
C100  C     C_3   0.300994 0.058764 0.079961 -0.312201
C101  C     C_3   0.300994 0.941236 0.579960 -0.312192
C102  C     C_3   0.001413 0.275299 0.579983 0.495617
C103  C     C_3   0.001414 0.724699 0.079985 0.495619
C104  C     C_3   0.501392 0.775281 0.580008 0.495592
H1    H     H_    0.236497 0.458051 0.194215 0.093586
H2    H     H_    0.760502 0.455036 0.572901 0.075574
H3    H     H_    0.055682 0.679770 0.193476 0.205139
H4    H     H_    0.580965 0.772451 0.608977 0.119295
H5    H     H_    0.555674 0.820220 0.693364 0.205093
H6    H     H_    0.580983 0.227526 0.109016 0.119300
H7    H     H_    0.555680 0.179773 0.193453 0.205135
H8    H     H_    0.208992 0.389176 0.307283 0.165499
H9    H     H_    0.226292 0.373139 0.129886 0.187942
H10   H     H_    0.208992 0.610826 0.807266 0.165498
H11   H     H_    0.226291 0.626860 0.629864 0.187945
H12   H     H_    0.708989 0.889174 0.307274 0.165498
H13   H     H_    0.260502 0.044964 0.072902 0.075574
H14   H     H_    0.726291 0.873139 0.129877 0.187941
H15   H     H_    0.708993 0.110827 0.807261 0.165497
H16   H     H_    0.726290 0.126860 0.629857 0.187943
H17   H     H_    0.769386 0.514890 0.810573 0.162386
H18   H     H_    0.800283 0.566424 0.775582 0.142786
H19   H     H_    0.769386 0.485109 0.310573 0.162386
H20   H     H_    0.800283 0.433576 0.275582 0.142786
H21   H     H_    0.269385 0.014890 0.810573 0.162386
H22   H     H_    0.300282 0.066423 0.775581 0.142786
H23   H     H_    0.269385 0.985109 0.310573 0.162386
H24   H     H_    0.260503 0.955036 0.572902 0.075569
H25   H     H_    0.300283 0.933576 0.275580 0.142785
H26   H     H_    0.906293 0.532164 0.897988 0.174127
H27   H     H_    0.903011 0.552022 0.087827 0.232723
H28   H     H_    0.906293 0.467836 0.397988 0.174127
H29   H     H_    0.903011 0.447977 0.587827 0.232724
H30   H     H_    0.406293 0.032164 0.897987 0.174127
H31   H     H_    0.403010 0.052022 0.087826 0.232723
H32   H     H_    0.406292 0.967836 0.397985 0.174124
H33   H     H_    0.403011 0.947978 0.587824 0.232729
H34   H     H_    0.271879 0.634858 0.027231 0.164457
H35   H     H_    0.799690 0.597164 0.043082 0.078972
H36   H     H_    0.305113 0.643854 0.206572 0.175902
H37   H     H_    0.271879 0.365138 0.527237 0.164457
H38   H     H_    0.305111 0.356143 0.706581 0.175897
H39   H     H_    0.771878 0.134860 0.027232 0.164456
H40   H     H_    0.805114 0.143856 0.206571 0.175896
H41   H     H_    0.771876 0.865138 0.527235 0.164456
H42   H     H_    0.805110 0.856142 0.706577 0.175896
H43   H     H_    0.915501 0.216559 0.534990 0.197375
H44   H     H_    0.936749 0.233263 0.361559 0.163168
H45   H     H_    0.915507 0.783445 0.034998 0.197378
H46   H     H_    0.799691 0.402835 0.543082 0.078972
H47   H     H_    0.936750 0.766739 0.861568 0.163170
H48   H     H_    0.415463 0.716595 0.535093 0.197378
H49   H     H_    0.436743 0.733190 0.361583 0.163160
H50   H     H_    0.415501 0.283452 0.035029 0.197377
H51   H     H_    0.436737 0.266740 0.861593 0.163167
H52   H     H_    0.299690 0.097164 0.043080 0.078970
H53   H     H_    0.299690 0.902835 0.543079 0.078979
H54   H     H_    0.817815 0.556892 0.205416 0.154831
H55   H     H_    0.817815 0.443108 0.705416 0.154832
H56   H     H_    0.317815 0.056892 0.205415 0.154831
H57   H     H_    0.236497 0.541949 0.694209 0.093586
H58   H     H_    0.317815 0.943107 0.705414 0.154835
H59   H     H_    0.001600 0.294498 0.464321 -0.106493
H60   H     H_    0.001601 0.705500 0.964322 -0.106491
H61   H     H_    0.501565 0.794458 0.464306 -0.106484
H62   H     H_    0.501592 0.205507 0.964308 -0.106491
H63   H     H_    0.025485 0.209709 0.468123 0.061485
H64   H     H_    0.025489 0.790288 0.968121 0.061485
H65   H     H_    0.525452 0.709662 0.468285 0.061470
H66   H     H_    0.525480 0.290295 0.968126 0.061490
H67   H     H_    0.000536 0.200251 0.655587 0.111049
H68   H     H_    0.736497 0.958050 0.194217 0.093584
H69   H     H_    0.000543 0.799747 0.155588 0.111051
H70   H     H_    0.500500 0.700248 0.655768 0.111072
H71   H     H_    0.500538 0.299748 0.155602 0.111048
H72   H     H_    0.919067 0.240420 0.059500 0.064065
H73   H     H_    0.919069 0.759580 0.559516 0.064063
H74   H     H_    0.419067 0.740421 0.059575 0.064045
H75   H     H_    0.419064 0.259576 0.559514 0.064067
H76   H     H_    0.175838 0.636820 0.207847 0.122775
H77   H     H_    0.175837 0.363179 0.707850 0.122777
H78   H     H_    0.675838 0.136821 0.207847 0.122774
H79   H     H_    0.736498 0.041949 0.694207 0.093583
H80   H     H_    0.675835 0.863177 0.707850 0.122773
H81   H     H_    0.836084 0.220964 0.218704 0.063762
H82   H     H_    0.836082 0.779035 0.718706 0.063759
H83   H     H_    0.336086 0.720960 0.218700 0.063750
H84   H     H_    0.336083 0.279035 0.718707 0.063759
H85   H     H_    0.821086 0.365132 0.983510 0.082832
H86   H     H_    0.821085 0.634867 0.483512 0.082831
H87   H     H_    0.321088 0.865131 0.983511 0.082832
H88   H     H_    0.321085 0.134867 0.483512 0.082831
H89   H     H_    0.165504 0.779386 0.966832 0.067063
H90   H     H_    0.198111 0.444618 0.008323 0.128424
H91   H     H_    0.165500 0.220613 0.466835 0.067062
H92   H     H_    0.665502 0.279386 0.966831 0.067064
H93   H     H_    0.665499 0.720612 0.466835 0.067063
H94   H     H_    0.735495 0.336788 0.043428 0.065724
H95   H     H_    0.735494 0.663210 0.543431 0.065724
H96   H     H_    0.235499 0.836786 0.043427 0.065724
H97   H     H_    0.235494 0.163211 0.543431 0.065724
H98   H     H_    0.145479 0.715676 0.766252 0.081438
H99   H     H_    0.145477 0.284323 0.266255 0.081437
H100  H     H_    0.645479 0.215676 0.766250 0.081438
H101  H     H_    0.198112 0.555379 0.508314 0.128424
H102  H     H_    0.645476 0.784322 0.266254 0.081433
H103  H     H_    0.852785 0.285673 0.421762 0.072261
H104  H     H_    0.852784 0.714326 0.921763 0.072262
H105  H     H_    0.352791 0.785668 0.421753 0.072235
H106  H     H_    0.352784 0.214326 0.921765 0.072263
H107  H     H_    0.056372 0.589981 0.848729 0.061009
H108  H     H_    0.056372 0.410019 0.348728 0.061008
H109  H     H_    0.556372 0.089980 0.848727 0.061010
H110  H     H_    0.556373 0.910020 0.348724 0.061012
H111  H     H_    0.952797 0.401473 0.317163 0.062027
H112  H     H_    0.698112 0.944619 0.008320 0.128423
H113  H     H_    0.952797 0.598527 0.817163 0.062026
H114  H     H_    0.452798 0.901474 0.317165 0.062025
H115  H     H_    0.452797 0.098527 0.817164 0.062026
H116  H     H_    0.960893 0.315553 0.986427 0.091605
H117  H     H_    0.960893 0.684447 0.486433 0.091602
H118  H     H_    0.460888 0.815553 0.986457 0.091599
H119  H     H_    0.460893 0.184447 0.486419 0.091613
H120  H     H_    0.981415 0.299419 0.192077 -0.085315
H121  H     H_    0.981416 0.700581 0.692081 -0.085312
H122  H     H_    0.481420 0.799422 0.192101 -0.085325
H123  H     H_    0.698112 0.055379 0.508312 0.128423
H124  H     H_    0.481412 0.200575 0.692075 -0.085304
H125  H     H_    0.962768 0.228717 0.911861 0.150661
H126  H     H_    0.962766 0.771282 0.411864 0.150660
H127  H     H_    0.462755 0.728718 0.911898 0.150654
H128  H     H_    0.462766 0.271285 0.411881 0.150655
H129  H     H_    0.981974 0.213410 0.117648 0.114890
H130  H     H_    0.981977 0.786590 0.617647 0.114895
H131  H     H_    0.481977 0.713411 0.117676 0.114840
H132  H     H_    0.481970 0.286586 0.617675 0.114892
H133  H     H_    0.151000 0.462986 0.322302 -0.016318
H134  H     H_    0.760502 0.544964 0.072902 0.075574
H135  H     H_    0.151001 0.537015 0.822298 -0.016317
H136  H     H_    0.651000 0.962985 0.322300 -0.016319
H137  H     H_    0.651002 0.037016 0.822297 -0.016318
H138  H     H_    0.117121 0.456088 0.123827 0.072854
H139  H     H_    0.117121 0.543912 0.623823 0.072856
H140  H     H_    0.617121 0.956088 0.123824 0.072854
H141  H     H_    0.617121 0.043912 0.623823 0.072855
H142  H     H_    0.080987 0.272469 0.609058 0.119303
H143  H     H_    0.055683 0.320227 0.693470 0.205134
H144  H     H_    0.080988 0.727525 0.109063 0.119303
N1    N     N_3   0.051258 0.283233 0.675402 -0.445366
N2    N     N_3   0.806167 0.469395 0.311157 -0.469492
N3    N     N_3   0.306167 0.030604 0.811157 -0.469492
N4    N     N_3   0.306166 0.969395 0.311157 -0.469492
N5    N     N_3   0.884068 0.551030 0.972841 -0.513229
N6    N     N_3   0.884068 0.448970 0.472841 -0.513229
N7    N     N_3   0.384067 0.051030 0.972841 -0.513229
N8    N     N_3   0.384068 0.948970 0.472839 -0.513223
N9    N     N_3   0.269095 0.649444 0.139848 -0.513827
N10   N     N_3   0.269093 0.350553 0.639854 -0.513829
N11   N     N_3   0.769095 0.149446 0.139850 -0.513829
N12   N     N_3   0.051258 0.716764 0.175404 -0.445368
N13   N     N_3   0.769092 0.850552 0.639853 -0.513830
N14   N     N_3   0.943981 0.210175 0.458954 -0.506502
N15   N     N_3   0.943986 0.789826 0.958960 -0.506504
N16   N     N_3   0.443948 0.710147 0.459116 -0.506490
N17   N     N_3   0.443978 0.289830 0.958979 -0.506506
N18   N     N_3   0.551248 0.783224 0.675352 -0.445367
N19   N     N_3   0.551257 0.216767 0.175376 -0.445381
N20   N     N_3   0.197747 0.391293 0.184918 -0.507024
N21   N     N_3   0.197747 0.608706 0.684902 -0.507020
N22   N     N_3   0.697746 0.891293 0.184909 -0.507026
N23   N     N_3   0.697747 0.108706 0.684897 -0.507022
N24   N     N_3   0.806167 0.530605 0.811157 -0.469492
O1    O     O_2   0.898940 0.431940 0.867860 -0.477486
O2    O     O_3   0.036020 0.710937 0.532604 -0.580178
O3    O     O_3   0.536015 0.789063 0.032603 -0.580167
O4    O     O_3   0.536018 0.210938 0.532608 -0.580182
O5    O     O_3   0.058810 0.523750 0.066650 -0.498115
O6    O     O_3   0.058810 0.476250 0.566650 -0.498116
O7    O     O_3   0.558810 0.023750 0.066650 -0.498116
O8    O     O_3   0.558810 0.976250 0.566650 -0.498117
O9    O     O_3   0.941140 0.476130 0.123050 -0.506742
O10   O     O_3   0.941140 0.523870 0.623050 -0.506742
O11   O     O_3   0.441140 0.976130 0.123050 -0.506743
O12   O     O_2   0.898940 0.568060 0.367860 -0.477486
O13   O     O_3   0.441140 0.023870 0.623050 -0.506743
O14   O     O_3   0.982430 0.389880 0.635700 -0.483468
O15   O     O_3   0.982430 0.610120 0.135700 -0.483470
O16   O     O_3   0.482430 0.889880 0.635700 -0.483457
O17   O     O_3   0.482430 0.110120 0.135700 -0.483469
O18   O     O_2   0.892246 0.355340 0.706075 -0.482323
O19   O     O_2   0.892246 0.644661 0.206077 -0.482322
O20   O     O_2   0.392241 0.855348 0.706052 -0.482316
O21   O     O_2   0.392246 0.144660 0.206078 -0.482324
O22   O     O_3   0.834696 0.480621 0.025741 -0.619766
O23   O     O_2   0.398940 0.931940 0.867860 -0.477478
O24   O     O_3   0.834696 0.519378 0.525741 -0.619766
O25   O     O_3   0.334696 0.980621 0.025742 -0.619767
O26   O     O_3   0.334696 0.019378 0.525741 -0.619767
O27   O     O_3   0.961108 0.290019 0.668705 -0.596320
O28   O     O_3   0.961108 0.709981 0.168703 -0.596319
O29   O     O_3   0.461102 0.790022 0.668753 -0.596316
O30   O     O_3   0.461109 0.209981 0.168706 -0.596318
O31   O     O_2   0.100770 0.431440 0.821660 -0.459338
O32   O     O_2   0.100770 0.568560 0.321660 -0.459340
O33   O     O_2   0.600770 0.931440 0.821660 -0.459335
O34   O     O_2   0.398940 0.068060 0.367860 -0.477486
O35   O     O_2   0.600770 0.068560 0.321660 -0.459339
O36   O     O_3   0.017130 0.389790 0.053700 -0.497982
O37   O     O_3   0.017130 0.610210 0.553700 -0.497981
O38   O     O_3   0.517130 0.889790 0.053700 -0.497977
O39   O     O_3   0.517130 0.110210 0.553700 -0.497983
O40   O     O_2   0.104591 0.352441 0.967964 -0.455458
O41   O     O_2   0.104591 0.647559 0.467962 -0.455456
O42   O     O_2   0.604588 0.852439 0.967953 -0.455434
O43   O     O_2   0.604590 0.147560 0.467957 -0.455454
O44   O     O_3   0.162782 0.481839 0.670143 -0.655707
O45   O     O_3   0.162782 0.518160 0.170142 -0.655707
O46   O     O_3   0.662782 0.981839 0.670143 -0.655708
O47   O     O_3   0.662782 0.018160 0.170143 -0.655707
O48   O     O_3   0.036020 0.289062 0.032603 -0.580179
P1    P     P_3+3 0.893960 0.447890 0.040050 0.980495
P2    P     P_3+3 0.064344 0.655359 0.587661 0.971880
P3    P     P_3+3 0.564343 0.844640 0.087658 0.971912
P4    P     P_3+3 0.564344 0.155359 0.587660 0.971883
P5    P     P_3+3 0.935071 0.655065 0.096855 0.940844
P6    P     P_3+3 0.935071 0.344934 0.596855 0.940843
P7    P     P_3+3 0.435071 0.155066 0.096856 0.940841
P8    P     P_3+3 0.435071 0.844935 0.596856 0.940842
P9    P     P_3+3 0.893960 0.552110 0.540050 0.980496
P10   P     P_3+3 0.393960 0.947890 0.040050 0.980496
P11   P     P_3+3 0.393960 0.052110 0.540050 0.980494
P12   P     P_3+3 0.105800 0.447360 0.649510 0.978186
P13   P     P_3+3 0.105800 0.552640 0.149510 0.978186
P14   P     P_3+3 0.605800 0.947360 0.649510 0.978191
P15   P     P_3+3 0.605800 0.052640 0.149510 0.978186
P16   P     P_3+3 0.064344 0.344641 0.087662 0.971880

loop_
_geom_bond_atom_site_label_1
_geom_bond_atom_site_label_2
_ccdc_geom_bond_type
O41   P2    D    
C95   C99   S    
H19   N2    S    
Ba3   O33   S    
H41   N13   S    
H6    N19   S    
C69   H78   S    
O23   P10   D    
C50   P1    S    
C64   C77   A    
H14   N22   S    
O38   P3    S    
C77   H108  S    
C36   H89   S    
C19   P6    S    
C96   C100  S    
C4    C19   A    
C46   H121  S    
C80   H72   S    
C103  H60   S    
C8    C12   A    
C3    O30   S    
C42   C51   A    
C66   C70   A    
O39   P4    S    
H142  N1    S    
C17   H69   S    
Ba2   P9    S    
C47   H122  S    
C102  N1    S    
C28   H70   S    
H36   N9    S    
C90   H57   S    
Ba1   O10   S    
C40   C42   A    
Ba2   O5    S    
C15   H104  S    
O48   P16   S    
Ba3   O38   S    
C7    H115  S    
Ba1   P12   S    
O13   P11   S    
C34   C74   S    
C95   N6    S    
H44   N14   S    
Ba3   P10   S    
C29   N10   S    
C94   H85   S    
C38   C41   A    
C64   P12   S    
Ba1   O1    S    
C45   O48   S    
C48   H119  S    
C64   C68   A    
C86   H139  S    
O29   P8    S    
C47   O3    S    
C45   H120  S    
H42   N13   S    
Ba3   O23   S    
O14   P6    S    
C42   H95   S    
C70   C75   A    
C45   H116  S    
H39   N11   S    
C2    H86   S    
H18   N24   S    
C87   H140  S    
H32   N8    S    
C93   O22   S    
C100  H56   S    
C23   C49   A    
H12   N22   S    
C17   H64   S    
C28   H65   S    
C55   C59   A    
C27   N9    S    
C56   C60   A    
O7    P15   S    
O30   P7    S    
Ba1   O5    S    
H33   N8    S    
C43   H96   S    
C57   H102  S    
C5    C61   A    
C68   H77   S    
C39   N17   S    
C6    H114  S    
C3    H62   S    
C27   C32   A    
H51   N17   S    
C65   P15   S    
C62   P3    S    
Ba4   O7    S    
C90   N21   S    
C44   C53   A    
C56   C74   A    
H50   N17   S    
C30   N11   S    
C99   H2    S    
C45   C80   S    
C58   C76   A    
Ba4   O35   S    
O26   P11   S    
H7    N19   S    
H11   N21   S    
C88   C92   S    
C101  H58   S    
C81   H130  S    
C65   C78   A    
O16   P8    S    
C24   C31   A    
C7    C83   A    
C9    H88   S    
O42   P3    D    
H20   N2    S    
C25   H83   S    
C98   H134  S    
H34   N9    S    
C3    C39   S    
O17   P7    S    
C96   N7    S    
C41   C49   A    
C92   H79   S    
Ba4   P15   S    
Ba3   O16   S    
H15   N23   S    
C10   C94   A    
O9    P1    S    
Ba4   O11   S    
C48   C84   S    
Ba4   O17   S    
O22   P1    S    
O20   P8    D    
C11   C51   S    
C12   C52   S    
C32   C71   S    
O46   P14   S    
C99   H46   S    
H48   N16   S    
C9    C83   A    
C47   H118  S    
C31   N13   S    
C97   O26   S    
O25   P10   S    
Ba2   O9    S    
C6    C21   A    
Ba3   O8    S    
Ba1   O36   S    
C101  H53   S    
O35   P15   D    
Ba3   Ba4   S    
O34   P11   D    
C55   H99   S    
H49   N16   S    
O15   P5    S    
C81   H73   S    
O27   P6    S    
C35   C40   A    
C80   H125  S    
C46   O2    S    
C9    C13   A    
C102  H59   S    
C104  N18   S    
C14   H103  S    
C4    H111  S    
O40   P16   D    
C78   H109  S    
C57   C75   A    
Ba4   O8    S    
C85   C89   S    
H3    N12   S    
H144  N12   S    
C87   C91   S    
C10   C49   S    
C87   H136  S    
Ba4   P11   S    
H43   N14   S    
C89   H1    S    
C43   C52   A    
C54   C58   A    
C37   H91   S    
Ba2   O6    S    
C11   C15   A    
Ba1   O31   S    
C39   H71   S    
Ba2   O32   S    
O24   P9    S    
C95   N2    S    
H16   N23   S    
C16   C21   A    
C54   H98   S    
C84   H132  S    
C26   C53   A    
C47   C82   S    
C92   H123  S    
C96   O25   S    
O31   P12   D    
C46   C81   S    
Ba4   O34   S    
C62   C79   A    
C2    C61   A    
H21   N3    S    
C41   H94   S    
H31   N7    S    
C44   H97   S    
C65   C69   A    
C103  N12   S    
C101  H24   S    
C87   O47   S    
C88   O46   S    
C93   C98   S    
C21   P8    S    
H22   N3    S    
C1    N14   S    
O5    P13   S    
C1    H67   S    
C100  H52   S    
Ba4   O39   S    
C86   C90   S    
C76   H107  S    
C70   H80   S    
C1    C102  S    
C60   P4    S    
C66   P14   S    
H27   N5    S    
C81   H126  S    
H4    N18   S    
H23   N4    S    
C56   H100  S    
Ba2   P13   S    
C88   H141  S    
C33   C73   S    
O6    P12   S    
O1    P1    D    
O33   P14   D    
C35   C75   S    
C31   C35   A    
C91   H68   S    
C98   H54   S    
Ba3   P14   S    
C91   H112  S    
Ba2   O37   S    
C66   C79   A    
C91   N22   S    
C72   P10   S    
C104  O29   S    
C8    C72   A    
C8    H87   S    
C58   P2    S    
Ba2   O12   S    
O18   P6    D    
C79   H110  S    
H30   N7    S    
C67   H76   S    
C63   C76   A    
C24   H82   S    
C88   H137  S    
C63   P13   S    
C25   C52   A    
C13   C18   A    
C3    N19   S    
C15   C20   A    
C86   O44   S    
C83   P11   S    
H26   N5    S    
Ba1   O14   S    
H38   N10   S    
C63   C67   A    
O19   P5    D    
C93   N24   S    
C29   C33   A    
C61   P9    S    
C103  O28   S    
C5    H113  S    
C18   C22   A    
C82   H74   S    
C46   H117  S    
H8    N20   S    
O2    P2    S    
C13   C53   S    
H17   N24   S    
C36   C43   A    
O47   P15   S    
C10   C14   A    
C55   C73   A    
C22   P7    S    
C93   N5    S    
H29   N6    S    
C59   C77   A    
H45   N15   S    
C34   C38   A    
Ba1   O6    S    
C39   H66   S    
H143  N1    S    
C97   N8    S    
C85   H138  S    
Ba1   Ba2   S    
C95   O24   S    
O12   P9    D    
O10   P9    S    
C6    C72   A    
C57   C62   A    
C69   C74   A    
O37   P2    S    
C96   N3    S    
C12   C16   A    
C59   P16   S    
C48   O4    S    
Ba3   O7    S    
C2    C11   A    
C86   H135  S    
C33   C37   A    
O44   P12   S    
H25   N4    S    
C24   C51   A    
C54   C71   A    
O36   P16   S    
C23   C30   A    
C97   C101  S    
C84   H128  S    
O8    P14   S    
C14   C19   A    
O3    P3    S    
C32   C36   A    
C97   N4    S    
H5    N18   S    
C4    C50   A    
C48   H124  S    
C84   H75   S    
C80   H129  S    
C100  H13   S    
C7    C22   A    
C82   H131  S    
Ba2   O15   S    
C102  O27   S    
C68   C73   A    
O21   P7    D    
O45   P13   S    
C1    H63   S    
C60   C78   A    
C17   C103  S    
C26   H84   S    
C18   H106  S    
H28   N6    S    
C40   H93   S    
C85   H133  S    
C20   P5    S    
C98   H35   S    
Ba3   O13   S    
H9    N20   S    
O4    P4    S    
O11   P10   S    
C26   C29   A    
C30   C34   A    
O28   P5    S    
C5    C20   A    
C99   H55   S    
C82   H127  S    
C85   O45   S    
C16   H105  S    
C38   H92   S    
C89   H90   S    
C25   C27   A    
C67   C71   A    
C89   N20   S    
C37   C44   A    
C28   N16   S    
H40   N11   S    
O32   P13   D    
Ba1   P1    S    
C17   N15   S    
O43   P4    D    
C90   H101  S    
C28   C104  S    
H37   N10   S    
C92   N23   S    
C50   C94   A    
C23   H81   S    
C104  H61   S    
H10   N21   S    
H47   N15   S    
