data_mof_unit_35491.cif
_audit_creation_date              2013-03-05T15:40:44-0500
_audit_creation_method            fapswitch 2.2
_symmetry_space_group_name_H-M    P1
_symmetry_Int_Tables_number       1
_space_group_crystal_system       triclinic
_cell_length_a                    6.922304
_cell_length_b                    17.321161
_cell_length_c                    24.087703
_cell_angle_alpha                 104.429528
_cell_angle_beta                  90.48592
_cell_angle_gamma                 90.022936
_cell_volume                      2796.95422465

loop_
_atom_site_label
_atom_site_type_symbol
_atom_site_description
_atom_site_fract_x
_atom_site_fract_y
_atom_site_fract_z
_atom_type_partial_charge
O1    O     O_R   0.494290 0.391990 0.999150 -0.501921
O2    O     O_R   0.827170 0.534410 0.082350 -0.508110
O3    O     O_R   0.994360 0.608010 0.000850 -0.504443
C1    C     C_R   0.658863 0.550008 0.106187 0.903685
O4    O     O_R   0.824210 0.388010 0.004470 -0.546564
O5    O     O_R   0.991370 0.460560 0.922410 -0.572027
C2    C     C_R   0.654197 0.354866 0.001430 0.886571
O6    O     O_R   0.497270 0.539440 0.077590 -0.566063
O7    O     O_3   0.659770 0.523970 0.973170 -0.272882
V1    V     V_3+5 0.935840 0.495550 0.004980 1.267450
O8    O     O_R   0.320910 0.465590 0.917650 -0.571186
C3    C     C_R   0.151325 0.449985 0.893893 0.840788
O9    O     O_R   0.323870 0.611990 0.995530 -0.553127
C4    C     C_R   0.154125 0.645149 0.998573 0.883891
V2    V     V_3+5 0.435470 0.504450 0.995020 1.233769
O10   O     O_3   0.161670 0.476030 0.026830 -0.233180
C5    C     C_2   0.141052 0.730279 0.998161 -0.293479
H1    H     H_    0.275427 0.761024 0.994546 0.087980
C6    C     C_2   0.970892 0.770147 0.002273 0.409768
C7    C     C_R   0.181054 0.252972 0.623990 0.590946
N1    N     N_R   0.101277 0.325919 0.648567 -0.448881
C8    C     C_R   0.006911 0.368513 0.615603 0.563708
C9    C     C_R   0.988852 0.337889 0.555839 -0.021286
C10   C     C_R   0.069670 0.263006 0.530096 -0.042794
C11   C     C_R   0.167147 0.220204 0.564330 -0.111647
C12   C     C_R   0.892291 0.380356 0.521303 -0.021230
C13   C     C_R   0.875824 0.348850 0.462135 0.024578
C14   C     C_R   0.955087 0.274064 0.435976 -0.025313
C15   C     C_R   0.052848 0.230916 0.470029 -0.118784
C16   C     C_R   0.133818 0.155932 0.444174 -0.118108
C17   C     C_R   0.231286 0.113681 0.479069 0.672827
C18   C     C_R   0.247300 0.145601 0.538269 -0.099431
C19   C     C_R   0.939961 0.241535 0.376413 0.620411
N2    N     N_R   0.019551 0.168769 0.351652 -0.450132
C20   C     C_R   0.114693 0.125779 0.384169 0.696103
O11   O     O_2   0.271641 0.211720 0.657201 -0.531477
O12   O     O_2   0.931871 0.440593 0.640470 -0.529454
H2    H     H_    0.829189 0.438156 0.539837 0.148268
H3    H     H_    0.801265 0.383443 0.436902 0.186391
O13   O     O_2   0.847920 0.282715 0.343416 -0.472886
O14   O     O_2   0.189676 0.054048 0.358460 -0.411910
H4    H     H_    0.322922 0.111401 0.563640 0.164020
C21   C     C_R   0.827989 0.111349 0.263965 -0.035197
H5    H     H_    0.700634 0.112882 0.289955 0.187632
C22   C     C_R   0.813659 0.082896 0.204260 -0.102076
H6    H     H_    0.674165 0.063107 0.185303 0.128591
C23   C     C_R   0.977869 0.079785 0.169637 -0.186046
C24   C     C_R   0.156269 0.106032 0.196371 -0.149825
H7    H     H_    0.285490 0.104994 0.171163 0.118795
C25   C     C_R   0.169979 0.135003 0.255963 0.663952
C26   C     C_R   0.005964 0.137733 0.290223 0.174439
C27   C     C_R   0.946646 0.369843 0.743340 0.001732
H8    H     H_    0.806523 0.355189 0.723135 0.082086
C28   C     C_R   0.958646 0.400110 0.802839 -0.111315
H9    H     H_    0.826294 0.408279 0.827222 0.092453
C29   C     C_R   0.139042 0.419013 0.830431 -0.098539
C30   C     C_R   0.306977 0.407012 0.796743 -0.111173
H10   H     H_    0.448206 0.420836 0.816363 0.092263
C31   C     C_R   0.294597 0.376748 0.737171 0.004685
H11   H     H_    0.425408 0.368137 0.712064 0.086851
C32   C     C_R   0.114362 0.357793 0.709990 0.270987
C33   C     C_R   0.565537 0.879290 0.615002 0.689059
N3    N     N_R   0.489324 0.832262 0.647474 -0.403521
C34   C     C_R   0.427332 0.756334 0.622451 0.686859
C35   C     C_R   0.444166 0.724523 0.562743 -0.088396
C36   C     C_R   0.524687 0.771522 0.528786 -0.039328
C37   C     C_R   0.583930 0.849955 0.555093 -0.090245
C38   C     C_R   0.385113 0.646481 0.536715 -0.086027
C39   C     C_R   0.408934 0.613613 0.477883 0.362949
C40   C     C_R   0.489777 0.660357 0.442860 -0.096858
C41   C     C_R   0.546751 0.740039 0.468731 -0.100405
C42   C     C_R   0.625938 0.788349 0.434836 -0.101953
C43   C     C_R   0.676755 0.868775 0.461700 0.374921
C44   C     C_R   0.658951 0.897631 0.521190 -0.053638
C45   C     C_R   0.512448 0.631156 0.382809 0.677833
N4    N     N_R   0.598186 0.677013 0.351178 -0.437225
C46   C     C_R   0.655659 0.753650 0.375681 0.663587
O15   O     O_2   0.624018 0.954107 0.640569 -0.505345
O16   O     O_2   0.351430 0.711399 0.655275 -0.496625
H12   H     H_    0.324298 0.609360 0.562366 0.161044
O17   O     O_2   0.448116 0.557898 0.355738 -0.410476
O18   O     O_2   0.745403 0.794987 0.342797 -0.468903
H13   H     H_    0.699994 0.958843 0.540656 0.158389
C47   C     C_R   0.467961 0.652829 0.253416 -0.018813
H14   H     H_    0.337211 0.683287 0.271056 0.148541
C48   C     C_R   0.480854 0.621381 0.194286 -0.149015
H15   H     H_    0.359279 0.629011 0.167574 0.153127
C49   C     C_R   0.648535 0.581766 0.169770 -0.221867
C50   C     C_R   0.803132 0.573273 0.206437 0.515434
C51   C     C_R   0.790311 0.603837 0.266614 0.311425
C52   C     C_R   0.620872 0.644995 0.290062 0.122888
C53   C     C_R   0.642210 0.855502 0.743142 0.580084
C54   C     C_R   0.635676 0.883951 0.802931 0.518902
C55   C     C_R   0.465616 0.919184 0.830068 -0.357293
C56   C     C_R   0.303576 0.924855 0.795449 -0.213924
H16   H     H_    0.170944 0.951655 0.814642 0.201667
C57   C     C_R   0.311359 0.896940 0.735571 0.648126
C58   C     C_R   0.480745 0.861993 0.709065 0.021826
C59   C     C_2   0.641130 0.269744 0.001843 -0.288494
H17   H     H_    0.775711 0.239044 0.005478 0.089241
C60   C     C_2   0.470756 0.229827 0.997709 0.414893
O19   O     O_R   0.618210 0.960470 0.922400 -0.500362
O20   O     O_R   0.291310 0.111960 0.995450 -0.524609
O21   O     O_R   0.124210 0.039530 0.077580 -0.565684
C61   C     C_R   0.460895 0.144972 0.998373 0.786741
O22   O     O_R   0.288310 0.965490 0.917650 -0.553810
O23   O     O_R   0.121180 0.892010 0.999220 -0.594359
C62   C     C_R   0.456646 0.949689 0.893801 0.928119
O24   O     O_R   0.621230 0.107990 0.000760 -0.600339
O25   O     O_3   0.455770 0.976060 0.026840 -0.285079
V3    V     V_3+5 0.179680 0.004440 0.995020 1.201613
O26   O     O_R   0.791670 0.888040 0.004570 -0.516377
C63   C     C_R   0.961000 0.855012 0.001617 0.828952
O27   O     O_R   0.794680 0.034510 0.082370 -0.568479
C64   C     C_R   0.964438 0.049825 0.106127 0.853042
V4    V     V_3+5 0.680070 0.995560 0.005010 1.205835
O28   O     O_3   0.953840 0.023940 0.973160 -0.252095
F1    F     F_    0.342573 0.161737 0.280358 -0.683596
N5    N     N_R   0.355555 0.531742 0.455452 0.131330
O29   O     O_R   0.489385 0.478800 0.437880 -0.310055
O30   O     O_R   0.183313 0.507983 0.464849 -0.329965
N6    N     N_R   0.739439 0.923552 0.429578 0.133797
O31   O     O_R   0.623426 0.941491 0.391896 -0.223355
O32   O     O_R   0.890388 0.968196 0.446677 -0.313464
F2    F     F_    0.800922 0.732765 0.006966 -0.679698
F3    F     F_    0.966725 0.535313 0.183771 -0.647653
N7    N     N_R   0.947322 0.591278 0.303081 0.117847
O33   O     O_R   0.987367 0.643353 0.350860 -0.358660
O34   O     O_R   0.054486 0.527893 0.288130 -0.208883
F4    F     F_    0.805935 0.820703 0.718182 -0.583952
F5    F     F_    0.795179 0.875479 0.834055 -0.643473
F6    F     F_    0.154231 0.904294 0.703271 -0.598145
F7    F     F_    0.300518 0.267155 0.992993 -0.674949
F8    F     F_    0.311465 0.041288 0.456493 -0.607813

loop_
_geom_bond_atom_site_label_1
_geom_bond_atom_site_label_2
_geom_bond_distance
_ccdc_geom_bond_type
C38   H12   1.083802 S    
C54   C55   1.414330 A    
C43   C44   1.401603 A    
O2    C1    1.301675 A    
C56   H16   1.082933 S    
C44   H13   1.083737 S    
C1    O6    1.297377 A    
C57   C58   1.403416 A    
C51   C52   1.419214 A    
C53   C58   1.402228 A    
C22   H6    1.082895 S    
C29   C30   1.408981 A    
C23   C64   1.490020 S    
C55   C62   1.495744 S    
C12   C13   1.397010 A    
C33   N3    1.370363 A    
C2    C59   1.479666 S    
C16   C20   1.414187 A    
C14   C15   1.409200 A    
C47   C48   1.396032 A    
N3    C58   1.445853 S    
C27   C32   1.403293 A    
O5    C3    1.296824 A    
C16   C17   1.412315 A    
C48   C49   1.406129 A    
C30   C31   1.401521 A    
C7    C11   1.409855 A    
C6    C63   1.475593 S    
V2    O10   2.152573 S    
V4    O28   2.152575 S    
O20   V3    2.013640 S    
N2    C20   1.372616 A    
C22   C23   1.408642 A    
C9    C12   1.405641 A    
O25   V3    2.155323 S    
O23   C63   1.289358 A    
O24   V4    2.016955 S    
C10   C15   1.418547 A    
O8    V2    1.975983 S    
C36   C41   1.422678 A    
C13   H3    1.082245 S    
C38   C39   1.400542 A    
C51   N7    1.442034 S    
O19   C62   1.297260 A    
C40   C41   1.419703 A    
O1    V2    2.016600 S    
C47   C52   1.400700 A    
O9    C4    1.302668 A    
O7    V1    2.155324 S    
N1    C32   1.446595 S    
C50   F3    1.358314 S    
C49   C50   1.412740 A    
C11   C18   1.404965 A    
C24   C25   1.399999 A    
C36   C37   1.407661 A    
C31   H11   1.082758 S    
O1    C2    1.287993 A    
N1    C8    1.372964 A    
C4    C5    1.479857 S    
C55   C56   1.410053 A    
C17   F8    1.357180 S    
O26   C63   1.299207 A    
C27   C28   1.399740 A    
C25   C26   1.403136 A    
C39   N5    1.433111 S    
O22   V3    1.972666 S    
N5    O30   1.301076 A    
C60   C61   1.475430 S    
C28   C29   1.409068 A    
C31   C32   1.404188 A    
C19   O13   1.349359 S    
C10   C11   1.407332 A    
C50   C51   1.417398 A    
O4    C2    1.302698 A    
C48   H15   1.083047 S    
C45   O17   1.347562 S    
C8    O12   1.349246 S    
C6    F2    1.361807 S    
C53   F4    1.356753 S    
C45   N4    1.368398 A    
N7    O34   1.301360 A    
C15   C16   1.411497 A    
O21   V3    1.970394 S    
O21   C64   1.296073 A    
C23   C24   1.409466 A    
C9    C10   1.409061 A    
C35   C38   1.400109 A    
C5    H1    1.086520 S    
N2    C26   1.445142 S    
O20   C61   1.299227 A    
C37   C44   1.400528 A    
C47   H14   1.083168 S    
C21   C22   1.401913 A    
C3    C29   1.490252 S    
O3    C4    1.287626 A    
C33   C37   1.412293 A    
C24   H7    1.083021 S    
C59   C60   1.357181 D    
C14   C19   1.407628 A    
C35   C36   1.407716 A    
O6    V2    1.972499 S    
O9    V2    2.014093 S    
C21   H5    1.082090 S    
C34   O16   1.349228 S    
N6    O32   1.301071 A    
N7    O33   1.300776 A    
O2    V1    1.972609 S    
O25   V4    1.703913 S    
O26   V4    2.014148 S    
C27   H8    1.082763 S    
C61   O24   1.289698 A    
C28   H9    1.082676 S    
C25   F1    1.356159 S    
O23   V3    2.016163 S    
C33   O15   1.349130 S    
C17   C18   1.398506 A    
C12   H2    1.083209 S    
C57   F6    1.356391 S    
C42   C43   1.424642 A    
O5    V1    1.970605 S    
C42   C46   1.418503 A    
O27   V4    1.976080 S    
N5    O29   1.300845 A    
C56   C57   1.403832 A    
O27   C64   1.300552 A    
C1    C49   1.495133 S    
C60   F7    1.361834 S    
C59   H17   1.086532 S    
V3    O28   1.706005 S    
C34   C35   1.411956 A    
O7    V2    1.704185 S    
C41   C42   1.419510 A    
O3    V1    2.016209 S    
V1    O10   1.705952 S    
N4    C46   1.368897 A    
C21   C26   1.403204 A    
C30   H10   1.082594 S    
O22   C62   1.302316 A    
C46   O18   1.347833 S    
C53   C54   1.402282 A    
C5    C6    1.357456 D    
C19   N2    1.370891 A    
C39   C40   1.424242 A    
C20   O14   1.348757 S    
O19   V4    1.973577 S    
N4    C52   1.447957 S    
N3    C34   1.370100 A    
C7    O11   1.349242 S    
O4    V1    2.013522 S    
C7    N1    1.373042 A    
C43   N6    1.434729 S    
C40   C45   1.418488 A    
C18   H4    1.083357 S    
C8    C9    1.409165 A    
N6    O31   1.301437 A    
C54   F5    1.357808 S    
O8    C3    1.299954 A    
C13   C14   1.405611 A    
