data_mof_unit_53950.cif
_audit_creation_date              2012-10-26T19:57:22-0400
_audit_creation_method            fapswitch 2.2
_symmetry_space_group_name_H-M    P1
_symmetry_Int_Tables_number       1
_space_group_crystal_system       triclinic
_cell_length_a                    13.006878
_cell_length_b                    10.865199
_cell_length_c                    9.693286
_cell_angle_alpha                 88.502158
_cell_angle_beta                  96.621386
_cell_angle_gamma                 91.191072
_cell_volume                      1360.05743759

loop_
_atom_site_label
_atom_site_type_symbol
_atom_type_description
_atom_site_fract_x
_atom_site_fract_y
_atom_site_fract_z
_atom_type_partial_charge
Br1   Br    Br    0.806756 0.375736 0.274575 -0.448224
Br2   Br    Br    0.816819 0.496162 0.852212 -0.545450
Br3   Br    Br    0.194294 0.584745 0.158026 -0.574358
Br4   Br    Br    0.674500 0.857246 0.330185 -0.465843
Br5   Br    Br    0.544533 0.126813 0.215327 -0.474751
C1    C     C_R   0.513054 0.265991 0.503670 0.565266
C2    C     C_2   0.549580 0.137650 0.517504 -0.031483
C3    C     C_2   0.435095 0.433384 0.916792 0.113144
C4    C     C_R   0.300340 0.506228 0.472654 0.557185
C5    C     C_2   0.427302 0.449301 0.069066 0.051169
C6    C     C_R   0.501356 0.734919 0.498207 0.585288
C7    C     C_R   0.699719 0.494266 0.527125 0.583318
C8    C     C_R   0.813460 0.488570 0.544709 0.023612
C9    C     C_R   0.186950 0.518282 0.454373 0.008240
C10   C     C_R   0.019396 0.547399 0.314493 0.039858
C11   C     C_R   0.128697 0.545329 0.323959 0.152625
C12   C     C_R   0.029197 0.506752 0.564187 -0.029732
C13   C     C_R   0.136207 0.508147 0.573812 -0.159761
C14   C     C_3   0.589741 0.092219 0.664728 -0.294055
C15   C     C_3   0.689134 0.162051 0.721316 -0.287167
C16   C     C_3   0.728871 0.116546 0.867754 -0.395122
C17   C     C_3   0.358689 0.338736 0.849798 -0.228495
C18   C     C_3   0.376609 0.209853 0.915598 -0.308071
C19   C     C_3   0.310906 0.112114 0.834138 -0.447347
C20   C     C_3   0.957866 0.607877 0.187841 -0.206638
C21   C     C_3   0.971586 0.748693 0.189150 -0.299568
C22   C     C_3   0.911792 0.809075 0.061082 -0.405708
C23   C     C_R   0.970533 0.511281 0.432812 0.036285
C24   C     C_R   0.865108 0.479625 0.425237 0.113815
C25   C     C_R   0.872879 0.496286 0.676779 0.126421
C26   C     C_R   0.980278 0.498205 0.684940 -0.102659
C27   C     C_2   0.567291 0.932758 0.419496 0.162997
C28   C     C_2   0.501226 0.867743 0.491179 -0.109270
C29   C     C_2   0.556174 0.066659 0.405135 0.189747
Cu1   Cu    Cu3+1 0.500020 0.500020 0.638640 0.969979
Cu2   Cu    Cu3+1 0.499980 0.499980 0.361360 1.084675
H1    H     H_    0.542417 0.566792 0.898394 0.226042
H2    H     H_    0.750016 0.148572 0.651741 0.186725
H3    H     H_    0.675288 0.262125 0.725171 0.228104
H4    H     H_    0.528619 0.103704 0.733742 0.154908
H5    H     H_    0.609058 0.993427 0.670849 0.155799
H6    H     H_    0.227387 0.132773 0.831229 0.166687
H7    H     H_    0.331403 0.108707 0.726177 0.146559
H8    H     H_    0.325201 0.020425 0.885238 0.180718
H9    H     H_    0.459545 0.186673 0.918723 0.206105
H10   H     H_    0.355913 0.207766 0.023627 0.196603
H11   H     H_    0.278943 0.367424 0.863091 0.124520
H12   H     H_    0.360503 0.409819 0.112432 0.175642
H13   H     H_    0.361336 0.330844 0.738582 0.221330
H14   H     H_    0.940447 0.776435 0.965031 0.184121
H15   H     H_    0.827773 0.786917 0.057668 0.202737
H16   H     H_    0.922739 0.910604 0.065079 0.162385
H17   H     H_    0.942481 0.784241 0.283697 0.193526
H18   H     H_    0.054437 0.776038 0.192094 0.209834
H19   H     H_    0.980998 0.570168 0.090898 0.223541
H20   H     H_    0.873819 0.590159 0.184850 0.213813
H21   H     H_    0.566292 0.526338 0.114634 0.239666
H22   H     H_    0.025636 0.497301 0.786128 0.160491
H23   H     H_    0.179872 0.497634 0.675506 0.138666
H24   H     H_    0.444874 0.913911 0.545334 0.058530
H25   H     H_    0.669783 0.130768 0.939613 0.214580
H26   H     H_    0.747353 0.017172 0.867789 0.158850
H27   H     H_    0.800308 0.168940 0.905784 0.195700
N1    N     N_2   0.498860 0.498660 0.846770 -0.321702
N2    N     N_2   0.498840 0.498630 0.152900 -0.323108
O1    O     O_R   0.500020 0.321960 0.617050 -0.539639
O2    O     O_R   0.499980 0.321920 0.382890 -0.442046
O3    O     O_R   0.349010 0.500000 0.598060 -0.539332
O4    O     O_R   0.348980 0.499950 0.363910 -0.457820
O5    O     O_R   0.500020 0.678080 0.617110 -0.498868
O6    O     O_R   0.499980 0.678040 0.382950 -0.439462
O7    O     O_R   0.651020 0.500050 0.636090 -0.465199
O8    O     O_R   0.650990 0.500000 0.401940 -0.448928

loop_
_geom_bond_atom_site_label_1
_geom_bond_atom_site_label_2
_ccdc_geom_bond_type
C3    C17   S    
C4    C9    S    
Cu2   O6    S    
C1    C2    S    
C18   H9    S    
C15   H2    S    
C9    C13   A    
C16   H25   S    
C14   C15   S    
C20   H20   S    
C6    C28   S    
Br2   C25   S    
Br5   C29   S    
Br1   C24   S    
C12   C13   A    
C21   C22   S    
C4    O3    A    
C14   H5    S    
C18   H10   S    
Br4   C27   S    
C7    O8    A    
C7    C8    S    
C16   H26   S    
Cu1   N1    S    
Cu1   O3    S    
C3    N1    D    
C17   H13   S    
C12   C26   A    
C21   H18   S    
C26   H22   S    
C8    C24   A    
C1    O2    A    
C22   H15   S    
Cu1   O7    S    
C17   H11   S    
C28   H24   S    
C9    C11   A    
C17   C18   S    
C5    H12   S    
C25   C26   A    
C19   H8    S    
C2    C29   D    
C6    O6    A    
Cu2   O2    S    
C10   C20   S    
C14   H4    S    
C18   C19   S    
C6    O5    A    
C10   C11   A    
C10   C23   A    
C21   H17   S    
C2    C14   S    
C13   H23   S    
C1    O1    A    
H1    N1    S    
C19   H6    S    
C15   C16   S    
C22   H16   S    
C22   H14   S    
C3    C5    S    
C27   C28   D    
Cu2   O8    S    
C5    N2    D    
H21   N2    S    
C15   H3    S    
Cu2   O4    S    
Cu2   N2    S    
C23   C24   A    
C19   H7    S    
Cu1   O5    S    
Cu1   O1    S    
C20   C21   S    
C8    C25   A    
C12   C23   A    
C7    O7    A    
Br3   C11   S    
C20   H19   S    
C16   H27   S    
C4    O4    A    
Cu1   Cu2   S    
C27   C29   S    
