data_mof_unit_52201.cif
_audit_creation_date              2012-12-11T15:47:10-0500
_audit_creation_method            fapswitch 2.2
_symmetry_space_group_name_H-M    P1
_symmetry_Int_Tables_number       1
_space_group_crystal_system       triclinic
_cell_length_a                    20.262049
_cell_length_b                    7.256404
_cell_length_c                    13.570858
_cell_angle_alpha                 88.197032
_cell_angle_beta                  103.53007
_cell_angle_gamma                 91.697656
_cell_volume                      1938.47309535

loop_
_atom_site_label
_atom_site_type_symbol
_atom_type_description
_atom_site_fract_x
_atom_site_fract_y
_atom_site_fract_z
_atom_type_partial_charge
O1    O     O_R   0.449560 0.506810 0.599700 -0.535097
O2    O     O_R   0.550440 0.006810 0.400300 -0.539542
O3    O     O_R   0.587960 0.180060 0.595760 -0.550809
O4    O     O_R   0.412040 0.680060 0.404240 -0.544145
C1    C     C_R   0.614725 0.344701 0.618084 0.678770
C2    C     C_R   0.385244 0.843752 0.382117 0.678548
O5    O     O_R   0.452380 0.177430 0.611700 -0.543816
O6    O     O_R   0.547620 0.677430 0.388300 -0.538693
O7    O     O_R   0.413900 0.001890 0.416350 -0.546721
O8    O     O_R   0.586100 0.501890 0.583650 -0.540245
C3    C     C_R   0.435029 0.342103 0.636105 0.720377
C4    C     C_R   0.565143 0.848841 0.364564 0.721903
O9    O     O_3   0.487530 0.337490 0.435890 -0.378427
O10   O     O_3   0.512470 0.837490 0.564110 -0.378691
V1    V     V_3+5 0.502310 0.064660 0.511890 1.371809
V2    V     V_3+5 0.497690 0.564660 0.488110 1.392691
C5    C     C_R   0.616142 0.973427 0.121622 -0.189265
C6    C     C_R   0.385556 0.265645 0.884783 -0.189667
H1    H     H_    0.702321 0.071939 0.008679 0.127216
H2    H     H_    0.300363 0.189366 0.002681 0.126395
H3    H     H_    0.592628 0.030108 0.047207 0.151857
H4    H     H_    0.409601 0.222261 0.961684 0.150472
C7    C     C_R   0.606725 0.870090 0.289501 -0.113383
C8    C     C_R   0.393829 0.337056 0.712210 -0.113958
C9    C     C_R   0.923468 0.719294 0.296279 -0.152610
C10   C     C_R   0.075626 0.485103 0.696586 -0.151890
C11   C     C_R   0.881899 0.634816 0.353153 -0.122949
C12   C     C_R   0.116518 0.560339 0.636006 -0.123461
C13   C     C_R   0.813294 0.674599 0.332119 -0.188275
C14   C     C_R   0.185624 0.526516 0.659879 -0.188993
C15   C     C_R   0.786032 0.813580 0.260095 0.089632
C16   C     C_R   0.214185 0.401113 0.739028 0.090427
C17   C     C_R   0.826518 0.882075 0.193646 0.074159
C18   C     C_R   0.174260 0.344247 0.808522 0.074886
C19   C     C_R   0.717308 0.869779 0.244587 0.031605
C20   C     C_R   0.283431 0.348085 0.757482 0.031897
C21   C     C_R   0.686232 0.949306 0.148802 0.054707
C22   C     C_R   0.315272 0.285861 0.856792 0.055107
C23   C     C_R   0.725500 0.005391 0.080614 -0.178054
C24   C     C_R   0.276542 0.242699 0.927646 -0.177538
C25   C     C_R   0.795189 0.980265 0.104792 -0.196249
C26   C     C_R   0.206572 0.263198 0.902272 -0.195793
C27   C     C_R   0.678673 0.855404 0.320445 0.038588
C28   C     C_R   0.321709 0.348015 0.681198 0.039924
C29   C     C_R   0.575467 0.924928 0.188774 0.256158
C30   C     C_R   0.425715 0.300674 0.815219 0.256846
C31   C     C_R   0.896076 0.836764 0.213703 -0.085042
C32   C     C_R   0.104122 0.384316 0.785538 -0.084797
H5    H     H_    0.976119 0.679748 0.310865 0.106365
H6    H     H_    0.022469 0.520499 0.679294 0.106056
H7    H     H_    0.781590 0.594075 0.372135 0.120444
H8    H     H_    0.216630 0.600169 0.615993 0.119973
H9    H     H_    0.902427 0.532948 0.411417 0.120288
H10   H     H_    0.094992 0.650732 0.572327 0.119627
H11   H     H_    0.823458 0.030173 0.050542 0.129531
H12   H     H_    0.178776 0.223230 0.958847 0.128366
C33   C     C_R   0.223642 0.022476 0.206709 -0.158632
C34   C     C_R   0.786751 0.520892 0.766093 -0.150577
H13   H     H_    0.204377 0.154523 0.175055 0.118879
H14   H     H_    0.814365 0.651647 0.775807 0.123684
C35   C     C_R   0.289041 0.017238 0.269716 -0.173428
C36   C     C_R   0.721322 0.517213 0.703183 -0.164222
H15   H     H_    0.318022 0.145232 0.284742 0.122809
H16   H     H_    0.700780 0.644419 0.666187 0.121820
C37   C     C_R   0.316494 0.849346 0.312762 -0.035923
C38   C     C_R   0.683411 0.351194 0.687486 -0.035405
C39   C     C_R   0.277197 0.686346 0.289602 -0.159013
C40   C     C_R   0.712435 0.189316 0.737317 -0.168831
H17   H     H_    0.296498 0.554339 0.321325 0.119928
H18   H     H_    0.684628 0.058837 0.727817 0.124313
C41   C     C_R   0.211968 0.691386 0.226087 -0.154972
C42   C     C_R   0.777974 0.192794 0.799892 -0.165331
H19   H     H_    0.183233 0.563093 0.210585 0.122619
H20   H     H_    0.798444 0.065539 0.836894 0.120550
C43   C     C_R   0.184071 0.859667 0.184253 -0.036972
C44   C     C_R   0.816140 0.358565 0.815014 -0.037831
O11   O     O_R   0.913920 0.203370 0.916260 -0.541664
O12   O     O_R   0.086080 0.703370 0.083740 -0.537585
O13   O     O_R   0.047620 0.535540 0.888290 -0.537346
O14   O     O_R   0.952380 0.035540 0.111710 -0.541362
C45   C     C_R   0.064335 0.372445 0.863013 0.682082
C46   C     C_R   0.935926 0.864367 0.136955 0.680824
O15   O     O_R   0.912040 0.532780 0.904220 -0.543895
O16   O     O_R   0.087960 0.032780 0.095780 -0.547366
O17   O     O_R   0.949550 0.708160 0.099720 -0.533980
O18   O     O_R   0.050450 0.208160 0.900280 -0.538871
C47   C     C_R   0.885414 0.364499 0.882999 0.671951
C48   C     C_R   0.114649 0.865426 0.116667 0.670309
O19   O     O_3   0.012480 0.375300 0.064060 -0.378324
O20   O     O_3   0.987520 0.875300 0.935940 -0.377757
V3    V     V_3+5 0.997690 0.648180 0.988110 1.415444
V4    V     V_3+5 0.002310 0.148180 0.011890 1.397959
N1    N     N_2   0.503715 0.946838 0.155847 -0.521143
H21   H     H_    0.477467 0.959513 0.211662 0.246905
C49   C     C_3   0.469560 0.824293 0.076871 -0.551380
H22   H     H_    0.414744 0.856527 0.054284 0.197833
H23   H     H_    0.474761 0.678681 0.104950 0.191976
H24   H     H_    0.490785 0.842102 0.008697 0.210907
N2    N     N_2   0.497678 0.283871 0.848897 -0.522334
H25   H     H_    0.523989 0.262664 0.794014 0.246342
C50   C     C_3   0.531114 0.418124 0.921822 -0.552804
H26   H     H_    0.586264 0.390134 0.945040 0.196530
H27   H     H_    0.510551 0.409629 0.990851 0.208857
H28   H     H_    0.524395 0.559472 0.887566 0.194230
C51   C     C_3   0.713897 0.846559 0.433888 -0.399684
C52   C     C_3   0.697946 0.006692 0.494401 -0.708423
H29   H     H_    0.682149 0.130512 0.445212 0.231438
H30   H     H_    0.658141 0.961536 0.534002 0.234838
H31   H     H_    0.743367 0.045813 0.554209 0.202124
H32   H     H_    0.700758 0.713230 0.468034 0.170807
H33   H     H_    0.769633 0.857187 0.446629 0.199694
C53   C     C_3   0.285873 0.336229 0.568401 -0.400497
C54   C     C_3   0.303172 0.165971 0.517109 -0.712492
H34   H     H_    0.342487 0.205715 0.475794 0.236995
H35   H     H_    0.320327 0.051308 0.572557 0.232112
H36   H     H_    0.258140 0.115925 0.459772 0.204699
H37   H     H_    0.230270 0.322424 0.556771 0.201150
H38   H     H_    0.297471 0.463234 0.527012 0.170919

loop_
_geom_bond_atom_site_label_1
_geom_bond_atom_site_label_2
_ccdc_geom_bond_type
C34   C36   A    
O15   C47   A    
C30   N2    S    
O11   V4    S    
O4    V2    S    
N1    H21   S    
C7    C29   A    
C11   C13   A    
C38   C40   A    
C49   H22   S    
O1    C3    A    
C42   C44   A    
C29   N1    S    
C2    O7    A    
O17   V3    S    
C49   H24   S    
C34   C44   A    
C23   C25   A    
O5    C3    A    
C4    C7    S    
C50   H26   S    
C16   C20   A    
C22   C24   A    
C51   H32   S    
C5    C29   A    
C10   H6    S    
C53   H37   S    
H2    C24   S    
C33   H13   S    
C52   H29   S    
C34   H14   S    
C3    C8    S    
C7    C27   A    
C32   C45   S    
C27   C51   S    
C31   C46   S    
C35   H15   S    
C25   H11   S    
C36   H16   S    
C26   H12   S    
C2    C37   S    
C37   C39   A    
C18   C26   A    
C15   C17   A    
C14   C16   A    
C19   C27   A    
C9    C31   A    
O13   V3    S    
C45   O18   A    
C10   C32   A    
C54   H36   S    
O6    V2    S    
C24   C26   A    
C51   H33   S    
O2    C4    A    
C50   H27   S    
C13   C15   A    
C6    C30   A    
C53   C54   S    
C41   C43   A    
C36   C38   A    
C42   H20   S    
O13   C45   A    
C12   H10   S    
O5    V1    S    
C5    H3    S    
C40   C42   A    
C39   H17   S    
C16   C18   A    
O14   V4    S    
N2    H25   S    
O6    C4    A    
C49   H23   S    
O1    V2    S    
C5    C21   A    
O19   V4    S    
O2    V1    S    
C44   C47   S    
H1    C23   S    
C28   C53   S    
O4    C2    A    
N2    C50   S    
C50   H28   S    
C17   C31   A    
C15   C19   A    
C20   C28   A    
C18   C32   A    
O3    V1    S    
C41   H19   S    
C54   H34   S    
C13   H7    S    
O12   C48   A    
C14   H8    S    
C19   C21   A    
C6    H4    S    
O16   C48   A    
C1    C38   S    
O3    C1    A    
C11   H9    S    
C33   C35   A    
O12   V3    S    
C9    C11   A    
C46   O17   A    
O15   V3    S    
C51   C52   S    
C10   C12   A    
C8    C30   A    
C33   C43   A    
C20   C22   A    
C6    C22   A    
C17   C25   A    
C1    O8    A    
C21   C23   A    
O8    V2    S    
C53   H38   S    
O20   V3    S    
N1    C49   S    
C52   H30   S    
C8    C28   A    
C12   C14   A    
O14   C46   A    
C39   C41   A    
O7    V1    S    
C9    H5    S    
C35   C37   A    
C43   C48   S    
O11   C47   A    
C40   H18   S    
O9    V2    S    
O10   V1    S    
O18   V4    S    
O16   V4    S    
C54   H35   S    
C52   H31   S    
