data_mof_unit_41543.cif
_audit_creation_date              2012-12-10T18:22:25-0500
_audit_creation_method            fapswitch 2.2
_symmetry_space_group_name_H-M    P1
_symmetry_Int_Tables_number       1
_space_group_crystal_system       triclinic
_cell_length_a                    23.533784
_cell_length_b                    10.639021
_cell_length_c                    9.427343
_cell_angle_alpha                 90.435992
_cell_angle_beta                  89.935454
_cell_angle_gamma                 90.322703
_cell_volume                      2360.2772501

loop_
_atom_site_label
_atom_site_type_symbol
_atom_type_description
_atom_site_fract_x
_atom_site_fract_y
_atom_site_fract_z
_atom_type_partial_charge
C1    C     C_R   0.501496 0.259814 0.499316 0.872486
C2    C     C_R   0.497531 0.740191 0.500807 0.878138
C3    C     C_R   0.239290 0.526863 0.377844 0.313411
C4    C     C_R   0.760558 0.472402 0.373433 0.318154
C5    C     C_R   0.298429 0.526426 0.377090 -0.170453
C6    C     C_R   0.701395 0.475414 0.373708 -0.192580
C7    C     C_R   0.328589 0.498783 0.500804 -0.104155
C8    C     C_R   0.671481 0.497816 0.499866 -0.103510
C9    C     C_R   0.298830 0.470173 0.625592 -0.223316
C10   C     C_R   0.701590 0.517691 0.626416 -0.194854
C11   C     C_R   0.239227 0.468876 0.628654 -0.046296
C12   C     C_R   0.761076 0.515030 0.628541 -0.048269
C13   C     C_R   0.209313 0.498433 0.502794 0.206178
C14   C     C_R   0.790914 0.492049 0.500390 0.202676
C15   C     C_3   0.534552 0.040947 0.601287 0.299343
C16   C     C_3   0.463181 0.959456 0.399009 0.297816
C17   C     C_3   0.551095 0.953228 0.476349 -0.270975
C18   C     C_3   0.446752 0.047528 0.523788 -0.283204
C19   C     C_3   0.496207 0.876821 0.502921 -0.173005
C20   C     C_3   0.501549 0.123393 0.497756 -0.163266
C21   C     C_3   0.480133 0.963824 0.627355 -0.081195
C22   C     C_3   0.517552 0.036990 0.373275 -0.070840
C23   C     C_R   0.391080 0.499637 0.500157 0.839555
C24   C     C_R   0.608947 0.499649 0.499892 0.845190
C25   C     C_3   0.486075 0.609276 0.051688 -0.098390
C26   C     C_3   0.513900 0.390632 0.948395 -0.094811
C27   C     C_3   0.450188 0.527610 0.949528 -0.106679
C28   C     C_3   0.549812 0.472335 0.050523 -0.130401
C29   C     C_3   0.535608 0.580977 0.951216 0.391118
C30   C     C_3   0.464374 0.419019 0.048860 0.381406
C31   C     C_R   0.880102 0.605009 0.516020 0.624235
C32   C     C_R   0.120340 0.389351 0.467976 0.647295
C33   C     C_R   0.880555 0.383914 0.476563 0.682284
C34   C     C_R   0.120283 0.607463 0.527494 0.675741
C35   C     C_R   0.940170 0.384588 0.460318 -0.087256
C36   C     C_R   0.060317 0.608874 0.534983 -0.078476
C37   C     C_R   0.970202 0.496536 0.495464 -0.037480
C38   C     C_R   0.030315 0.497823 0.495062 -0.034955
C39   C     C_R   0.939885 0.607260 0.530566 -0.093275
C40   C     C_R   0.060466 0.387636 0.455781 -0.100304
C41   C     C_R   0.970238 0.278626 0.408758 0.256668
C42   C     C_R   0.029676 0.715837 0.582993 0.253658
C43   C     C_R   0.030071 0.279924 0.406718 -0.107319
C44   C     C_R   0.969814 0.715557 0.578893 -0.105427
Cu1   Cu    Cu3+1 0.500010 0.499990 0.643150 1.032691
Cu2   Cu    Cu3+1 0.499990 0.500010 0.356850 1.018236
H1    H     H_    0.408170 0.550238 0.903173 0.174875
H2    H     H_    0.591764 0.449217 0.096871 0.166251
H3    H     H_    0.475042 0.701612 0.099114 0.195864
H4    H     H_    0.524998 0.298187 0.901401 0.210352
H5    H     H_    0.320716 0.548913 0.279843 0.202088
H6    H     H_    0.678909 0.459839 0.274904 0.186867
H7    H     H_    0.322356 0.448193 0.720854 0.210513
H8    H     H_    0.678644 0.534565 0.724316 0.222789
H9    H     H_    0.593829 0.912754 0.457000 0.201029
H10   H     H_    0.404068 0.088440 0.542695 0.197986
N1    N     N_R   0.852039 0.493693 0.497345 -0.455571
N2    N     N_R   0.148318 0.498296 0.499837 -0.453153
N3    N     N_3   0.500040 0.499970 0.858290 -0.200299
N4    N     N_3   0.499960 0.500030 0.141710 -0.206559
O1    O     O_R   0.500030 0.316850 0.620870 -0.568489
O2    O     O_R   0.499970 0.683150 0.379130 -0.578660
O3    O     O_R   0.500000 0.316860 0.379090 -0.553198
O4    O     O_R   0.500000 0.683140 0.620910 -0.518962
O5    O     O_R   0.417890 0.499960 0.620920 -0.583661
O6    O     O_R   0.582110 0.500040 0.379080 -0.587337
O7    O     O_R   0.417870 0.499970 0.379140 -0.559045
O8    O     O_R   0.582130 0.500030 0.620860 -0.559632
O9    O     O_2   0.849855 0.712325 0.519451 -0.487393
O10   O     O_2   0.150863 0.283375 0.450842 -0.484924
O11   O     O_2   0.850895 0.275209 0.474712 -0.427647
O12   O     O_2   0.151039 0.713497 0.545633 -0.437863
Br1   Br    Br    0.931348 0.138333 0.316758 -0.239030
Br2   Br    Br    0.066977 0.858498 0.674736 -0.246941
Br3   Br    Br    0.588568 0.705191 0.879520 -0.398561
Br4   Br    Br    0.410480 0.296970 0.121046 -0.359000
C45   C     C_2   0.059793 0.171022 0.342126 1.017292
O13   O     O_2   0.055944 0.067260 0.396301 -0.482750
O14   O     O_R   0.091892 0.187664 0.218736 -0.693158
H11   H     H_    0.110139 0.106800 0.184587 0.368088
C46   C     C_2   0.939170 0.825063 0.639496 1.017570
O15   O     O_2   0.944381 0.928669 0.585633 -0.480458
O16   O     O_R   0.904457 0.809023 0.758537 -0.699518
H12   H     H_    0.885691 0.890129 0.790009 0.368317
Br5   Br    Br    0.200204 0.566950 0.205805 -0.381786
Br6   Br    Br    0.798715 0.444182 0.196304 -0.392234
C47   C     C_2   0.210053 0.435111 0.763852 0.942819
O17   O     O_2   0.158848 0.449262 0.778077 -0.550667
O18   O     O_R   0.241602 0.386594 0.876424 -0.723211
H13   H     H_    0.217187 0.365384 0.961714 0.383361
C48   C     C_2   0.790569 0.538205 0.765553 0.952133
O19   O     O_2   0.837162 0.492345 0.788503 -0.538368
O20   O     O_R   0.764560 0.612783 0.869457 -0.707030
H14   H     H_    0.789514 0.626437 0.955778 0.381044
Br7   Br    Br    0.588465 0.097294 0.743820 -0.407650
Br8   Br    Br    0.408752 0.900784 0.258766 -0.408205
C49   C     C_2   0.455655 0.934507 0.770504 0.969963
O21   O     O_2   0.451721 0.018474 0.859060 -0.492411
O22   O     O_R   0.434948 0.814396 0.800242 -0.743493
H15   H     H_    0.417939 0.808588 0.898815 0.343875
C50   C     C_2   0.540958 0.079929 0.233705 0.945590
O23   O     O_2   0.516883 0.051132 0.123385 -0.491318
O24   O     O_R   0.590458 0.152968 0.230990 -0.743934
H16   H     H_    0.601852 0.177581 0.131188 0.347861

loop_
_geom_bond_atom_site_label_1
_geom_bond_atom_site_label_2
_ccdc_geom_bond_type
C47   O17   D    
O20   H14   S    
C8    C24   S    
C3    Br5   S    
C18   C21   S    
C12   C48   S    
C36   C42   A    
C32   N2    A    
C49   O21   D    
Cu1   Cu2   S    
C50   O23   D    
C22   C50   S    
Cu2   O2    S    
C28   C29   S    
C35   C37   A    
Cu2   O6    S    
C26   H4    S    
C15   Br7   S    
C43   C45   S    
C33   C35   A    
C4    Br6   S    
C30   Br4   S    
C7    C9    A    
C23   O7    A    
C49   O22   S    
C40   C43   A    
C28   H2    S    
O22   H15   S    
C11   C47   S    
C30   N4    S    
C16   C22   S    
C25   N4    S    
C26   N3    S    
C17   H9    S    
C18   C20   S    
C3    C13   A    
C24   O6    A    
C45   O14   S    
C50   O24   S    
C27   C30   S    
C41   C43   A    
C42   C44   A    
C35   C41   A    
C1    O3    A    
C46   O16   S    
C2    O4    A    
C46   O15   D    
C28   N4    S    
C25   C29   S    
C15   C20   S    
C42   Br2   S    
C16   Br8   S    
C29   N3    S    
C4    C6    A    
C44   C46   S    
C48   O19   D    
C5    C7    A    
C24   O8    A    
C32   O10   S    
C13   N2    S    
C45   O13   D    
C37   C38   A    
C48   O20   S    
C21   C49   S    
O16   H12   S    
C31   O9    S    
Cu1   O8    S    
C9    C11   A    
C10   C12   A    
C8    C10   A    
C12   C14   A    
C26   C30   S    
C47   O18   S    
Cu1   O5    S    
C9    H7    S    
C34   O12   S    
C27   H1    S    
C15   C17   S    
C14   N1    S    
Cu1   N3    S    
C1    C20   S    
C33   N1    A    
Cu2   N4    S    
C2    C19   S    
C20   C22   S    
C3    C5    A    
C1    O1    A    
C6    C8    A    
C39   C44   A    
C29   Br3   S    
C18   H10   S    
C25   C27   S    
Cu1   O4    S    
C26   C28   S    
C17   C22   S    
Cu2   O3    S    
C23   O5    A    
C36   C38   A    
Cu2   O7    S    
C37   C39   A    
C27   N3    S    
C38   C40   A    
C11   C13   A    
C31   N1    A    
C16   C19   S    
C7    C23   S    
Cu1   O1    S    
C17   C19   S    
C31   C39   A    
C34   C36   A    
C32   C40   A    
C4    C14   A    
C10   H8    S    
C25   H3    S    
C33   O11   S    
C41   Br1   S    
O14   H11   S    
C15   C21   S    
C16   C18   S    
O24   H16   S    
C34   N2    A    
C5    H5    S    
C6    H6    S    
O18   H13   S    
C2    O2    A    
C19   C21   S    
