data_mof_unit_16266.cif
_audit_creation_date              2012-12-10T18:57:39-0500
_audit_creation_method            fapswitch 2.2
_symmetry_space_group_name_H-M    P1
_symmetry_Int_Tables_number       1
_space_group_crystal_system       triclinic
_cell_length_a                    10.918439
_cell_length_b                    10.866384
_cell_length_c                    9.559342
_cell_angle_alpha                 90.014434
_cell_angle_beta                  90.435978
_cell_angle_gamma                 90.28349
_cell_volume                      1134.11133851

loop_
_atom_site_label
_atom_site_type_symbol
_atom_type_description
_atom_site_fract_x
_atom_site_fract_y
_atom_site_fract_z
_atom_type_partial_charge
C1    C     C_R   0.500329 0.262775 0.499836 0.796844
C2    C     C_R   0.502306 0.130208 0.498292 -0.083239
C3    C     C_R   0.517740 0.064622 0.372189 -0.208541
C4    C     C_R   0.517210 0.935473 0.372324 -0.181435
C5    C     C_R   0.501026 0.869951 0.498488 -0.095643
C6    C     C_R   0.486502 0.938177 0.619973 0.079479
C7    C     C_3   0.461034 0.930674 0.773064 -0.235861
C8    C     C_3   0.462949 0.072730 0.772361 -0.529641
C9    C     C_R   0.543503 0.599436 0.074544 0.288556
C10   C     C_R   0.443307 0.409148 0.073794 -0.046605
C11   C     C_R   0.442405 0.409738 0.925012 0.000672
C12   C     C_R   0.265453 0.506252 0.499504 0.785692
C13   C     C_R   0.547944 0.597189 0.927690 0.248926
C14   C     C_3   0.676637 0.647648 0.929864 -0.299348
C15   C     C_3   0.667206 0.656091 0.088326 -0.546009
C16   C     C_R   0.499762 0.737273 0.499897 0.806365
C17   C     C_R   0.734543 0.494971 0.500428 0.855745
C18   C     C_2   0.932812 0.492314 0.386454 -0.112938
C19   C     C_2   0.866236 0.481166 0.502628 -0.256103
C20   C     C_2   0.066340 0.483938 0.392603 -0.216143
C21   C     C_2   0.134790 0.531595 0.497607 -0.176470
C22   C     C_R   0.488223 0.062301 0.619861 0.137486
Cu1   Cu    Cu3+1 0.499990 0.499980 0.640670 1.002436
Cu2   Cu    Cu3+1 0.500010 0.500020 0.359330 0.969109
H1    H     H_    0.889644 0.502027 0.284501 0.173140
H2    H     H_    0.541740 0.113094 0.831015 0.199346
H3    H     H_    0.399364 0.334267 0.128829 0.131436
H4    H     H_    0.397088 0.335866 0.869072 0.126409
H5    H     H_    0.684707 0.739227 0.879058 0.140569
H6    H     H_    0.732641 0.597416 0.147069 0.225264
H7    H     H_    0.662420 0.752451 0.126705 0.185528
H8    H     H_    0.909783 0.461408 0.602519 0.171692
H9    H     H_    0.109252 0.431550 0.309565 0.172588
H10   H     H_    0.529816 0.112349 0.273755 0.166267
H11   H     H_    0.528951 0.887732 0.273967 0.164684
H12   H     H_    0.537743 0.889786 0.833793 0.131746
H13   H     H_    0.373077 0.116656 0.792803 0.211087
N1    N     N_R   0.500780 0.500930 0.147930 -0.183664
N2    N     N_R   0.500780 0.500890 0.852020 -0.179721
O1    O     O_R   0.500000 0.319640 0.618810 -0.586538
O2    O     O_R   0.500010 0.319680 0.381230 -0.596075
O3    O     O_R   0.321940 0.499980 0.618760 -0.543265
O4    O     O_R   0.321950 0.500020 0.381180 -0.577928
O5    O     O_R   0.499990 0.680320 0.618770 -0.588653
O6    O     O_R   0.500000 0.680360 0.381190 -0.581692
O7    O     O_R   0.678050 0.499980 0.618820 -0.572882
O8    O     O_R   0.678060 0.500020 0.381240 -0.588703
C23   C     C_2   0.774637 0.558398 0.887434 0.948240
O9    O     O_2   0.864986 0.596695 0.826468 -0.596013
O10   O     O_R   0.764361 0.433514 0.921133 -0.764434
H14   H     H_    0.836615 0.383824 0.887112 0.321802
C24   C     C_2   0.087414 0.622917 0.600158 0.895608
O11   O     O_2   0.127163 0.624517 0.720108 -0.541342
O12   O     O_R   0.000445 0.709747 0.557968 -0.735045
H15   H     H_    0.975980 0.767044 0.636550 0.343337
C25   C     C_2   0.337194 0.876141 0.804162 0.931462
O13   O     O_2   0.327933 0.796111 0.893302 -0.581103
O14   O     O_R   0.233277 0.917349 0.732017 -0.754123
H16   H     H_    0.155403 0.875791 0.765018 0.347640

loop_
_geom_bond_atom_site_label_1
_geom_bond_atom_site_label_2
_ccdc_geom_bond_type
C16   O6    A    
C2    C22   A    
C8    C22   S    
Cu1   Cu2   S    
C15   H7    S    
C6    C7    S    
C8    H2    S    
C7    H12   S    
C16   O5    A    
Cu2   N1    S    
C3    H10   S    
C10   H3    S    
C10   N1    A    
C19   H8    S    
C17   O7    A    
C23   O10   S    
C2    C3    A    
C9    C15   S    
C4    H11   S    
C7    C8    S    
Cu1   O7    S    
C13   C14   S    
C25   O13   D    
C11   N2    A    
Cu2   O2    S    
Cu1   O3    S    
C18   H1    S    
C7    C25   S    
C24   O11   D    
Cu1   N2    S    
Cu2   O6    S    
C11   H4    S    
C1    O2    A    
C23   O9    D    
C17   C19   S    
C25   O14   S    
C18   C19   D    
C12   O4    A    
C18   C20   S    
C5    C6    A    
C13   N2    A    
C10   C11   A    
C20   H9    S    
C14   H5    S    
C12   O3    A    
Cu1   O1    S    
C6    C22   A    
C20   C21   D    
C3    C4    A    
C15   H6    S    
C1    C2    S    
C8    H13   S    
Cu2   O4    S    
C9    C13   A    
O12   H15   S    
C9    N1    A    
C5    C16   S    
C14   C23   S    
C1    O1    A    
O10   H14   S    
O14   H16   S    
C14   C15   S    
Cu2   O8    S    
C12   C21   S    
C21   C24   S    
Cu1   O5    S    
C17   O8    A    
C24   O12   S    
C4    C5    A    
