data_mof_unit_9952.cif
_audit_creation_date              2012-10-26T19:46:29-0400
_audit_creation_method            fapswitch 2.2
_symmetry_space_group_name_H-M    P1
_symmetry_Int_Tables_number       1
_space_group_crystal_system       triclinic
_cell_length_a                    10.953992
_cell_length_b                    9.493085
_cell_length_c                    15.17274
_cell_angle_alpha                 89.72186
_cell_angle_beta                  90.370592
_cell_angle_gamma                 90.872459
_cell_volume                      1577.53664077

loop_
_atom_site_label
_atom_site_type_symbol
_atom_type_description
_atom_site_fract_x
_atom_site_fract_y
_atom_site_fract_z
_atom_type_partial_charge
C1    C     C_R   0.262192 0.498798 0.502906 0.565923
C2    C     C_R   0.939929 0.628154 0.513343 0.091658
C3    C     C_R   0.934105 0.373758 0.487627 0.113743
C4    C     C_R   0.066740 0.624805 0.519502 0.114299
C5    C     C_R   0.587016 0.567272 0.095694 -0.125160
C6    C     C_R   0.445915 0.383180 0.906080 -0.125292
C7    C     C_R   0.534485 0.617865 0.906661 -0.125506
C8    C     C_R   0.397887 0.431506 0.097721 -0.124425
C9    C     C_R   0.587397 0.573340 0.187402 0.088790
C10   C     C_R   0.448757 0.381333 0.814093 0.095363
C11   C     C_R   0.542841 0.616637 0.815063 0.101654
C12   C     C_R   0.738064 0.501049 0.499013 0.569233
C13   C     C_R   0.399652 0.431108 0.189783 0.097733
C14   C     C_R   0.495166 0.502054 0.234651 0.070345
C15   C     C_R   0.498073 0.498555 0.767495 0.055381
C16   C     C_R   0.491346 0.499289 0.050100 -0.015432
C17   C     C_R   0.489436 0.500406 0.952902 -0.017006
C18   C     C_R   0.872185 0.502004 0.499058 -0.016715
C19   C     C_R   0.128439 0.497048 0.506499 -0.020022
C20   C     C_3   0.663815 0.800029 0.232840 -0.294037
C21   C     C_3   0.471011 0.137872 0.773321 -0.296263
C22   C     C_3   0.729617 0.713020 0.756571 -0.311370
C23   C     C_R   0.499315 0.500472 0.330395 0.594992
C24   C     C_3   0.208172 0.454400 0.265321 -0.310170
C25   C     C_3   0.144764 0.166324 0.571387 -0.287170
C26   C     C_3   0.861808 0.837703 0.440097 -0.291045
C27   C     C_3   0.852915 0.222537 0.373198 -0.283687
C28   C     C_3   0.152225 0.770778 0.635121 -0.279656
C29   C     C_R   0.499738 0.499554 0.670358 0.568371
C30   C     C_R   0.428129 0.073635 0.442172 -0.004921
C31   C     C_R   0.572113 0.926484 0.557520 -0.005203
C32   C     C_R   0.573090 0.075379 0.556924 0.011493
C33   C     C_R   0.427924 0.924627 0.442289 0.005636
C34   C     C_R   0.060814 0.370336 0.494464 0.089900
Cu1   Cu    Cu3+1 0.500000 0.640660 0.500000 0.941366
Cu2   Cu    Cu3+1 0.500000 0.359340 0.500000 0.950341
H1    H     H_    0.371079 0.129235 0.395633 0.115197
H2    H     H_    0.662759 0.842953 0.164542 0.121520
H3    H     H_    0.739407 0.852460 0.269570 0.118320
H4    H     H_    0.576462 0.825001 0.265653 0.173121
H5    H     H_    0.308115 0.242517 0.786043 0.231999
H6    H     H_    0.472158 0.094509 0.841474 0.114385
H7    H     H_    0.566114 0.162140 0.752584 0.150965
H8    H     H_    0.431685 0.056689 0.728504 0.140986
H9    H     H_    0.584274 0.828606 0.801253 0.232238
H10   H     H_    0.778567 0.695296 0.819986 0.129949
H11   H     H_    0.769236 0.808686 0.724839 0.109353
H12   H     H_    0.629384 0.871097 0.603715 0.122326
H13   H     H_    0.743417 0.621718 0.712371 0.155227
H14   H     H_    0.269081 0.273709 0.205413 0.235942
H15   H     H_    0.161228 0.501216 0.207256 0.127386
H16   H     H_    0.246154 0.540068 0.307371 0.158553
H17   H     H_    0.140100 0.393440 0.304414 0.133688
H18   H     H_    0.173524 0.218663 0.436024 0.260404
H19   H     H_    0.092088 0.066014 0.574891 0.126086
H20   H     H_    0.119983 0.231480 0.629149 0.141409
H21   H     H_    0.243620 0.143040 0.575618 0.174839
H22   H     H_    0.822621 0.774360 0.571844 0.253269
H23   H     H_    0.632433 0.132365 0.601913 0.110737
H24   H     H_    0.916139 0.936885 0.440646 0.126443
H25   H     H_    0.763638 0.863282 0.433822 0.167031
H26   H     H_    0.889119 0.775952 0.381488 0.147445
H27   H     H_    0.896160 0.159134 0.501278 0.260567
H28   H     H_    0.942291 0.201221 0.342110 0.124821
H29   H     H_    0.810877 0.315456 0.340877 0.160017
H30   H     H_    0.791075 0.130220 0.363051 0.128701
H31   H     H_    0.103956 0.840548 0.509438 0.261598
H32   H     H_    0.064014 0.789192 0.668632 0.126525
H33   H     H_    0.213565 0.863421 0.645735 0.132049
H34   H     H_    0.370183 0.867618 0.396171 0.109301
H35   H     H_    0.196583 0.676933 0.664547 0.156159
H36   H     H_    0.661876 0.616906 0.060409 0.105413
H37   H     H_    0.411165 0.291139 0.940691 0.106567
H38   H     H_    0.566076 0.710786 0.941664 0.101540
H39   H     H_    0.321728 0.381398 0.063765 0.101352
H40   H     H_    0.767911 0.624781 0.209498 0.233623
N1    N     N_R   0.500000 0.852070 0.500000 -0.226431
N2    N     N_2   0.132277 0.750956 0.541637 -0.471838
N3    N     N_R   0.500000 0.147930 0.500000 -0.225145
N4    N     N_2   0.682093 0.649328 0.231831 -0.513847
N5    N     N_2   0.397618 0.263185 0.768924 -0.496386
N6    N     N_2   0.600817 0.732933 0.771982 -0.505504
N7    N     N_2   0.303822 0.361845 0.236879 -0.521187
N8    N     N_2   0.117187 0.236586 0.488758 -0.514668
N9    N     N_2   0.883695 0.761463 0.521433 -0.515199
N10   N     N_2   0.869024 0.246925 0.466631 -0.472230
O1    O     O_R   0.319640 0.618740 0.499990 -0.476629
O2    O     O_R   0.680360 0.381260 0.500010 -0.474241
O3    O     O_R   0.680360 0.618740 0.500010 -0.502596
O4    O     O_R   0.319640 0.381260 0.499990 -0.499258
O5    O     O_R   0.499990 0.618780 0.371460 -0.506698
O6    O     O_R   0.500010 0.381220 0.628540 -0.484650
O7    O     O_R   0.500010 0.618780 0.628540 -0.481295
O8    O     O_R   0.499990 0.381220 0.371460 -0.492390

loop_
_geom_bond_atom_site_label_1
_geom_bond_atom_site_label_2
_ccdc_geom_bond_type
C1    O1    A    
C24   H16   S    
C1    O4    A    
C2    C18   A    
H9    N6    S    
C25   H20   S    
H18   N8    S    
Cu2   O2    S    
C7    C11   A    
C8    C13   A    
C34   N8    S    
C2    N9    S    
C22   N6    S    
C28   H32   S    
C26   H25   S    
C5    H36   S    
C10   C15   A    
C20   H4    S    
Cu1   O1    S    
C3    C18   A    
C4    N2    S    
C5    C16   A    
C21   H7    S    
C4    C19   A    
C11   C15   A    
C28   H33   S    
C16   C17   S    
C7    C17   A    
C25   N8    S    
C31   N1    A    
C28   N2    S    
Cu2   O6    S    
C24   H15   S    
C22   H11   S    
C8    C16   A    
C13   C14   A    
C3    N10   S    
H31   N2    S    
C25   H21   S    
H14   N7    S    
C15   C29   S    
C7    H38   S    
Cu1   O7    S    
C11   N6    S    
C1    C19   S    
C20   N4    S    
C25   H19   S    
C12   O3    A    
C20   H3    S    
C12   O2    A    
C3    C34   A    
C24   H17   S    
Cu2   N3    S    
C8    H39   S    
C30   H1    S    
C9    N4    S    
C14   C23   S    
C27   N10   S    
C2    C4    A    
C9    C14   A    
C5    C9    A    
C27   H29   S    
C21   H8    S    
C20   H2    S    
C31   C32   A    
H5    N5    S    
C33   H34   S    
C22   H13   S    
C30   N3    A    
Cu1   O3    S    
C22   H10   S    
C21   N5    S    
C31   H12   S    
H27   N10   S    
C23   O5    A    
C28   H35   S    
H22   N9    S    
C6    H37   S    
Cu2   O4    S    
C6    C17   A    
C30   C33   A    
C24   N7    S    
H40   N4    S    
C19   C34   A    
C6    C10   A    
C13   N7    S    
C10   N5    S    
C23   O8    A    
C26   H26   S    
C27   H30   S    
C32   N3    A    
C29   O7    A    
C33   N1    A    
C26   N9    S    
Cu1   N1    S    
C27   H28   S    
C21   H6    S    
Cu2   O8    S    
C12   C18   S    
Cu1   Cu2   S    
C32   H23   S    
C26   H24   S    
C29   O6    A    
Cu1   O5    S    
