data_mof_unit_30130.cif
_audit_creation_date              2013-03-05T16:11:54-0500
_audit_creation_method            fapswitch 2.2
_symmetry_space_group_name_H-M    P1
_symmetry_Int_Tables_number       1
_space_group_crystal_system       triclinic
_cell_length_a                    15.739275
_cell_length_b                    10.625636
_cell_length_c                    9.857339
_cell_angle_alpha                 90.957739
_cell_angle_beta                  89.979797
_cell_angle_gamma                 89.884273
_cell_volume                      1648.30567946

loop_
_atom_site_label
_atom_site_type_symbol
_atom_site_description
_atom_site_fract_x
_atom_site_fract_y
_atom_site_fract_z
_atom_type_partial_charge
O1    O     O_R   0.499990 0.316750 0.614620 -0.627706
O2    O     O_R   0.500010 0.683250 0.385380 -0.627704
O3    O     O_R   0.500000 0.316780 0.385290 -0.580886
O4    O     O_R   0.500000 0.683220 0.614710 -0.580889
C1    C     C_R   0.499882 0.260437 0.498617 1.018902
C2    C     C_R   0.500117 0.739563 0.501383 1.018903
O5    O     O_R   0.376780 0.499970 0.614640 -0.618652
O6    O     O_R   0.623220 0.500030 0.385360 -0.618651
O7    O     O_R   0.376780 0.500000 0.385310 -0.599778
O8    O     O_R   0.623220 0.500000 0.614690 -0.599779
C3    C     C_R   0.337958 0.499130 0.499972 0.970453
C4    C     C_R   0.662042 0.500870 0.500028 0.970456
Zn1   Zn    Zn3+2 0.500000 0.499980 0.653120 1.039700
Zn2   Zn    Zn3+2 0.500000 0.500020 0.346880 1.039702
C5    C     C_3   0.970797 0.390124 0.549759 -0.210507
C6    C     C_3   0.029203 0.609875 0.450241 -0.210506
C7    C     C_3   0.026378 0.405849 0.422974 0.355696
C8    C     C_3   0.973622 0.594150 0.577026 0.355696
H1    H     H_    0.945891 0.299715 0.588086 0.222121
H2    H     H_    0.054108 0.700284 0.411914 0.222121
H3    H     H_    0.946881 0.524668 0.266678 0.204185
H4    H     H_    0.053119 0.475331 0.733322 0.204185
C9    C     C_1   0.249186 0.498478 0.499966 -0.021799
C10   C     C_1   0.750814 0.501521 0.500034 -0.021798
C11   C     C_3   0.028678 0.485250 0.628393 -0.250700
C12   C     C_3   0.971321 0.514749 0.371607 -0.250700
C13   C     C_3   0.083263 0.498604 0.499660 0.000535
C14   C     C_3   0.916737 0.501395 0.500340 0.000535
C15   C     C_1   0.174002 0.498251 0.499845 0.103715
C16   C     C_1   0.825998 0.501749 0.500155 0.103716
C17   C     C_R   0.422678 0.064933 0.479310 0.186927
C18   C     C_R   0.577320 0.935068 0.520687 0.186933
C19   C     C_R   0.422305 0.934728 0.485554 0.215455
C20   C     C_R   0.577694 0.065272 0.514447 0.215455
C21   C     C_R   0.499650 0.871992 0.505526 -0.351638
C22   C     C_R   0.500349 0.128008 0.494474 -0.351636
C23   C     C_R   0.552380 0.578606 0.073226 -0.035278
C24   C     C_R   0.447620 0.421394 0.926773 -0.035278
H5    H     H_    0.594302 0.641495 0.128665 0.155165
H6    H     H_    0.405698 0.358505 0.871335 0.155163
C25   C     C_R   0.552351 0.578587 0.929445 -0.024172
C26   C     C_R   0.447649 0.421413 0.070555 -0.024171
H7    H     H_    0.594237 0.641459 0.876139 0.178432
H8    H     H_    0.405763 0.358541 0.123861 0.178436
N1    N     N_R   0.499980 0.499970 0.857200 -0.098957
N2    N     N_R   0.500020 0.500030 0.142800 -0.098957
N3    N     N_R   0.054715 0.300883 0.337202 0.231424
O9    O     O_R   0.998928 0.228846 0.277528 -0.302425
O10   O     O_R   0.135237 0.278290 0.319762 -0.297118
N4    N     N_R   0.945285 0.699116 0.662798 0.231424
O11   O     O_R   0.001072 0.771153 0.722472 -0.302426
O12   O     O_R   0.864763 0.721709 0.680238 -0.297119
N5    N     N_R   0.344359 0.133155 0.463962 0.229331
O13   O     O_R   0.334511 0.209846 0.363670 -0.357880
O14   O     O_R   0.280973 0.113190 0.545557 -0.291233
N6    N     N_R   0.655640 0.866846 0.536026 0.229332
O15   O     O_R   0.665493 0.790156 0.636317 -0.357876
O16   O     O_R   0.719022 0.886809 0.454422 -0.291241
N7    N     N_R   0.344233 0.866164 0.469383 0.232608
O17   O     O_R   0.319645 0.788872 0.562428 -0.384631
O18   O     O_R   0.295073 0.886565 0.365911 -0.291299
N8    N     N_R   0.655765 0.133835 0.530619 0.232607
O19   O     O_R   0.680354 0.211127 0.437574 -0.384628
O20   O     O_R   0.704926 0.113432 0.634090 -0.291300

loop_
_geom_bond_atom_site_label_1
_geom_bond_atom_site_label_2
_geom_bond_distance
_ccdc_geom_bond_type
O5    Zn1   1.976271 S    
N4    O12   1.300245 A    
O7    Zn2   1.975916 S    
C17   C19   1.385921 A    
N8    O19   1.300648 A    
Zn1   N1    2.011687 S    
C11   C13   1.540854 S    
O7    C3    1.284847 A    
C4    C10   1.397238 S    
C12   C14   1.540852 S    
N3    O9    1.300343 A    
O6    C4    1.285005 A    
C6    H2    1.110315 S    
C1    C22   1.407063 S    
O3    C1    1.276200 A    
C6    C13   1.540988 S    
C14   C16   1.428165 S    
N4    O11   1.300342 A    
C19   N7    1.437351 S    
N7    O17   1.300648 A    
C23   H5    1.081831 S    
C6    C8    1.536850 S    
C8    C11   1.536912 S    
N5    O13   1.300755 A    
C17   N5    1.438081 S    
C24   H6    1.081831 S    
C25   H7    1.081805 S    
C5    C14   1.540987 S    
O2    C2    1.281689 A    
O3    Zn2   1.989716 S    
C26   H8    1.081805 S    
O1    C1    1.281689 A    
C7    C12   1.536913 S    
O8    C4    1.284848 A    
N3    O10   1.300245 A    
C19   C21   1.402272 A    
H3    C12   1.110249 S    
N6    O16   1.301235 A    
C24   C26   1.417298 A    
C20   C22   1.402270 A    
N5    O14   1.301235 A    
C23   C25   1.417298 A    
O2    Zn2   1.977341 S    
C10   C16   1.183352 T    
C5    C11   1.558989 S    
O4    C2    1.276201 A    
C13   C15   1.428164 S    
N6    O15   1.300747 A    
C7    C13   1.524317 S    
C18   C21   1.402166 A    
C9    C15   1.183352 T    
O1    Zn1   1.977342 S    
C20   N8    1.437351 S    
C8    C14   1.524318 S    
C2    C21   1.407063 S    
C8    N4    1.457365 S    
Zn2   N2    2.011687 S    
C26   N2    1.366644 A    
N7    O18   1.301253 A    
C3    C9    1.397238 S    
O4    Zn1   1.989716 S    
C5    C7    1.536851 S    
C25   N1    1.366644 A    
C17   C22   1.402163 A    
O5    C3    1.285005 A    
N8    O20   1.301254 A    
O6    Zn2   1.976268 S    
C6    C12   1.558989 S    
C23   N2    1.366788 A    
C5    H1    1.110315 S    
H4    C11   1.110249 S    
C18   N6    1.438081 S    
C7    N3    1.457364 S    
C24   N1    1.366787 A    
O8    Zn1   1.975914 S    
C18   C20   1.385917 A    
