data_mof_unit_53275.cif
_audit_creation_date              2012-12-10T17:02:58-0500
_audit_creation_method            fapswitch 2.2
_symmetry_space_group_name_H-M    P1
_symmetry_Int_Tables_number       1
_space_group_crystal_system       triclinic
_cell_length_a                    18.405346
_cell_length_b                    18.871953
_cell_length_c                    18.83086
_cell_angle_alpha                 110.01472
_cell_angle_beta                  109.087579
_cell_angle_gamma                 109.131059
_cell_volume                      5045.96795252

loop_
_atom_site_label
_atom_site_type_symbol
_atom_type_description
_atom_site_fract_x
_atom_site_fract_y
_atom_site_fract_z
_atom_type_partial_charge
C1    C     C_R   0.621985 0.619412 0.501477 0.881502
C2    C     C_R   0.202652 0.363927 0.447270 -0.286845
C3    C     C_3   0.027747 0.359381 0.315074 0.103577
C4    C     C_3   0.050292 0.310279 0.249279 -0.388933
C5    C     C_3   0.978572 0.270837 0.155968 -0.921744
C6    C     C_R   0.863738 0.615828 0.534666 0.535883
C7    C     C_R   0.122688 0.362747 0.433317 0.542294
C8    C     C_R   0.919169 0.670643 0.517852 0.102674
C9    C     C_R   0.070675 0.317638 0.460211 0.028946
C10   C     C_R   0.900815 0.730892 0.500084 -0.315675
C11   C     C_R   0.093210 0.264368 0.488694 -0.246522
C12   C     C_R   0.827883 0.739974 0.501199 0.016999
C13   C     C_R   0.168691 0.257502 0.493222 0.024011
C14   C     C_R   0.768032 0.680779 0.511029 0.062885
C15   C     C_R   0.377183 0.380571 0.497704 0.884666
C16   C     C_R   0.227482 0.313386 0.479544 0.005168
C17   C     C_R   0.690107 0.683619 0.501881 -0.132710
C18   C     C_R   0.309441 0.316540 0.497998 -0.117837
C19   C     C_R   0.382923 0.503499 0.380312 0.907644
C20   C     C_R   0.616872 0.496278 0.619533 0.907355
C21   C     C_R   0.671868 0.743597 0.484722 -0.349065
C22   C     C_R   0.332845 0.265871 0.528752 -0.299429
C23   C     C_R   0.733023 0.806359 0.480691 0.467371
C24   C     C_R   0.274106 0.207813 0.538655 0.469874
C25   C     C_R   0.811762 0.805292 0.490565 -0.186237
C26   C     C_R   0.253065 0.519702 0.325519 0.428468
C27   C     C_R   0.189042 0.198628 0.514292 -0.214674
C28   C     C_R   0.997525 0.619643 0.118204 0.873178
C29   C     C_R   0.001598 0.380423 0.880995 0.848077
C30   C     C_R   0.120725 0.497584 0.116843 0.891451
C31   C     C_R   0.879511 0.497118 0.877747 0.894741
C32   C     C_R   0.995310 0.115987 0.619932 0.856890
C33   C     C_R   0.004593 0.884001 0.380156 0.860337
C34   C     C_R   0.879222 0.876383 0.495989 0.903108
C35   C     C_R   0.120915 0.124849 0.505454 0.893986
C36   C     C_R   0.970870 0.752129 0.088790 -0.175458
C37   C     C_R   0.753635 0.571261 0.755549 0.454774
C38   C     C_R   0.044541 0.258214 0.916879 -0.173906
C39   C     C_R   0.977324 0.824226 0.080628 0.123191
C40   C     C_R   0.048020 0.190732 0.929661 0.130480
C41   C     C_R   0.008637 0.901977 0.154402 -0.157228
C42   C     C_R   0.017251 0.111488 0.857757 -0.176938
C43   C     C_R   0.407469 0.510758 0.236657 -0.376136
C44   C     C_R   0.602912 0.329455 0.599699 -0.402874
C45   C     C_R   0.026943 0.906499 0.234451 0.069415
C46   C     C_R   0.989580 0.101413 0.774610 0.077056
C47   C     C_R   0.009708 0.829870 0.240799 0.060046
C48   C     C_R   0.185483 0.510829 0.256733 -0.339064
C49   C     C_R   0.998131 0.174380 0.763330 0.068110
C50   C     C_R   0.990994 0.755424 0.169379 0.037002
C51   C     C_R   0.016464 0.249596 0.833552 0.024290
C52   C     C_R   0.992717 0.685485 0.180076 -0.081567
C53   C     C_R   0.005914 0.314775 0.818790 -0.107208
C54   C     C_R   0.000528 0.683215 0.255139 -0.215216
C55   C     C_R   0.988737 0.311940 0.740033 -0.223645
C56   C     C_R   0.007754 0.750918 0.321155 -0.210849
C57   C     C_R   0.982092 0.244160 0.674608 -0.203440
C58   C     C_R   0.011231 0.823341 0.314472 -0.093807
C59   C     C_R   0.817098 0.570228 0.818567 -0.330457
C60   C     C_R   0.988174 0.176328 0.685746 -0.105543
C61   C     C_R   0.412292 0.500311 0.160983 0.466599
C62   C     C_R   0.604092 0.251361 0.585038 0.448672
C63   C     C_R   0.339274 0.481767 0.088600 0.483511
C64   C     C_R   0.674594 0.253829 0.645861 0.485794
C65   C     C_R   0.263718 0.478043 0.093888 -0.392091
C66   C     C_R   0.744279 0.333622 0.718789 -0.386030
C67   C     C_R   0.260989 0.494296 0.171740 0.039071
C68   C     C_R   0.743535 0.411911 0.733941 0.038644
C69   C     C_R   0.330837 0.504930 0.241645 -0.008769
C70   C     C_R   0.189075 0.497954 0.181089 -0.104206
C71   C     C_R   0.674377 0.410876 0.672199 -0.010445
C72   C     C_R   0.322287 0.510450 0.315198 -0.173694
C73   C     C_R   0.680746 0.491930 0.684134 -0.178829
C74   C     C_3   0.240764 0.602210 0.439142 0.150202
C75   C     C_3   0.269926 0.628743 0.534386 -0.283313
C76   C     C_3   0.259447 0.706023 0.579491 -0.995473
C77   C     C_3   0.833761 0.696582 0.760347 0.055883
C78   C     C_3   0.828617 0.772863 0.752321 -0.304439
C79   C     C_3   0.909074 0.828709 0.750842 -0.959413
C80   C     C_3   0.684050 0.907476 0.508035 0.078125
C81   C     C_R   0.812230 0.492144 0.808202 -0.110317
C82   C     C_3   0.588468 0.881662 0.449715 -0.337249
C83   C     C_3   0.556964 0.935344 0.499237 -0.948293
C84   C     C_3   0.344940 0.203385 0.661147 0.134527
C85   C     C_3   0.443109 0.230328 0.696374 -0.404265
C86   C     C_3   0.492954 0.274790 0.795370 -0.926653
C87   C     C_3   0.564887 0.574723 0.222777 0.061990
C88   C     C_3   0.633070 0.592182 0.192388 -0.304001
C89   C     C_3   0.723610 0.668501 0.266326 -0.943543
C90   C     C_3   0.456172 0.152983 0.480176 0.061317
C91   C     C_3   0.395923 0.056620 0.411675 -0.310516
C92   C     C_R   0.787772 0.621093 0.530707 -0.377782
C93   C     C_3   0.298396 0.029417 0.380685 -0.913710
C94   C     C_3   0.320633 0.510407 0.975027 0.061514
C95   C     C_3   0.241473 0.449353 0.882971 -0.311873
C96   C     C_3   0.214922 0.499385 0.840677 -0.936896
C97   C     C_3   0.686922 0.159989 0.696637 0.038833
C98   C     C_3   0.766810 0.146511 0.724722 -0.315109
C99   C     C_3   0.781032 0.128472 0.799738 -0.924924
C100  C     C_3   0.819842 0.486176 0.538884 0.081568
C101  C     C_3   0.852877 0.422271 0.542388 -0.343849
C102  C     C_3   0.780314 0.337903 0.522297 -0.905199
H1    H     H_    0.943840 0.769070 0.484096 0.179626
H2    H     H_    0.973718 0.245556 0.615458 0.151679
H3    H     H_    0.913526 0.226224 0.144458 0.255177
H4    H     H_    0.995076 0.233466 0.110131 0.285050
H5    H     H_    0.973963 0.322806 0.142989 0.276641
H6    H     H_    0.464319 0.524056 0.291317 0.177884
H7    H     H_    0.547276 0.325786 0.552729 0.184163
H8    H     H_    0.206942 0.460832 0.036300 0.167342
H9    H     H_    0.800510 0.333643 0.761212 0.182478
H10   H     H_    0.129395 0.513530 0.261916 0.154872
H11   H     H_    0.870547 0.630901 0.876316 0.160441
H12   H     H_    0.608786 0.740086 0.472814 0.153543
H13   H     H_    0.397921 0.272817 0.546652 0.126113
H14   H     H_    0.745503 0.580667 0.545505 0.147491
H15   H     H_    0.053111 0.231083 0.510200 0.169841
H16   H     H_    0.244223 0.403302 0.430969 0.198687
H17   H     H_    0.170671 0.586459 0.406071 0.144867
H18   H     H_    0.283523 0.658336 0.436961 0.112335
H19   H     H_    0.229528 0.573306 0.538424 0.253570
H20   H     H_    0.340431 0.646191 0.568729 0.215981
H21   H     H_    0.300514 0.762871 0.577670 0.263615
H22   H     H_    0.281334 0.723769 0.648459 0.271283
H23   H     H_    0.189019 0.689288 0.547158 0.272596
H24   H     H_    0.835176 0.654932 0.702847 0.136390
H25   H     H_    0.896251 0.722532 0.820069 0.161828
H26   H     H_    0.001635 0.629140 0.262832 0.147221
H27   H     H_    0.767735 0.747866 0.691569 0.237853
H28   H     H_    0.824926 0.813787 0.808288 0.223297
H29   H     H_    0.970276 0.858343 0.813232 0.261813
H30   H     H_    0.901359 0.881388 0.741780 0.275716
H31   H     H_    0.915504 0.789189 0.696506 0.280275
H32   H     H_    0.051224 0.725871 0.565200 0.182495
H33   H     H_    0.989698 0.650769 0.458139 0.165255
H34   H     H_    0.020331 0.391316 0.505099 0.200203
H35   H     H_    0.963300 0.288034 0.479139 0.176531
H36   H     H_    0.726757 0.977922 0.535240 0.166992
H37   H     H_    0.980529 0.362393 0.729326 0.157377
H38   H     H_    0.690250 0.898319 0.564821 0.123969
H39   H     H_    0.583954 0.891658 0.393902 0.239913
H40   H     H_    0.543876 0.811883 0.423361 0.207715
H41   H     H_    0.563689 0.929131 0.557319 0.255348
H42   H     H_    0.486317 0.912134 0.456308 0.261129
H43   H     H_    0.596234 0.004545 0.519784 0.310323
H44   H     H_    0.315930 0.158494 0.682285 0.171781
H45   H     H_    0.338089 0.261494 0.691266 0.119137
H46   H     H_    0.449674 0.171919 0.668852 0.225683
H47   H     H_    0.473918 0.275960 0.676825 0.214664
H48   H     H_    0.948960 0.693181 0.031262 0.147432
H49   H     H_    0.488751 0.334360 0.824602 0.271952
H50   H     H_    0.563714 0.293389 0.818537 0.264722
H51   H     H_    0.464867 0.230120 0.817091 0.262415
H52   H     H_    0.886949 0.778129 0.957813 0.200717
H53   H     H_    0.969521 0.878985 0.003315 0.176820
H54   H     H_    0.145000 0.250302 0.053487 0.197831
H55   H     H_    0.075422 0.145602 0.014156 0.176265
H56   H     H_    0.025007 0.008624 0.312441 0.234076
H57   H     H_    0.111800 0.994992 0.364811 0.189427
H58   H     H_    0.898682 0.007548 0.646533 0.172771
H59   H     H_    0.065075 0.317793 0.973026 0.148045
H60   H     H_    0.987954 0.995952 0.696299 0.238140
H61   H     H_    0.589599 0.562790 0.277467 0.161912
H62   H     H_    0.557512 0.633558 0.246023 0.131975
H63   H     H_    0.639481 0.533398 0.166398 0.234841
H64   H     H_    0.610024 0.606491 0.139269 0.226112
H65   H     H_    0.718910 0.727976 0.294302 0.284961
H66   H     H_    0.770638 0.680955 0.241376 0.268477
H67   H     H_    0.749580 0.653211 0.317812 0.266476
H68   H     H_    0.439931 0.190899 0.449862 0.152849
H69   H     H_    0.443228 0.165324 0.535641 0.151410
H70   H     H_    0.020252 0.960193 0.150255 0.142307
H71   H     H_    0.407026 0.043330 0.355020 0.228740
H72   H     H_    0.412710 0.017180 0.439517 0.226512
H73   H     H_    0.284380 0.035636 0.434848 0.298085
H74   H     H_    0.256546 0.960522 0.327606 0.262829
H75   H     H_    0.280599 0.070181 0.355626 0.272339
H76   H     H_    0.378671 0.547623 0.971125 0.162896
H77   H     H_    0.307474 0.559227 0.014053 0.123341
H78   H     H_    0.258245 0.406141 0.842440 0.227797
H79   H     H_    0.184700 0.408176 0.885663 0.231683
H80   H     H_    0.194925 0.540776 0.878584 0.273121
H81   H     H_    0.012273 0.056165 0.865723 0.144096
H82   H     H_    0.158092 0.452950 0.773684 0.266262
H83   H     H_    0.270937 0.540819 0.837031 0.256967
H84   H     H_    0.626346 0.099025 0.671664 0.161277
H85   H     H_    0.693056 0.210548 0.754493 0.131149
H86   H     H_    0.757085 0.091191 0.668831 0.214738
H87   H     H_    0.826669 0.205497 0.745175 0.241915
H88   H     H_    0.794385 0.184593 0.857614 0.269457
H89   H     H_    0.838749 0.117886 0.817310 0.277458
H90   H     H_    0.721710 0.069348 0.780448 0.251310
H91   H     H_    0.763580 0.455382 0.472132 0.143840
H92   H     H_    0.009385 0.746165 0.377374 0.145131
H93   H     H_    0.797450 0.500557 0.587689 0.142327
H94   H     H_    0.876061 0.407479 0.494358 0.230495
H95   H     H_    0.909621 0.452218 0.608325 0.228690
H96   H     H_    0.757524 0.351351 0.570557 0.275958
H97   H     H_    0.806635 0.293259 0.525767 0.264247
H98   H     H_    0.723341 0.305785 0.456044 0.268895
H99   H     H_    0.008347 0.402743 0.296020 0.164774
H100  H     H_    0.969089 0.312912 0.311762 0.149767
H101  H     H_    0.114358 0.354898 0.259414 0.256280
H102  H     H_    0.056564 0.257259 0.258993 0.208508
N1    N     N_3   0.995212 0.664933 0.519048 -0.413737
N2    N     N_3   0.996004 0.327034 0.459138 -0.469422
N3    N     N_3   0.955451 0.818302 0.997626 -0.474579
N4    N     N_3   0.078255 0.202317 0.015464 -0.468768
N5    N     N_3   0.072447 0.991667 0.308066 -0.464759
N6    N     N_3   0.942034 0.014200 0.703616 -0.479557
O1    O     O_R   0.591640 0.539900 0.448300 -0.634621
O2    O     O_R   0.408390 0.356670 0.448280 -0.631158
O3    O     O_R   0.408410 0.448290 0.356670 -0.625699
O4    O     O_R   0.591590 0.551710 0.643330 -0.567022
O5    O     O_R   0.408380 0.551730 0.460100 -0.597974
O6    O     O_R   0.591620 0.448270 0.539900 -0.651603
O7    O     O_R   0.948260 0.539910 0.091610 -0.621119
O8    O     O_R   0.051740 0.460090 0.908390 -0.628575
O9    O     O_R   0.051720 0.643340 0.091610 -0.615368
O10   O     O_R   0.948280 0.356660 0.908390 -0.627687
O11   O     O_R   0.039880 0.448280 0.091630 -0.630061
O12   O     O_R   0.408360 0.460100 0.551700 -0.619679
O13   O     O_R   0.960120 0.551720 0.908370 -0.625862
O14   O     O_R   0.143330 0.551710 0.091620 -0.622155
O15   O     O_R   0.856670 0.448290 0.908380 -0.624536
O16   O     O_R   0.948270 0.091630 0.539910 -0.626085
O17   O     O_R   0.051730 0.908370 0.460090 -0.626132
O18   O     O_3   0.247974 0.528106 0.399677 -0.621943
O19   O     O_3   0.759693 0.649639 0.765312 -0.631246
O20   O     O_3   0.713390 0.862859 0.457108 -0.631934
O21   O     O_3   0.299310 0.157685 0.568839 -0.653352
O22   O     O_3   0.484435 0.500090 0.152573 -0.610878
O23   O     O_R   0.051700 0.091600 0.643340 -0.629577
O24   O     O_3   0.545001 0.173404 0.506828 -0.611077
O25   O     O_3   0.341214 0.460362 0.011257 -0.612294
O26   O     O_3   0.678226 0.177819 0.627908 -0.621769
O27   O     O_3   0.890625 0.563201 0.559847 -0.635097
O28   O     O_3   0.101077 0.412847 0.400665 -0.633459
O29   O     O_R   0.948300 0.908400 0.356660 -0.625652
O30   O     O_R   0.856660 0.908400 0.448280 -0.564092
O31   O     O_R   0.143340 0.091600 0.551720 -0.589656
O32   O     O_R   0.960090 0.908380 0.551710 -0.654326
O33   O     O_R   0.039910 0.091620 0.448290 -0.648923
O34   O     O_R   0.591610 0.643330 0.551720 -0.627373
Zn1   Zn    Zn3+2 0.500020 0.430940 0.430940 0.937086
Zn2   Zn    Zn3+2 0.499980 0.569060 0.569060 0.967547
Zn3   Zn    Zn3+2 0.930920 0.430950 0.000010 0.927780
Zn4   Zn    Zn3+2 0.069080 0.569050 0.999990 0.940309
Zn5   Zn    Zn3+2 0.930940 0.000030 0.430950 0.956925
Zn6   Zn    Zn3+2 0.069060 0.999970 0.569050 0.930347

loop_
_geom_bond_atom_site_label_1
_geom_bond_atom_site_label_2
_ccdc_geom_bond_type
O15   Zn3   S    
C15   C18   S    
C66   C68   A    
C87   C88   S    
C40   N4    S    
C35   O33   A    
C101  C102  S    
O33   Zn5   S    
C34   O32   A    
C75   H20   S    
C28   C52   S    
C87   H61   S    
C95   C96   S    
C85   H46   S    
C6    O27   S    
C82   H40   S    
C24   O21   S    
C63   C65   A    
C97   C98   S    
C2    H16   S    
C39   C41   A    
C5    H3    S    
C77   C78   S    
C37   O19   S    
C74   H17   S    
C46   C49   A    
C90   O24   S    
C33   C58   S    
C49   C60   A    
C27   C35   S    
C62   O24   S    
C68   C81   A    
C20   O6    A    
C10   H1    S    
C38   C40   A    
C78   H27   S    
C64   O26   S    
H53   N3    S    
C9    N2    S    
C102  H96   S    
C94   H76   S    
C83   H42   S    
O34   Zn2   S    
C101  H95   S    
C94   O25   S    
C4    H102  S    
C1    O1    A    
C87   O22   S    
C11   C13   A    
C61   O22   S    
C55   H37   S    
C91   H71   S    
C44   C71   A    
C7    C9    A    
C42   C46   A    
C45   C47   A    
C61   C63   A    
C84   O21   S    
C89   H65   S    
O8    Zn4   S    
C62   C64   A    
C83   H43   S    
O14   Zn4   S    
C38   H59   S    
C2    C7    A    
C26   O18   S    
C65   C67   A    
C39   N3    S    
C90   H69   S    
C74   O18   S    
C24   C27   A    
C66   H9    S    
C30   O11   A    
C2    C16   A    
O16   Zn5   S    
H52   N3    S    
C77   H25   S    
C101  H94   S    
C26   C48   A    
C25   C34   S    
H33   N1    S    
C44   H7    S    
H56   N5    S    
C40   C42   A    
C87   H62   S    
O30   Zn5   S    
C43   C69   A    
C18   C22   A    
C76   H23   S    
C14   C17   A    
C19   C72   S    
C94   C95   S    
H55   N4    S    
C96   H82   S    
C82   H39   S    
H54   N4    S    
C30   C70   S    
C52   C54   A    
O23   Zn6   S    
C47   C50   A    
C85   H47   S    
C5    H4    S    
C53   C55   A    
C32   O23   A    
C97   H84   S    
C79   H31   S    
C41   H70   S    
C54   C56   A    
C74   C75   S    
O31   Zn6   S    
C76   H22   S    
C59   C81   A    
C84   C85   S    
C4    H101  S    
C80   C82   S    
C6    C92   A    
C80   O20   S    
C71   C73   A    
C93   H75   S    
C78   C79   S    
C95   H79   S    
C57   C60   A    
C6    C8    A    
C38   C51   A    
H60   N6    S    
C49   C51   A    
O6    Zn1   S    
C80   H38   S    
C97   O26   S    
C54   H26   S    
C93   H73   S    
C45   N5    S    
C51   C53   A    
C91   H72   S    
C19   O3    A    
C20   O4    A    
C69   C72   A    
C75   C76   S    
C89   H66   S    
C15   O2    A    
C33   O29   A    
C1    O34   A    
C86   H50   S    
C91   C93   S    
C92   H14   S    
C56   H92   S    
C50   C52   A    
C7    O28   S    
C59   H11   S    
C79   H29   S    
C90   H68   S    
C100  O27   S    
O4    Zn2   S    
C55   C57   A    
C26   C72   A    
C42   H81   S    
O3    Zn1   S    
C9    C11   A    
C14   C92   A    
C85   C86   S    
C37   C59   A    
C10   C12   A    
H58   N6    S    
C34   O30   A    
O17   Zn6   S    
C31   O13   A    
C16   C18   A    
C29   O8    A    
C48   H10   S    
O10   Zn3   S    
C32   O16   A    
C35   O31   A    
C28   O9    A    
C88   H64   S    
C82   C83   S    
C21   C23   A    
C98   H87   S    
C3    H99   S    
C22   C24   A    
O29   Zn5   S    
C32   C60   S    
C3    C4    S    
C11   H15   S    
C36   C50   A    
C43   C61   A    
C5    H5    S    
C100  H93   S    
C97   H85   S    
C57   H2    S    
C37   C73   A    
C22   H13   S    
C75   H19   S    
C76   H21   S    
C1    C17   S    
C96   H83   S    
C86   H51   S    
C36   C39   A    
C102  H98   S    
O7    Zn3   S    
C48   C70   A    
C21   H12   S    
C33   O17   A    
C31   C81   S    
C99   H88   S    
C30   O14   A    
C84   H44   S    
O13   Zn4   S    
C84   H45   S    
O11   Zn3   S    
C93   H74   S    
C77   O19   S    
O2    Zn1   S    
H57   N5    S    
C96   H80   S    
C12   C25   A    
C67   C70   A    
C44   C62   A    
O1    Zn1   S    
C15   O12   A    
C31   O15   A    
C12   C14   A    
O32   Zn6   S    
C89   H67   S    
C88   H63   S    
C46   N6    S    
C102  H97   S    
C47   C58   A    
C99   H89   S    
O12   Zn2   S    
C36   H48   S    
C90   C91   S    
C99   H90   S    
C29   C53   S    
C68   C71   A    
C80   H36   S    
C79   H30   S    
H32   N1    S    
C100  C101  S    
C56   C58   A    
C20   C73   S    
C19   O5    A    
C94   H77   S    
C23   C25   A    
C78   H28   S    
C8    N1    S    
C43   H6    S    
C17   C21   A    
C65   H8    S    
C23   O20   S    
C3    O28   S    
C63   O25   S    
C74   H18   S    
C28   O7    A    
C100  H91   S    
C95   H78   S    
C4    C5    S    
C88   C89   S    
O5    Zn2   S    
C8    C10   A    
C98   C99   S    
C13   C16   A    
C3    H100  S    
C41   C45   A    
O9    Zn4   S    
C13   C27   A    
C83   H41   S    
H34   N2    S    
C67   C69   A    
C86   H49   S    
C98   H86   S    
H35   N2    S    
C77   H24   S    
C64   C66   A    
C29   O10   A    
