data_mof_unit_23487.cif
_audit_creation_date              2012-10-26T20:07:47-0400
_audit_creation_method            fapswitch 2.2
_symmetry_space_group_name_H-M    P1
_symmetry_Int_Tables_number       1
_space_group_crystal_system       triclinic
_cell_length_a                    9.51852
_cell_length_b                    10.812911
_cell_length_c                    17.108853
_cell_angle_alpha                 88.425952
_cell_angle_beta                  93.169253
_cell_angle_gamma                 89.109821
_cell_volume                      1757.27974667

loop_
_atom_site_label
_atom_site_type_symbol
_atom_type_description
_atom_site_fract_x
_atom_site_fract_y
_atom_site_fract_z
_atom_type_partial_charge
C1    C     C_R   0.500928 0.262276 0.498778 0.545741
C2    C     C_R   0.068476 0.586634 0.456281 0.254649
C3    C     C_R   0.515775 0.499535 0.651255 0.567311
C4    C     C_R   0.483375 0.503326 0.349260 0.565975
C5    C     C_R   0.519895 0.498236 0.738056 -0.008261
C6    C     C_R   0.474772 0.503508 0.263508 -0.009733
C7    C     C_R   0.403065 0.455727 0.779157 0.072697
C8    C     C_R   0.559933 0.582471 0.219249 0.072014
C9    C     C_R   0.416465 0.437611 0.861227 0.158200
C10   C     C_R   0.550812 0.578817 0.136953 0.185934
C11   C     C_R   0.539574 0.477739 0.902953 0.167109
C12   C     C_R   0.499506 0.737692 0.502320 0.524922
C13   C     C_R   0.456689 0.496468 0.099742 0.160997
C14   C     C_R   0.650308 0.525582 0.862200 -0.142784
C15   C     C_R   0.368645 0.423911 0.143604 -0.138758
C16   C     C_R   0.641334 0.537498 0.780797 0.177325
C17   C     C_R   0.379015 0.424262 0.225036 0.191241
C18   C     C_R   0.395708 0.066861 0.536047 -0.146844
C19   C     C_R   0.608176 0.933326 0.468457 -0.152255
C20   C     C_3   0.579158 0.780413 0.281564 -0.305038
C21   C     C_3   0.182225 0.545734 0.727544 -0.272363
C22   C     C_3   0.563430 0.762140 0.052569 -0.291000
C23   C     C_R   0.393698 0.937862 0.540976 0.122341
C24   C     C_3   0.187034 0.435253 0.920162 -0.277170
C25   C     C_3   0.727010 0.714855 0.729479 0.007624
C26   C     C_3   0.843981 0.767627 0.682438 -0.369053
C27   C     C_3   0.355000 0.233134 0.280588 0.006401
C28   C     C_3   0.258728 0.151120 0.326738 -0.366504
C29   C     C_3   0.177407 0.940783 0.617287 -0.336291
C30   C     C_3   0.851004 0.064672 0.412364 -0.328786
C31   C     C_3   0.895841 0.308264 0.667644 -0.311071
C32   C     C_3   0.090922 0.800259 0.408949 -0.318800
C33   C     C_R   0.611680 0.062069 0.465056 0.115853
C34   C     C_R   0.499520 0.871696 0.504472 -0.012068
C35   C     C_R   0.502884 0.128292 0.498801 -0.009319
C36   C     C_R   0.080911 0.412674 0.542285 -0.012832
C37   C     C_R   0.919089 0.586025 0.456616 -0.012372
C38   C     C_R   0.931876 0.412551 0.543034 0.244436
Cu1   Cu    Cu3+1 0.640660 0.500020 0.500000 0.962349
Cu2   Cu    Cu3+1 0.359340 0.499980 0.500000 0.975976
H1    H     H_    0.744079 0.556428 0.894304 0.142436
H2    H     H_    0.516323 0.757947 0.332626 0.150159
H3    H     H_    0.217178 0.359346 0.757286 0.238666
H4    H     H_    0.147361 0.578000 0.784326 0.127730
H5    H     H_    0.087873 0.525555 0.689541 0.150572
H6    H     H_    0.239256 0.622103 0.699248 0.156011
H7    H     H_    0.731135 0.680505 0.118699 0.268898
H8    H     H_    0.636381 0.811355 0.014475 0.129066
H9    H     H_    0.472005 0.732031 0.015167 0.168542
H10   H     H_    0.526538 0.827404 0.096270 0.129230
H11   H     H_    0.295305 0.281935 0.879890 0.230656
H12   H     H_    0.293496 0.364160 0.114245 0.139324
H13   H     H_    0.099277 0.416120 0.876931 0.122973
H14   H     H_    0.203977 0.536672 0.922104 0.157012
H15   H     H_    0.156076 0.402693 0.978712 0.151073
H16   H     H_    0.725257 0.764067 0.785784 0.119052
H17   H     H_    0.625377 0.732413 0.695089 0.121242
H18   H     H_    0.848073 0.720237 0.625778 0.180098
H19   H     H_    0.824792 0.868150 0.670586 0.089334
H20   H     H_    0.946371 0.753841 0.716101 0.131158
H21   H     H_    0.456421 0.241007 0.315569 0.117228
H22   H     H_    0.374448 0.187605 0.224445 0.117680
H23   H     H_    0.316912 0.121136 0.563583 0.126274
H24   H     H_    0.158743 0.136530 0.291891 0.143466
H25   H     H_    0.311144 0.059985 0.340398 0.087210
H26   H     H_    0.234665 0.195066 0.382460 0.178130
H27   H     H_    0.333212 0.802166 0.620740 0.247222
H28   H     H_    0.218255 0.001116 0.664600 0.132524
H29   H     H_    0.104184 0.874108 0.642608 0.130699
H30   H     H_    0.117587 0.996524 0.570750 0.137968
H31   H     H_    0.682850 0.188094 0.381664 0.251227
H32   H     H_    0.836815 0.999576 0.363636 0.124804
H33   H     H_    0.892700 0.014930 0.466642 0.139009
H34   H     H_    0.688064 0.880025 0.441112 0.125747
H35   H     H_    0.929151 0.134638 0.396010 0.145886
H36   H     H_    0.877372 0.231620 0.558506 0.249316
H37   H     H_    0.005786 0.275248 0.681082 0.089749
H38   H     H_    0.823734 0.241643 0.694450 0.141832
H39   H     H_    0.879873 0.399523 0.693876 0.215063
H40   H     H_    0.145868 0.641418 0.351130 0.253749
H41   H     H_    0.172956 0.860062 0.385026 0.151488
H42   H     H_    0.074656 0.827414 0.469933 0.173048
H43   H     H_    0.991842 0.815132 0.372346 0.095355
H44   H     H_    0.142861 0.342317 0.575217 0.123300
H45   H     H_    0.856577 0.653247 0.421473 0.107421
H46   H     H_    0.724840 0.634020 0.295758 0.266292
H47   H     H_    0.508467 0.821638 0.233711 0.146251
H48   H     H_    0.658704 0.849977 0.298691 0.129660
N1    N     N_2   0.555062 0.476221 0.985943 -0.193986
N2    N     N_2   0.718738 0.126299 0.425497 -0.496662
N3    N     N_2   0.864756 0.316132 0.583959 -0.450439
N4    N     N_2   0.136588 0.672197 0.407134 -0.453472
N5    N     N_2   0.441502 0.490610 0.017587 -0.211541
N6    N     N_R   0.852070 0.500030 0.499980 -0.223848
N7    N     N_R   0.147930 0.499970 0.500020 -0.223402
N8    N     N_2   0.649716 0.670631 0.255753 -0.528823
N9    N     N_2   0.270913 0.435484 0.738429 -0.495202
N10   N     N_2   0.636252 0.657163 0.091490 -0.473396
N11   N     N_2   0.313531 0.369043 0.900901 -0.485836
N12   N     N_2   0.292016 0.873389 0.584756 -0.494768
O1    O     O_R   0.618740 0.319660 0.500000 -0.451048
O2    O     O_3   0.290146 0.350602 0.266716 -0.538513
O3    O     O_R   0.381260 0.680340 0.500000 -0.454395
O4    O     O_R   0.381170 0.319630 0.500010 -0.528435
O5    O     O_R   0.618830 0.680370 0.499990 -0.535613
O6    O     O_R   0.631780 0.498870 0.613920 -0.438805
O7    O     O_R   0.368220 0.501130 0.386080 -0.448643
O8    O     O_R   0.394210 0.498840 0.613930 -0.489913
O9    O     O_R   0.605790 0.501160 0.386070 -0.526219
O10   O     O_3   0.753500 0.587142 0.743588 -0.565663

loop_
_geom_bond_atom_site_label_1
_geom_bond_atom_site_label_2
_ccdc_geom_bond_type
Cu1   O6    S    
C22   H8    S    
C4    O9    A    
C22   N10   S    
C24   N11   S    
C8    N8    S    
C25   H16   S    
C30   N2    S    
C16   O10   S    
C24   H15   S    
C32   H41   S    
H7    N10   S    
C37   H45   S    
C2    N7    A    
C21   H6    S    
C12   O5    A    
C11   C14   A    
C18   H23   S    
C24   H14   S    
C29   H28   S    
C20   H47   S    
C21   N9    S    
C15   C17   A    
C10   N10   S    
C5    C16   A    
C27   H21   S    
C31   H37   S    
C26   H19   S    
C29   H29   S    
C36   N7    A    
Cu2   O8    S    
C23   N12   S    
C20   N8    S    
C9    N11   S    
C25   H17   S    
Cu1   O1    S    
C21   H5    S    
C3    O6    A    
H11   N11   S    
C4    O7    A    
C18   C23   A    
C22   H10   S    
C12   O3    A    
C4    C6    S    
C19   C33   A    
Cu1   Cu2   S    
C5    C7    A    
C30   H33   S    
C6    C8    A    
C24   H13   S    
C38   N3    S    
C10   C13   A    
C13   N5    S    
H40   N4    S    
C28   H26   S    
C17   O2    S    
Cu1   N6    S    
C27   H22   S    
Cu2   O4    S    
C21   H4    S    
C9    C11   A    
C11   N1    S    
C20   H2    S    
C23   C34   A    
C38   N6    A    
C15   H12   S    
C2    N4    S    
C26   H18   S    
C1    O4    A    
H46   N8    S    
H27   N12   S    
Cu2   O7    S    
C28   H24   S    
C31   N3    S    
C13   C15   A    
C14   C16   A    
Cu2   N7    S    
C12   C34   S    
C6    C17   A    
C1    O1    A    
C1    C35   S    
C31   H38   S    
C29   H30   S    
C18   C35   A    
C22   H9    S    
Cu1   O5    S    
C32   H43   S    
C7    N9    S    
C29   N12   S    
C19   H34   S    
H3    N9    S    
C3    C5    S    
C19   C34   A    
C30   H32   S    
C31   H39   S    
C3    O8    A    
C32   H42   S    
C27   O2    S    
C25   O10   S    
C36   C38   A    
C28   H25   S    
C25   C26   S    
C33   N2    S    
Cu2   O3    S    
C30   H35   S    
C2    C37   A    
C32   N4    S    
H31   N2    S    
C14   H1    S    
C36   H44   S    
C20   H48   S    
C33   C35   A    
C37   N6    A    
N1    N5    D    
H36   N3    S    
C7    C9    A    
Cu1   O9    S    
C8    C10   A    
C27   C28   S    
C26   H20   S    
