data_mof_unit_45017.cif
_audit_creation_date              2012-12-10T18:42:30-0500
_audit_creation_method            fapswitch 2.2
_symmetry_space_group_name_H-M    P1
_symmetry_Int_Tables_number       1
_space_group_crystal_system       triclinic
_cell_length_a                    8.592023
_cell_length_b                    10.628167
_cell_length_c                    9.882769
_cell_angle_alpha                 89.098869
_cell_angle_beta                  98.491408
_cell_angle_gamma                 89.76349
_cell_volume                      892.447087904

loop_
_atom_site_label
_atom_site_type_symbol
_atom_type_description
_atom_site_fract_x
_atom_site_fract_y
_atom_site_fract_z
_atom_type_partial_charge
C1    C     C_R   0.502581 0.260544 0.501281 1.039201
C2    C     C_R   0.499946 0.739594 0.499077 1.056373
C3    C     C_R   0.201451 0.495967 0.464479 0.968797
C4    C     C_R   0.798762 0.498167 0.535814 0.961761
C5    C     C_2   0.036600 0.488309 0.445962 -0.387390
C6    C     C_2   0.963959 0.494910 0.555406 -0.375560
C7    C     C_R   0.358779 0.066483 0.498296 0.369785
C8    C     C_R   0.644592 0.933822 0.499434 0.378772
C9    C     C_R   0.358391 0.936429 0.498052 0.381326
C10   C     C_R   0.646558 0.063963 0.505911 0.385358
C11   C     C_R   0.500776 0.872105 0.497368 -0.426228
C12   C     C_R   0.503077 0.128333 0.503527 -0.420697
C13   C     C_R   0.575430 0.592445 0.079418 0.270979
C14   C     C_R   0.422054 0.408550 0.920014 0.273488
C15   C     C_R   0.575203 0.591969 0.935670 -0.202160
C16   C     C_R   0.421695 0.409626 0.063949 -0.197089
H1    H     H_    0.975319 0.478809 0.342423 0.172919
H2    H     H_    0.025351 0.502016 0.659443 0.170339
H3    H     H_    0.635236 0.665585 0.887287 0.151864
H4    H     H_    0.358026 0.338321 0.112241 0.143151
N1    N     N_R   0.499960 0.499970 0.857200 -0.107328
N2    N     N_R   0.500040 0.500030 0.142800 -0.103665
O1    O     O_R   0.499990 0.316750 0.614620 -0.598189
O2    O     O_R   0.500010 0.683250 0.385380 -0.599850
O3    O     O_R   0.499990 0.316780 0.385290 -0.633623
O4    O     O_R   0.500010 0.683220 0.614710 -0.630735
O5    O     O_R   0.271750 0.499990 0.587840 -0.589747
O6    O     O_R   0.728250 0.500010 0.412160 -0.581772
O7    O     O_R   0.271750 0.500010 0.358510 -0.656398
O8    O     O_R   0.728250 0.499990 0.641490 -0.654269
Zn1   Zn    Zn3+2 0.500000 0.499980 0.653120 0.958170
Zn2   Zn    Zn3+2 0.500000 0.500020 0.346880 0.959588
O9    O     O_3   0.220406 0.131968 0.505003 -0.577636
C17   C     C_3   0.150954 0.168005 0.371468 -0.236050
H5    H     H_    0.218277 0.244061 0.329271 0.145318
H6    H     H_    0.031302 0.205480 0.376106 0.224899
H7    H     H_    0.138557 0.088058 0.299837 0.137701
O10   O     O_3   0.779306 0.867538 0.482479 -0.586390
C18   C     C_3   0.863193 0.833927 0.611718 -0.226140
H8    H     H_    0.944570 0.755625 0.598030 0.196168
H9    H     H_    0.785944 0.800861 0.686066 0.115291
H10   H     H_    0.937235 0.913122 0.654297 0.207017
O11   O     O_3   0.219268 0.872396 0.501626 -0.578753
C19   C     C_3   0.153956 0.838136 0.367574 -0.263953
H11   H     H_    0.137061 0.735218 0.365555 0.171205
H12   H     H_    0.225553 0.863195 0.285530 0.113832
H13   H     H_    0.036747 0.883560 0.341483 0.224966
O12   O     O_3   0.787193 0.127183 0.506058 -0.574271
C20   C     C_3   0.845023 0.164313 0.640863 -0.292731
H14   H     H_    0.822547 0.094444 0.720927 0.116434
H15   H     H_    0.793966 0.256055 0.662896 0.171916
H16   H     H_    0.974210 0.176623 0.649763 0.228597
N3    N     N_2   0.649814 0.691890 0.157257 -0.245364
H17   H     H_    0.602469 0.779329 0.128558 0.208751
C21   C     C_3   0.819982 0.689887 0.176340 -0.753527
H18   H     H_    0.864574 0.768228 0.117204 0.199942
H19   H     H_    0.867487 0.599719 0.143303 0.219006
H20   H     H_    0.863628 0.701952 0.286410 0.276695
N4    N     N_2   0.336275 0.315142 0.840022 -0.246255
H21   H     H_    0.217246 0.319676 0.844619 0.196935
C22   C     C_3   0.398015 0.188594 0.864995 -0.756278
H22   H     H_    0.331881 0.123921 0.790604 0.261219
H23   H     H_    0.384892 0.155573 0.969920 0.200613
H24   H     H_    0.524278 0.184955 0.852059 0.243667

loop_
_geom_bond_atom_site_label_1
_geom_bond_atom_site_label_2
_ccdc_geom_bond_type
C22   H24   S    
C15   H3    S    
C21   H18   S    
O2    Zn2   S    
C17   H5    S    
O7    Zn2   S    
C17   H7    S    
N1    Zn1   S    
C2    O2    A    
C17   H6    S    
C19   H13   S    
C15   N1    A    
C16   H4    S    
C20   H16   S    
O3    Zn2   S    
C3    O5    A    
O9    C17   S    
N4    H21   S    
C2    O4    A    
C21   H19   S    
N3    H17   S    
C5    H1    S    
C1    O3    A    
C14   N4    S    
C9    C11   A    
C3    O7    A    
O8    Zn1   S    
C1    C12   S    
N2    Zn2   S    
C8    O10   S    
O11   C19   S    
C8    C11   A    
C5    C6    D    
C2    C11   S    
C10   C12   A    
C14   N1    A    
C4    C6    S    
O12   C20   S    
C4    O6    A    
C19   H12   S    
C13   N2    A    
C1    O1    A    
C18   H10   S    
C13   N3    S    
N3    C21   S    
C13   C15   A    
C10   O12   S    
C22   H22   S    
C6    H2    S    
C14   C16   A    
C7    C12   A    
N4    C22   S    
C9    O11   S    
C7    O9    S    
O5    Zn1   S    
O6    Zn2   S    
O10   C18   S    
C19   H11   S    
C18   H9    S    
C8    C10   A    
C20   H14   S    
C21   H20   S    
C18   H8    S    
C7    C9    A    
C16   N2    A    
C3    C5    S    
O4    Zn1   S    
C22   H23   S    
C4    O8    A    
C20   H15   S    
O1    Zn1   S    
