data_mof_unit_51255.cif
_audit_creation_date              2012-12-10T20:34:52-0500
_audit_creation_method            fapswitch 2.2
_symmetry_space_group_name_H-M    P1
_symmetry_Int_Tables_number       1
_space_group_crystal_system       triclinic
_cell_length_a                    10.647411
_cell_length_b                    10.684987
_cell_length_c                    9.855522
_cell_angle_alpha                 88.967399
_cell_angle_beta                  90.034774
_cell_angle_gamma                 90.837041
_cell_volume                      1120.93580664

loop_
_atom_site_label
_atom_site_type_symbol
_atom_type_description
_atom_site_fract_x
_atom_site_fract_y
_atom_site_fract_z
_atom_type_partial_charge
C1    C     C_R   0.508156 0.260668 0.501221 0.937338
C2    C     C_3   0.878759 0.498287 0.499752 0.113541
C3    C     C_3   0.929312 0.616008 0.573042 -0.431124
C4    C     C_3   0.928534 0.498401 0.351581 -0.371128
C5    C     C_R   0.503524 0.061433 0.620071 0.090782
C6    C     C_R   0.535359 0.130958 0.505137 -0.223558
C7    C     C_R   0.596798 0.073316 0.396950 0.325226
C8    C     C_R   0.588450 0.942061 0.387130 0.070790
C9    C     C_R   0.530252 0.873366 0.497061 -0.186005
C10   C     C_R   0.502844 0.934627 0.616783 0.090737
C11   C     C_3   0.390927 0.923978 0.708535 -0.419485
C12   C     C_R   0.257638 0.498706 0.499808 0.893810
C13   C     C_3   0.391654 0.065905 0.710992 -0.462068
C14   C     C_R   0.424336 0.418290 0.072601 0.280428
C15   C     C_R   0.584826 0.569841 0.070579 -0.133974
C16   C     C_R   0.584291 0.570656 0.926546 -0.127458
C17   C     C_R   0.424704 0.417945 0.930026 0.227318
C18   C     C_3   0.285151 0.409462 0.923372 -0.529793
C19   C     C_3   0.284549 0.411127 0.077218 -0.533411
C20   C     C_R   0.507293 0.740542 0.498288 0.949644
C21   C     C_R   0.742385 0.498729 0.499960 0.841396
C22   C     C_3   0.070637 0.381912 0.578035 -0.500354
C23   C     C_3   0.926231 0.379499 0.574917 -0.381719
C24   C     C_3   0.073667 0.619271 0.568878 0.232048
C25   C     C_3   0.070765 0.494206 0.351424 -0.371126
C26   C     C_3   0.121210 0.499251 0.499211 0.098425
H1    H     H_    0.103013 0.383183 0.685335 0.182932
H2    H     H_    0.898191 0.583827 0.295339 0.186598
H3    H     H_    0.890592 0.702338 0.526126 0.198353
H4    H     H_    0.306901 0.883648 0.657832 0.250250
H5    H     H_    0.414517 0.880109 0.808314 0.202841
H6    H     H_    0.308593 0.108191 0.660424 0.200589
H7    H     H_    0.415434 0.104062 0.812174 0.211043
H8    H     H_    0.652387 0.626919 0.123687 0.148829
H9    H     H_    0.106828 0.295062 0.532143 0.187876
H10   H     H_    0.650451 0.629848 0.871033 0.146961
H11   H     H_    0.242466 0.494041 0.876154 0.218171
H12   H     H_    0.252057 0.318800 0.881654 0.201416
H13   H     H_    0.242976 0.497560 0.117504 0.215358
H14   H     H_    0.249710 0.321991 0.124469 0.208625
H15   H     H_    0.892038 0.294030 0.522540 0.204768
H16   H     H_    0.889695 0.374824 0.680735 0.188247
H17   H     H_    0.109492 0.622129 0.674964 0.114310
H18   H     H_    0.897918 0.613963 0.680837 0.155421
H19   H     H_    0.108046 0.574142 0.288953 0.219552
H20   H     H_    0.100856 0.406143 0.303166 0.174662
H21   H     H_    0.890704 0.415802 0.296568 0.219342
N1    N     N_R   0.499150 0.499140 0.142800 -0.103739
N2    N     N_R   0.499150 0.499180 0.857150 -0.110400
O1    O     O_R   0.500020 0.316790 0.614690 -0.623078
O2    O     O_R   0.500000 0.316760 0.385350 -0.568252
O3    O     O_R   0.314800 0.500000 0.614670 -0.636036
O4    O     O_R   0.314790 0.499960 0.385330 -0.620447
O5    O     O_R   0.500000 0.683240 0.614650 -0.616821
O6    O     O_R   0.499980 0.683210 0.385310 -0.615834
O7    O     O_R   0.685210 0.500040 0.614670 -0.633788
O8    O     O_R   0.685200 0.500000 0.385330 -0.616033
Zn1   Zn    Zn3+2 0.500010 0.500020 0.653130 0.946696
Zn2   Zn    Zn3+2 0.499990 0.499980 0.346870 0.980590
Cl1   Cl    Cl    0.129388 0.760029 0.484686 -0.699609
Cl2   Cl    Cl    0.687321 0.164984 0.279350 -0.661123
C27   C     C_3   0.639153 0.881110 0.260308 -0.344911
C28   C     C_3   0.762876 0.816753 0.289806 -0.829253
H22   H     H_    0.746262 0.736690 0.360087 0.243129
H23   H     H_    0.803813 0.782235 0.194191 0.234450
H24   H     H_    0.831003 0.883180 0.336117 0.296631
H25   H     H_    0.569441 0.816562 0.215160 0.212923
H26   H     H_    0.656060 0.949727 0.176630 0.248480

loop_
_geom_bond_atom_site_label_1
_geom_bond_atom_site_label_2
_ccdc_geom_bond_type
C8    C9    A    
C21   O7    A    
C2    C4    S    
C28   H23   S    
C15   H8    S    
C21   O8    A    
C6    C7    A    
O6    Zn2   S    
C11   C13   S    
C9    C10   A    
C12   O3    A    
C13   H6    S    
C5    C13   S    
C12   O4    A    
C23   H15   S    
C27   H26   S    
C24   Cl1   S    
C10   C11   S    
C2    C21   S    
C17   C18   S    
C18   H12   S    
C28   H24   S    
C11   H5    S    
C5    C10   A    
C16   H10   S    
C13   H7    S    
C22   H9    S    
C1    O2    A    
C14   C17   A    
C3    C24   S    
C27   C28   S    
C23   H16   S    
O3    Zn1   S    
C15   N1    A    
C20   O6    A    
C27   H25   S    
C14   C19   S    
C4    H2    S    
C18   H11   S    
C24   C26   S    
C4    C25   S    
C2    C3    S    
C22   H1    S    
O5    Zn1   S    
C5    C6    A    
C3    H18   S    
O8    Zn2   S    
O2    Zn2   S    
C19   H14   S    
C19   H13   S    
C22   C26   S    
C1    C6    S    
O1    Zn1   S    
C25   H19   S    
C7    C8    A    
C16   N2    A    
C11   H4    S    
N1    Zn2   S    
C20   O5    A    
C18   C19   S    
C1    O1    A    
C17   N2    A    
C2    C23   S    
C3    H3    S    
C24   H17   S    
C22   C23   S    
C7    Cl2   S    
C14   N1    A    
C9    C20   S    
C12   C26   S    
O4    Zn2   S    
C25   C26   S    
C25   H20   S    
N2    Zn1   S    
C15   C16   A    
C8    C27   S    
O7    Zn1   S    
C28   H22   S    
C4    H21   S    
