data_mof_unit_5167.cif
_audit_creation_date              2012-12-10T17:08:44-0500
_audit_creation_method            fapswitch 2.2
_symmetry_space_group_name_H-M    P1
_symmetry_Int_Tables_number       1
_space_group_crystal_system       triclinic
_cell_length_a                    27.813957
_cell_length_b                    11.006109
_cell_length_c                    9.869043
_cell_angle_alpha                 111.062841
_cell_angle_beta                  96.804155
_cell_angle_gamma                 92.563044
_cell_volume                      2786.9851803

loop_
_atom_site_label
_atom_site_type_symbol
_atom_type_description
_atom_site_fract_x
_atom_site_fract_y
_atom_site_fract_z
_atom_type_partial_charge
C1    C     C_R   0.494040 0.253777 0.441953 0.799769
C2    C     C_R   0.501504 0.745814 0.558230 0.846723
C3    C     C_R   0.100215 0.468614 0.460732 -0.134023
C4    C     C_R   0.897371 0.468429 0.466732 -0.134548
C5    C     C_R   0.122311 0.350490 0.437421 -0.046690
C6    C     C_R   0.877891 0.588740 0.536460 -0.052549
C7    C     C_R   0.092520 0.232288 0.396386 0.190235
C8    C     C_R   0.909990 0.702869 0.611635 0.196389
C9    C     C_R   0.129262 0.586095 0.489289 -0.102764
C10   C     C_R   0.866554 0.350393 0.407164 -0.105449
C11   C     C_R   0.354567 0.491477 0.503738 -0.196357
C12   C     C_R   0.645446 0.486466 0.488620 -0.163581
C13   C     C_R   0.967858 0.347472 0.392314 -0.057152
C14   C     C_R   0.027484 0.587761 0.490644 -0.055662
C15   C     C_R   0.978075 0.586058 0.513468 0.046925
C16   C     C_R   0.019510 0.348692 0.410372 0.051974
C17   C     C_R   0.947763 0.466959 0.457264 0.050352
C18   C     C_R   0.049039 0.468486 0.453450 0.050022
C19   C     C_R   0.935764 0.232193 0.312805 0.174808
C20   C     C_R   0.056070 0.704190 0.506237 0.179354
C21   C     C_R   0.885768 0.232038 0.328250 0.249892
C22   C     C_R   0.107119 0.704145 0.513207 0.254493
C23   C     C_R   0.407690 0.500804 0.502533 0.784663
C24   C     C_R   0.592436 0.495763 0.496480 0.860621
C25   C     C_R   0.042547 0.234223 0.392136 -0.255543
C26   C     C_R   0.959238 0.698623 0.601959 -0.246976
C27   C     C_2   0.487627 0.113300 0.414389 -0.059779
C28   C     C_2   0.500318 0.885418 0.585284 -0.078077
C29   C     C_2   0.473457 0.069585 0.518121 0.237102
C30   C     C_2   0.471532 0.928929 0.493060 0.208809
C31   C     C_2   0.504547 0.515951 0.083693 0.181300
C32   C     C_2   0.490275 0.515385 0.933312 0.201298
C33   C     C_R   0.173434 0.356336 0.460461 0.587426
C34   C     C_R   0.827160 0.589465 0.528970 0.581051
C35   C     C_R   0.179704 0.579865 0.485199 0.624834
C36   C     C_R   0.816594 0.356726 0.421075 0.632372
C37   C     C_R   0.282520 0.560770 0.619310 0.213230
C38   C     C_R   0.713182 0.430867 0.345829 0.217282
C39   C     C_R   0.332709 0.581113 0.617885 0.175240
C40   C     C_R   0.663010 0.427928 0.351581 0.123599
C41   C     C_R   0.324905 0.391696 0.385292 0.210921
C42   C     C_R   0.679726 0.535745 0.619039 0.185358
C43   C     C_R   0.274191 0.388720 0.378915 -0.162131
C44   C     C_R   0.729347 0.529546 0.610844 -0.192327
C45   C     C_R   0.252989 0.471579 0.494854 0.183525
C46   C     C_R   0.746363 0.478585 0.476115 0.205977
Cu1   Cu    Cu3+1 0.508480 0.521810 0.644910 1.010890
Cu2   Cu    Cu3+1 0.491520 0.478190 0.355090 0.991038
H1    H     H_    0.557378 0.566584 0.905745 0.215852
H2    H     H_    0.453132 0.372825 0.067817 0.210875
H3    H     H_    0.250360 0.319773 0.285855 0.176984
H4    H     H_    0.755177 0.565737 0.710977 0.173908
H5    H     H_    0.022196 0.144459 0.377926 0.191689
H6    H     H_    0.983188 0.783140 0.670868 0.194467
N1    N     N_R   0.200833 0.469305 0.481627 -0.451017
N2    N     N_R   0.797914 0.474776 0.473815 -0.453684
N3    N     N_2   0.478780 0.445430 0.137360 -0.287953
N4    N     N_2   0.521220 0.554570 0.862640 -0.278202
O1    O     O_R   0.504520 0.332330 0.577400 -0.575845
O2    O     O_R   0.495480 0.667670 0.422600 -0.561317
O3    O     O_R   0.490210 0.295500 0.332650 -0.558514
O4    O     O_R   0.509790 0.704500 0.667350 -0.534019
O5    O     O_R   0.437420 0.518430 0.622370 -0.556377
O6    O     O_R   0.562580 0.481570 0.377630 -0.565776
O7    O     O_R   0.423110 0.481600 0.377610 -0.550399
O8    O     O_R   0.576890 0.518400 0.622390 -0.545156
O9    O     O_2   0.195952 0.252146 0.466342 -0.492703
O10   O     O_2   0.806629 0.703247 0.572345 -0.488896
O11   O     O_2   0.786423 0.246708 0.381603 -0.501189
O12   O     O_2   0.207729 0.682153 0.482864 -0.506192
N5    N     N_2   0.347006 0.295300 0.275885 -0.393456
H7    H     H_    0.375304 0.255070 0.316980 0.260678
C47   C     C_3   0.317689 0.204541 0.144106 -0.620726
H8    H     H_    0.341858 0.146467 0.068327 0.226405
H9    H     H_    0.295873 0.258512 0.086755 0.238867
H10   H     H_    0.293596 0.136138 0.171595 0.236910
N6    N     N_2   0.664995 0.593389 0.759819 -0.397651
H11   H     H_    0.684500 0.681783 0.822620 0.273682
C48   C     C_3   0.663402 0.506301 0.839977 -0.576460
H12   H     H_    0.649569 0.556356 0.945243 0.230684
H13   H     H_    0.700396 0.478319 0.864503 0.233502
H14   H     H_    0.638692 0.416679 0.775526 0.242265
I1    I     I_    0.551512 0.011089 0.764662 -0.354298
I2    I     I_    0.504231 0.987429 0.207258 -0.324748
I3    I     I_    0.412840 0.480352 0.873642 -0.331220
I4    I     I_    0.563509 0.660073 0.209851 -0.321862
I5    I     I_    0.116228 0.041717 0.309827 -0.344752
I6    I     I_    0.891130 0.885581 0.756136 -0.343657
N7    N     N_2   0.631477 0.357955 0.218682 -0.414653
H15   H     H_    0.607590 0.410773 0.180370 0.291363
C49   C     C_3   0.612170 0.229006 0.204130 -0.499318
H16   H     H_    0.589233 0.235170 0.290607 0.209780
H17   H     H_    0.642370 0.168175 0.212557 0.249312
H18   H     H_    0.589586 0.180953 0.095387 0.252103
N8    N     N_2   0.359821 0.694142 0.728140 -0.391710
H19   H     H_    0.396866 0.694900 0.749722 0.293406
C50   C     C_3   0.344778 0.820488 0.734994 -0.633986
H20   H     H_    0.373564 0.873985 0.704592 0.192818
H21   H     H_    0.339124 0.878627 0.848878 0.258806
H22   H     H_    0.310755 0.811917 0.659292 0.254903
I7    I     I_    0.737892 0.368725 0.136628 -0.293435
I8    I     I_    0.251677 0.657523 0.814363 -0.312151
N9    N     N_2   0.853838 0.116210 0.249979 -0.375366
H23   H     H_    0.856950 0.069329 0.140731 0.292062
C51   C     C_3   0.845008 0.030128 0.328440 -0.508835
H24   H     H_    0.861229 0.936701 0.279613 0.191316
H25   H     H_    0.805264 0.006243 0.318517 0.270330
H26   H     H_    0.860072 0.075930 0.446905 0.224603
N10   N     N_2   0.136277 0.823098 0.542821 -0.364825
H27   H     H_    0.123587 0.882977 0.490179 0.304781
C52   C     C_3   0.159563 0.890299 0.692999 -0.537310
H28   H     H_    0.143693 0.984124 0.743313 0.200764
H29   H     H_    0.198898 0.912737 0.693622 0.264035
H30   H     H_    0.155593 0.830123 0.761323 0.225920
N11   N     N_2   0.950884 0.127888 0.194475 -0.424787
H31   H     H_    0.977934 0.152325 0.143225 0.276382
C53   C     C_3   0.951053 0.998540 0.201859 -0.665814
H32   H     H_    0.986547 0.959288 0.178593 0.236798
H33   H     H_    0.922447 0.930983 0.116959 0.256729
H34   H     H_    0.945412 0.000683 0.312266 0.227308
N12   N     N_2   0.033430 0.812009 0.485651 -0.433012
H35   H     H_    0.000291 0.790355 0.418896 0.268328
C54   C     C_3   0.039502 0.937677 0.606384 -0.689871
H36   H     H_    0.003409 0.973743 0.627474 0.231592
H37   H     H_    0.060463 0.010445 0.577096 0.252118
H38   H     H_    0.058167 0.930846 0.708953 0.240168
N13   N     N_2   0.438646 0.843311 0.369184 -0.410733
H39   H     H_    0.453932 0.775512 0.287927 0.312377
C55   C     C_3   0.393409 0.796001 0.399469 -0.597338
H40   H     H_    0.371939 0.727632 0.295654 0.253314
H41   H     H_    0.371554 0.878529 0.447266 0.226767
H42   H     H_    0.400410 0.743442 0.475639 0.198985
N14   N     N_2   0.460022 0.158914 0.651779 -0.408992
H43   H     H_    0.489154 0.211099 0.728683 0.288711
C56   C     C_3   0.422454 0.112553 0.715831 -0.645461
H44   H     H_    0.414070 0.193414 0.813143 0.240161
H45   H     H_    0.435072 0.034418 0.753614 0.229998
H46   H     H_    0.388666 0.077708 0.635815 0.236990

loop_
_geom_bond_atom_site_label_1
_geom_bond_atom_site_label_2
_ccdc_geom_bond_type
C33   N1    A    
C56   H46   S    
C29   N14   S    
C34   N2    A    
C27   C29   D    
C8    C26   A    
C47   H8    S    
C14   C18   A    
N8    H19   S    
C32   N4    D    
Cu1   O4    S    
C50   H20   S    
Cu2   N3    S    
N6    H11   S    
C51   H25   S    
C36   N2    A    
C27   I2    S    
C19   C21   A    
C25   H5    S    
C38   I7    S    
C53   H33   S    
Cu1   O5    S    
C37   I8    S    
C2    O2    A    
C9    C22   A    
Cu2   O6    S    
N11   H31   S    
N5    C47   S    
C3    C18   A    
C56   H45   S    
C11   C23   S    
C12   C42   A    
N9    C51   S    
C7    I5    S    
C31   N3    D    
C31   C32   S    
C35   O12   S    
N11   C53   S    
C5    C33   A    
C40   N7    S    
N7    C49   S    
C56   H44   S    
C41   C43   A    
Cu1   O8    S    
C24   O8    A    
C41   N5    S    
C55   H42   S    
C1    C27   S    
C44   H4    S    
C23   O5    A    
C24   O6    A    
C31   I4    S    
C28   I1    S    
C47   H9    S    
C42   C44   A    
C26   H6    S    
C50   H21   S    
C44   C46   A    
Cu2   O2    S    
N6    C48   S    
C10   C21   A    
C51   H26   S    
C38   C46   A    
C13   C19   A    
C35   N1    A    
C14   C20   A    
C54   H36   S    
C4    C6    A    
C53   H34   S    
C34   O10   S    
C49   H16   S    
C5    C7    A    
C15   C26   A    
C6    C8    A    
H1    N4    S    
C6    C34   A    
C8    I6    S    
C12   C40   A    
N13   C55   S    
C29   C30   S    
C3    C9    A    
C49   H17   S    
Cu1   Cu2   S    
C19   N11   S    
C22   N10   S    
C20   N12   S    
C52   H29   S    
C11   C39   A    
C43   C45   A    
C39   N8    S    
N12   H35   S    
C4    C17   A    
C1    O1    A    
C20   C22   A    
N14   H43   S    
Cu2   O7    S    
C47   H10   S    
C4    C10   A    
N13   H39   S    
C50   H22   S    
C36   O11   S    
C33   O9    S    
C9    C35   A    
C55   H40   S    
C16   C25   A    
C15   C17   A    
C30   N13   S    
C52   H28   S    
H2    N3    S    
C3    C5    A    
C1    O3    A    
C48   H14   S    
C54   H38   S    
N8    C50   S    
C51   H24   S    
C12   C24   S    
C48   H13   S    
C7    C25   A    
C13   C17   A    
C23   O7    A    
N10   C52   S    
N5    H7    S    
C37   C39   A    
N10   H27   S    
Cu1   N4    S    
C38   C40   A    
C43   H3    S    
Cu2   O3    S    
C32   I3    S    
C28   C30   D    
C10   C36   A    
C11   C41   A    
C52   H30   S    
N12   C54   S    
C54   H37   S    
Cu1   O1    S    
C48   H12   S    
C21   N9    S    
C45   N1    S    
C42   N6    S    
C16   C18   A    
C13   C16   A    
C46   N2    S    
N9    H23   S    
N14   C56   S    
C14   C15   A    
C2    C28   S    
C55   H41   S    
N7    H15   S    
C53   H32   S    
C37   C45   A    
C2    O4    A    
C49   H18   S    
