data_mof_unit_30207.cif
_audit_creation_date              2012-12-10T17:05:21-0500
_audit_creation_method            fapswitch 2.2
_symmetry_space_group_name_H-M    P1
_symmetry_Int_Tables_number       1
_space_group_crystal_system       triclinic
_cell_length_a                    10.046893
_cell_length_b                    10.778072
_cell_length_c                    15.250919
_cell_angle_alpha                 90.251074
_cell_angle_beta                  68.20978
_cell_angle_gamma                 89.896857
_cell_volume                      1533.43957117

loop_
_atom_site_label
_atom_site_type_symbol
_atom_type_description
_atom_site_fract_x
_atom_site_fract_y
_atom_site_fract_z
_atom_type_partial_charge
C1    C     C_R   0.502905 0.736924 0.495529 0.948183
C2    C     C_R   0.439259 0.400351 0.901455 0.086241
C3    C     C_R   0.301517 0.351750 0.952092 0.175967
C4    C     C_R   0.548445 0.392899 0.938782 0.025423
C5    C     C_R   0.504885 0.377969 0.037438 0.040273
C6    C     C_R   0.366627 0.329442 0.088273 -0.214117
C7    C     C_R   0.268776 0.310841 0.044323 -0.237319
C8    C     C_R   0.698349 0.400071 0.882840 0.082074
C9    C     C_R   0.793518 0.428212 0.927781 -0.271478
C10   C     C_R   0.744776 0.441951 0.025555 0.142352
C11   C     C_R   0.600322 0.414584 0.081393 0.091291
C12   C     C_R   0.410692 0.496005 0.676533 0.860493
C13   C     C_R   0.839377 0.481409 0.068377 -0.199618
C14   C     C_R   0.790223 0.499109 0.165808 -0.181585
C15   C     C_R   0.552742 0.434911 0.178901 -0.247922
C16   C     C_2   0.612042 0.066611 0.462627 -0.058506
C17   C     C_2   0.495869 0.133110 0.516698 -0.103283
C18   C     C_2   0.620910 0.937129 0.480039 0.000302
C19   C     C_2   0.515604 0.865985 0.474034 -0.424231
C20   C     C_2   0.095471 0.415300 0.459714 -0.142418
C21   C     C_2   0.939475 0.405253 0.474151 -0.153750
C22   C     C_R   0.499269 0.263371 0.501905 0.909781
C23   C     C_R   0.589604 0.496983 0.323401 0.865621
C24   C     C_R   0.359874 0.462203 0.776276 -0.061259
C25   C     C_R   0.645799 0.478423 0.221039 -0.057964
C26   C     C_R   0.197786 0.350005 0.910642 -0.231287
C27   C     C_R   0.228914 0.401566 0.821232 -0.203673
C28   C     C_R   0.458815 0.468178 0.820373 -0.247813
H1    H     H_    0.164205 0.272658 0.084544 0.158386
H2    H     H_    0.950501 0.501151 0.026363 0.150067
H3    H     H_    0.433121 0.906284 0.452380 0.158393
H4    H     H_    0.168169 0.347844 0.413012 0.153415
H5    H     H_    0.900518 0.317243 0.458811 0.177288
H6    H     H_    0.896960 0.585116 0.496387 0.195067
H7    H     H_    0.441542 0.421853 0.222937 0.155746
H8    H     H_    0.864193 0.531057 0.197606 0.161411
H9    H     H_    0.906565 0.439468 0.886369 0.144795
H10   H     H_    0.094108 0.307719 0.946686 0.143459
H11   H     H_    0.152557 0.392449 0.786847 0.149762
H12   H     H_    0.550961 0.527824 0.791313 0.158478
H13   H     H_    0.333445 0.302078 0.161295 0.146652
N1    N     N_2   0.148330 0.498670 0.499030 -0.137209
N2    N     N_2   0.852680 0.498640 0.499000 -0.191071
O1    O     O_R   0.386950 0.680940 0.500010 -0.610355
O2    O     O_R   0.613110 0.680900 0.499990 -0.598541
O3    O     O_R   0.322330 0.500030 0.632270 -0.614607
O4    O     O_R   0.548480 0.499990 0.632240 -0.609455
O5    O     O_R   0.386890 0.319100 0.500010 -0.628590
O6    O     O_R   0.613050 0.319060 0.499990 -0.620607
O7    O     O_R   0.451520 0.500010 0.367760 -0.613851
O8    O     O_R   0.677670 0.499970 0.367730 -0.602894
Zn1   Zn    Zn3+2 0.349000 0.500030 0.500020 0.945161
Zn2   Zn    Zn3+2 0.651000 0.499970 0.499980 0.947448
C29   C     C_1   0.725872 0.117118 0.380477 0.167623
N3    N     N_1   0.816339 0.157333 0.315142 -0.217118
C30   C     C_3   0.379683 0.088067 0.607952 -0.430939
C31   C     C_3   0.431989 0.094492 0.690350 -0.340840
C32   C     C_3   0.315164 0.054809 0.782793 -0.861064
H14   H     H_    0.218537 0.114290 0.798800 0.264804
H15   H     H_    0.285570 0.956444 0.778091 0.262453
H16   H     H_    0.355073 0.064269 0.841335 0.252139
H17   H     H_    0.526482 0.032777 0.675801 0.234825
H18   H     H_    0.464093 0.191225 0.698462 0.230158
H19   H     H_    0.283376 0.148611 0.625239 0.208719
H20   H     H_    0.340983 0.993688 0.602082 0.219108
C33   C     C_1   0.738133 0.895106 0.506431 0.221796
N4    N     N_1   0.831761 0.862017 0.527511 -0.227096
C34   C     C_1   0.056982 0.554630 0.582247 0.320448
N5    N     N_1   0.981800 0.601278 0.651490 -0.264576
C35   C     C_3   0.764125 0.357129 0.780048 -0.394326
C36   C     C_3   0.731829 0.219852 0.770239 -0.347973
C37   C     C_3   0.797825 0.176660 0.667557 -0.878981
H21   H     H_    0.748195 0.227251 0.624091 0.275654
H22   H     H_    0.915377 0.192806 0.638729 0.263162
H23   H     H_    0.778409 0.075899 0.663276 0.255022
H24   H     H_    0.776385 0.162697 0.813474 0.229088
H25   H     H_    0.614278 0.204633 0.796275 0.228666
H26   H     H_    0.730911 0.413822 0.731681 0.221348
H27   H     H_    0.882722 0.367230 0.753247 0.197770

loop_
_geom_bond_atom_site_label_1
_geom_bond_atom_site_label_2
_ccdc_geom_bond_type
C8    C9    A    
C22   O5    A    
C7    H1    S    
C35   H26   S    
C24   C27   A    
C4    C8    A    
C19   H3    S    
C31   H17   S    
C26   C27   A    
C5    C11   A    
C3    C7    A    
C12   O4    A    
C14   H8    S    
C36   H24   S    
C15   C25   A    
C21   H5    S    
C28   H12   S    
C32   H15   S    
C30   H20   S    
O3    Zn1   S    
C30   C31   S    
C18   C19   D    
C34   N5    T    
C11   C15   A    
N2    Zn2   S    
C27   H11   S    
C16   C17   D    
C6    H13   S    
O7    Zn1   S    
C30   H19   S    
C35   C36   S    
C9    C10   A    
O4    Zn2   S    
O1    Zn1   S    
C32   H16   S    
C33   N4    T    
O2    Zn2   S    
C21   N2    D    
C13   C14   A    
N1    C34   S    
C37   H23   S    
C15   H7    S    
C31   H18   S    
C1    C19   S    
C13   H2    S    
C12   O3    A    
C37   H21   S    
C23   O7    A    
C32   H14   S    
O8    Zn2   S    
C2    C4    A    
C1    O1    A    
C23   O8    A    
C9    H9    S    
C17   C30   S    
C22   O6    A    
C37   H22   S    
C36   H25   S    
C20   H4    S    
C29   N3    T    
C35   H27   S    
C3    C26   A    
C26   H10   S    
H6    N2    S    
C24   C28   A    
C4    C5    A    
C10   C13   A    
C20   N1    D    
C6    C7    A    
C18   C33   S    
C12   C24   S    
C8    C35   S    
C17   C22   S    
C2    C3    A    
C36   C37   S    
C1    O2    A    
C31   C32   S    
C5    C6    A    
O6    Zn2   S    
C23   C25   S    
C14   C25   A    
C16   C29   S    
C10   C11   A    
O5    Zn1   S    
C20   C21   S    
C16   C18   S    
C2    C28   A    
N1    Zn1   S    
