data_mof_unit_35853.cif
_audit_creation_date              2012-12-10T17:47:04-0500
_audit_creation_method            fapswitch 2.2
_symmetry_space_group_name_H-M    P1
_symmetry_Int_Tables_number       1
_space_group_crystal_system       triclinic
_cell_length_a                    9.93099
_cell_length_b                    10.691017
_cell_length_c                    13.637704
_cell_angle_alpha                 89.884524
_cell_angle_beta                  85.077184
_cell_angle_gamma                 87.679307
_cell_volume                      1441.42162378

loop_
_atom_site_label
_atom_site_type_symbol
_atom_type_description
_atom_site_fract_x
_atom_site_fract_y
_atom_site_fract_z
_atom_type_partial_charge
C1    C     C_R   0.496817 0.740802 0.496496 0.878445
C2    C     C_R   0.611998 0.933926 0.472944 -0.200054
C3    C     C_R   0.618141 0.060468 0.483945 -0.170479
C4    C     C_R   0.477736 0.502666 0.685191 0.930268
C5    C     C_R   0.504756 0.128731 0.524699 -0.109272
C6    C     C_R   0.864164 0.455855 0.678068 0.146560
C7    C     C_R   0.915202 0.498497 0.765177 0.016885
C8    C     C_R   0.024381 0.579846 0.758025 0.283846
C9    C     C_R   0.099965 0.592080 0.666103 0.422129
C10   C     C_R   0.058541 0.529660 0.583834 0.041406
C11   C     C_R   0.921214 0.499669 0.586858 -0.005797
C12   C     C_1   0.463547 0.517266 0.787699 -0.116525
C13   C     C_R   0.938877 0.491743 0.414789 -0.092031
C14   C     C_R   0.082335 0.483613 0.415607 -0.102378
C15   C     C_R   0.501503 0.260899 0.508584 0.879064
C16   C     C_R   0.521698 0.497432 0.314857 0.882485
C17   C     C_1   0.531038 0.480631 0.212642 -0.145561
C18   C     C_2   0.513287 0.451829 0.025381 -0.178217
C19   C     C_2   0.451724 0.543374 0.978014 0.490016
C20   C     C_1   0.454002 0.531159 0.874348 -0.076547
C21   C     C_1   0.527506 0.464948 0.126845 0.114013
C22   C     C_R   0.237137 0.903859 0.532105 -0.106239
C23   C     C_R   0.129130 0.970920 0.582066 -0.243841
C24   C     C_R   0.151815 0.080668 0.631246 -0.106775
C25   C     C_R   0.280068 0.130122 0.623385 0.469288
C26   C     C_R   0.386458 0.069406 0.561537 -0.042893
C27   C     C_R   0.370505 0.946985 0.529475 0.050030
C28   C     C_R   0.489522 0.875743 0.495128 -0.099988
H1    H     H_    0.144201 0.468137 0.347242 0.157844
H2    H     H_    0.989680 0.645738 0.890906 0.372504
H3    H     H_    0.215081 0.718151 0.714931 0.371402
H4    H     H_    0.396405 0.235912 0.690546 0.319520
H5    H     H_    0.555677 0.367878 0.987639 0.147975
H6    H     H_    0.702846 0.882018 0.444208 0.171120
H7    H     H_    0.211682 0.822271 0.492523 0.203058
H8    H     H_    0.028157 0.935728 0.584811 0.178570
H9    H     H_    0.069479 0.127858 0.675515 0.194057
H10   H     H_    0.710328 0.105225 0.457529 0.179043
H11   H     H_    0.894263 0.484453 0.345585 0.156474
H12   H     H_    0.357605 0.705507 0.977664 0.351795
I1    I     I_    0.780399 0.274834 0.681003 -0.339145
I2    I     I_    0.844417 0.428335 0.905841 -0.338647
N1    N     N_R   0.857120 0.501200 0.500900 -0.085366
N2    N     N_R   0.142720 0.501280 0.500940 -0.078837
O1    O     O_R   0.385310 0.683220 0.500000 -0.587145
O2    O     O_3   0.065851 0.639657 0.839226 -0.755528
O3    O     O_3   0.200003 0.677445 0.651901 -0.737177
O4    O     O_3   0.298922 0.233246 0.680504 -0.744176
O5    O     O_R   0.614640 0.683250 0.500010 -0.618339
O6    O     O_R   0.368830 0.499960 0.640340 -0.542482
O7    O     O_R   0.598160 0.499980 0.640350 -0.604839
O8    O     O_R   0.385360 0.316750 0.499990 -0.590119
O9    O     O_R   0.614690 0.316780 0.500000 -0.601313
O10   O     O_R   0.401840 0.500020 0.359650 -0.619978
O11   O     O_R   0.631170 0.500040 0.359660 -0.622110
O12   O     O_3   0.396263 0.649073 0.026834 -0.738599
Zn1   Zn    Zn3+2 0.346870 0.499980 0.499990 1.014563
Zn2   Zn    Zn3+2 0.653130 0.500020 0.500010 0.978038

loop_
_geom_bond_atom_site_label_1
_geom_bond_atom_site_label_2
_ccdc_geom_bond_type
C19   O12   S    
C1    C28   S    
C23   C24   A    
C11   N1    A    
C6    C7    A    
C4    C12   S    
C18   C21   S    
C9    C10   A    
C19   C20   S    
N2    Zn1   S    
O9    Zn2   S    
O1    Zn1   S    
C12   C20   T    
C2    C3    A    
C25   C26   A    
C16   O11   A    
C7    C8    A    
O7    Zn2   S    
H3    O3    S    
C13   C14   A    
C22   H7    S    
H4    O4    S    
C25   O4    S    
C1    O1    A    
C26   C27   A    
O11   Zn2   S    
C15   O9    A    
C24   H9    S    
C16   O10   A    
C22   C27   A    
C6    C11   A    
C18   H5    S    
C8    O2    S    
C13   H11   S    
C9    O3    S    
C5    C15   S    
C10   C11   A    
C4    O7    A    
C10   N2    A    
C5    C26   A    
C23   H8    S    
C13   N1    A    
C24   C25   A    
C14   N2    A    
C18   C19   D    
O8    Zn1   S    
C7    I2    S    
C6    I1    S    
C27   C28   A    
C22   C23   A    
C16   C17   S    
C2    C28   A    
C14   H1    S    
N1    Zn2   S    
C3    C5    A    
C2    H6    S    
C15   O8    A    
O6    Zn1   S    
C1    O5    A    
H2    O2    S    
C17   C21   T    
O5    Zn2   S    
C3    H10   S    
C4    O6    A    
C8    C9    A    
H12   O12   S    
O10   Zn1   S    
