data_mof_unit_7909.cif
_audit_creation_date              2012-12-10T18:59:11-0500
_audit_creation_method            fapswitch 2.2
_symmetry_space_group_name_H-M    P1
_symmetry_Int_Tables_number       1
_space_group_crystal_system       triclinic
_cell_length_a                    9.912613
_cell_length_b                    10.65885
_cell_length_c                    16.826229
_cell_angle_alpha                 88.619071
_cell_angle_beta                  94.922395
_cell_angle_gamma                 91.041589
_cell_volume                      1770.50687108

loop_
_atom_site_label
_atom_site_type_symbol
_atom_type_description
_atom_site_fract_x
_atom_site_fract_y
_atom_site_fract_z
_atom_type_partial_charge
C1    C     C_R   0.499189 0.260185 0.500595 0.856194
C2    C     C_R   0.500811 0.739815 0.499405 0.856206
C3    C     C_R   0.387344 0.935069 0.464779 -0.180113
C4    C     C_R   0.612655 0.064931 0.535222 -0.180060
C5    C     C_R   0.501523 0.872358 0.498791 -0.007765
C6    C     C_R   0.498476 0.127642 0.501210 -0.007766
C7    C     C_R   0.069297 0.590429 0.459222 -0.116265
C8    C     C_R   0.930703 0.409571 0.540778 -0.116261
C9    C     C_R   0.926041 0.591640 0.458954 0.248727
C10   C     C_R   0.073959 0.408360 0.541046 0.248739
C11   C     C_R   0.518309 0.497450 0.652537 0.903380
C12   C     C_R   0.481690 0.502545 0.347462 0.903353
C13   C     C_R   0.531865 0.492560 0.738206 -0.050098
C14   C     C_R   0.468134 0.507359 0.261790 -0.050158
C15   C     C_R   0.502667 0.599871 0.780241 0.107796
C16   C     C_R   0.497571 0.400076 0.219795 0.107774
C17   C     C_R   0.510088 0.592153 0.862974 -0.156661
C18   C     C_R   0.490141 0.407726 0.137060 -0.156692
C19   C     C_R   0.544489 0.478494 0.903274 0.229929
C20   C     C_R   0.455496 0.521294 0.096715 0.229918
C21   C     C_R   0.580543 0.375132 0.861301 -0.187793
C22   C     C_R   0.419214 0.624615 0.138651 -0.187816
C23   C     C_R   0.573792 0.380347 0.778348 0.126545
C24   C     C_R   0.425961 0.619466 0.221605 0.126582
C25   C     C_R   0.385777 0.063560 0.466071 -0.205719
C26   C     C_R   0.614222 0.936439 0.533930 -0.205684
H1    H     H_    0.513288 0.325935 0.104028 0.157225
H2    H     H_    0.487124 0.673964 0.896041 0.157207
H3    H     H_    0.608900 0.289072 0.893604 0.149290
H4    H     H_    0.390675 0.710601 0.106316 0.149300
H5    H     H_    0.298313 0.112630 0.438642 0.148550
H6    H     H_    0.701687 0.887369 0.561359 0.148534
H7    H     H_    0.300407 0.884919 0.436842 0.146560
H8    H     H_    0.699593 0.115081 0.563158 0.146533
H9    H     H_    0.122389 0.662648 0.427287 0.137968
H10   H     H_    0.877611 0.337352 0.572712 0.137983
N1    N     N_2   0.540363 0.463871 0.986217 -0.185930
N2    N     N_2   0.459613 0.535886 0.013769 -0.185893
N3    N     N_R   0.857210 0.499970 0.500020 -0.097785
N4    N     N_R   0.142790 0.500030 0.499980 -0.097778
O1    O     O_R   0.614620 0.316750 0.500010 -0.624539
O2    O     O_R   0.385380 0.683250 0.499990 -0.624531
O3    O     O_R   0.385290 0.316780 0.500000 -0.625134
O4    O     O_R   0.614710 0.683220 0.500000 -0.625133
O5    O     O_R   0.627460 0.498830 0.616130 -0.611421
O6    O     O_R   0.372540 0.501170 0.383870 -0.611418
O7    O     O_R   0.398130 0.498850 0.616130 -0.620647
O8    O     O_R   0.601870 0.501150 0.383870 -0.620663
Zn1   Zn    Zn3+2 0.653130 0.499980 0.500000 0.939828
Zn2   Zn    Zn3+2 0.346870 0.500020 0.500000 0.939843
C27   C     C_3   0.536346 0.277923 0.262308 -0.891285
H11   H     H_    0.454927 0.246295 0.299950 0.232854
H12   H     H_    0.551776 0.202546 0.219704 0.236853
H13   H     H_    0.632095 0.290869 0.300739 0.257685
C28   C     C_3   0.464149 0.722118 0.737769 -0.891453
H14   H     H_    0.545641 0.753635 0.700150 0.232895
H15   H     H_    0.368390 0.709354 0.699319 0.257622
H16   H     H_    0.448853 0.797492 0.780399 0.236892
C29   C     C_3   0.606574 0.265223 0.733585 -0.910493
H17   H     H_    0.633597 0.184745 0.774686 0.240259
H18   H     H_    0.517477 0.236690 0.693092 0.230882
H19   H     H_    0.693775 0.285654 0.697842 0.246084
C30   C     C_3   0.392920 0.734560 0.266321 -0.910468
H20   H     H_    0.365754 0.814964 0.225188 0.240239
H21   H     H_    0.305736 0.714005 0.302055 0.246146
H22   H     H_    0.481943 0.763270 0.306816 0.230843
C31   C     C_3   0.853974 0.698550 0.414918 -0.832407
H23   H     H_    0.920832 0.749104 0.374680 0.193514
H24   H     H_    0.765127 0.665401 0.376765 0.270929
H25   H     H_    0.824806 0.767825 0.458072 0.243065
C32   C     C_3   0.146026 0.301450 0.585082 -0.832411
H26   H     H_    0.079168 0.250895 0.625320 0.193524
H27   H     H_    0.175194 0.232175 0.541929 0.243061
H28   H     H_    0.234873 0.334599 0.623236 0.270929

loop_
_geom_bond_atom_site_label_1
_geom_bond_atom_site_label_2
_ccdc_geom_bond_type
O4    Zn1   S    
C25   H5    S    
C32   H28   S    
C4    C26   A    
C28   H14   S    
C30   H21   S    
O3    Zn2   S    
C26   H6    S    
N1    N2    D    
C27   H11   S    
C8    N3    A    
O7    Zn2   S    
C20   N2    S    
C19   N1    S    
O6    Zn2   S    
C11   O7    A    
C12   O8    A    
C16   C27   S    
O5    Zn1   S    
C7    N4    A    
C27   H13   S    
C10   C32   S    
C31   H25   S    
C9    C31   S    
C12   C14   S    
C30   H22   S    
C29   H17   S    
C28   H15   S    
C23   C29   S    
C11   C13   S    
C21   H3    S    
O2    Zn2   S    
N4    Zn2   S    
C1    O1    A    
O8    Zn1   S    
C19   C21   A    
C2    O2    A    
C24   C30   S    
C22   C24   A    
C13   C15   A    
C21   C23   A    
C8    C10   A    
C4    H8    S    
N3    Zn1   S    
C29   H18   S    
C2    C5    S    
C11   O5    A    
C3    H7    S    
C14   C24   A    
C5    C26   A    
C6    C25   A    
C7    C9    A    
C3    C25   A    
C32   H26   S    
C2    O4    A    
C13   C23   A    
C18   C20   A    
C16   C18   A    
C4    C6    A    
C8    H10   S    
C28   H16   S    
O1    Zn1   S    
C1    C6    S    
C32   H27   S    
C3    C5    A    
C17   C19   A    
C10   N4    A    
C22   H4    S    
C31   H24   S    
C14   C16   A    
C15   C17   A    
C17   H2    S    
C7    H9    S    
C1    O3    A    
C9    N3    A    
C18   H1    S    
C31   H23   S    
C29   H19   S    
C20   C22   A    
C30   H20   S    
C27   H12   S    
C12   O6    A    
C15   C28   S    
