data_mof_unit_50330.cif
_audit_creation_date              2012-12-11T15:37:27-0500
_audit_creation_method            fapswitch 2.2
_symmetry_space_group_name_H-M    P1
_symmetry_Int_Tables_number       1
_space_group_crystal_system       triclinic
_cell_length_a                    17.415316
_cell_length_b                    24.388562
_cell_length_c                    14.899237
_cell_angle_alpha                 89.986107
_cell_angle_beta                  126.173597
_cell_angle_gamma                 90.023892
_cell_volume                      5108.34385458

loop_
_atom_site_label
_atom_site_type_symbol
_atom_type_description
_atom_site_fract_x
_atom_site_fract_y
_atom_site_fract_z
_atom_type_partial_charge
C1    C     C_R   0.811530 0.628682 0.905335 -0.129033
C2    C     C_3   0.595051 0.498750 0.538044 0.184823
C3    C     C_3   0.068260 0.980616 0.417224 -0.146260
C4    C     C_3   0.925904 0.997673 0.364065 0.186053
C5    C     C_3   0.102208 0.000185 0.532705 0.186152
C6    C     C_R   0.785879 0.234725 0.897104 -0.170714
C7    C     C_R   0.208737 0.767129 0.096200 -0.173587
C8    C     C_R   0.208512 0.232815 0.096352 -0.171928
C9    C     C_R   0.662816 0.692778 0.895498 -0.171481
C10   C     C_R   0.161450 0.808562 0.895165 -0.171050
C11   C     C_R   0.837575 0.189716 0.097410 -0.175910
C12   C     C_R   0.709051 0.733321 0.096608 -0.173066
C13   C     C_R   0.148842 0.347335 0.091157 -0.141424
C14   C     C_R   0.161425 0.191485 0.895364 -0.169552
C15   C     C_R   0.111389 0.764599 0.894914 -0.173754
C16   C     C_R   0.889258 0.233076 0.098506 -0.173500
C17   C     C_R   0.761148 0.690586 0.096838 -0.173421
C18   C     C_R   0.111033 0.235257 0.895086 -0.173379
C19   C     C_R   0.733388 0.192003 0.896107 -0.171575
C20   C     C_R   0.259016 0.811037 0.096402 -0.172125
C21   C     C_R   0.259139 0.189106 0.096595 -0.171250
C22   C     C_R   0.610942 0.735567 0.895241 -0.174096
C23   C     C_R   0.141842 0.740119 0.995863 0.144400
C24   C     C_R   0.149061 0.652612 0.091135 -0.142982
C25   C     C_R   0.856896 0.259437 0.998539 0.144258
C26   C     C_R   0.744773 0.674620 0.996723 0.148851
C27   C     C_R   0.141396 0.259733 0.995995 0.143808
C28   C     C_R   0.752949 0.173646 0.996567 0.147800
C29   C     C_R   0.242364 0.827619 0.996401 0.147707
C30   C     C_R   0.242520 0.172558 0.996589 0.147095
C31   C     C_R   0.641029 0.759861 0.996161 0.144213
C32   C     C_R   0.892830 0.449088 0.464939 -0.174807
C33   C     C_R   0.896991 0.548067 0.374428 -0.168399
C34   C     C_R   0.901714 0.448810 0.378847 -0.171108
C35   C     C_R   0.849727 0.347980 0.907042 -0.127532
C36   C     C_R   0.888865 0.548378 0.461252 -0.178826
C37   C     C_R   0.392105 0.949886 0.465713 -0.177733
C38   C     C_R   0.414838 0.049309 0.391580 -0.171313
C39   C     C_R   0.415604 0.949934 0.392113 -0.168461
C40   C     C_R   0.391311 0.049171 0.465145 -0.173303
C41   C     C_R   0.915195 0.498467 0.342730 0.147425
C42   C     C_R   0.898110 0.499008 0.514924 0.137951
C43   C     C_R   0.437775 0.999702 0.365280 0.151733
C44   C     C_R   0.393217 0.999518 0.513598 0.135121
C45   C     C_R   0.945245 0.348425 0.092415 -0.139288
C46   C     C_R   0.310329 0.127215 0.905438 -0.129662
C47   C     C_R   0.055758 0.650452 0.905609 -0.122786
C48   C     C_R   0.055515 0.349454 0.905674 -0.122857
C49   C     C_R   0.908975 0.632381 0.091293 -0.127274
C50   C     C_R   0.406814 0.869933 0.091408 -0.122610
C51   C     C_R   0.592588 0.126713 0.904814 -0.129486
C52   C     C_R   0.555246 0.849429 0.905677 -0.123038
C53   C     C_R   0.406902 0.130099 0.091481 -0.123299
C54   C     C_R   0.993811 0.544994 0.264379 -0.128796
C55   C     C_R   0.949622 0.453824 0.695142 -0.124753
C56   C     C_R   0.949334 0.545749 0.694496 -0.124610
C57   C     C_R   0.648540 0.847317 0.091201 -0.141845
C58   C     C_R   0.985560 0.453026 0.253710 -0.131783
C59   C     C_R   0.506848 0.045842 0.276309 -0.134168
C60   C     C_R   0.446329 0.953865 0.693754 -0.121067
C61   C     C_R   0.444526 0.045558 0.692617 -0.137693
C62   C     C_R   0.507038 0.954020 0.276367 -0.133952
C63   C     C_R   0.737218 0.453757 0.703466 -0.129927
C64   C     C_R   0.268087 0.545697 0.246153 -0.126113
C65   C     C_R   0.268049 0.454549 0.245166 -0.136050
C66   C     C_R   0.738022 0.544949 0.699997 -0.151574
C67   C     C_R   0.242498 0.954758 0.696126 -0.155060
C68   C     C_R   0.683954 0.133337 0.090687 -0.129450
C69   C     C_R   0.771013 0.044526 0.260632 -0.140097
C70   C     C_R   0.768549 0.953438 0.252657 -0.126188
C71   C     C_R   0.242260 0.045592 0.696968 -0.136348
C72   C     C_R   0.817999 0.645238 0.998060 0.043138
C73   C     C_R   0.116979 0.316696 0.997336 0.046028
C74   C     C_R   0.117405 0.683175 0.997268 0.045748
C75   C     C_R   0.882530 0.316408 0.999744 0.047244
C76   C     C_R   0.315787 0.142791 0.998118 0.042018
C77   C     C_R   0.616430 0.816677 0.997393 0.046448
C78   C     C_R   0.680234 0.144557 0.997039 0.043176
C79   C     C_R   0.310222 0.872928 0.905335 -0.130572
C80   C     C_R   0.315650 0.857361 0.997992 0.042398
C81   C     C_R   0.960926 0.498794 0.286675 0.044347
C82   C     C_R   0.931816 0.499602 0.630563 0.042713
C83   C     C_R   0.484739 0.999865 0.311135 0.044505
C84   C     C_R   0.425157 0.999601 0.628174 0.049958
C85   C     C_R   0.686121 0.499074 0.644430 0.038046
C86   C     C_R   0.323485 0.500231 0.269032 0.028486
C87   C     C_R   0.194648 0.000294 0.635736 0.040884
C88   C     C_R   0.825161 0.998602 0.283721 0.033989
C89   C     C_3   0.526460 0.450219 0.496119 -0.168880
C90   C     C_3   0.423955 0.500153 0.356348 0.185225
C91   C     C_3   0.492553 0.548770 0.398057 -0.167850
C92   C     C_3   0.500469 0.459699 0.378629 -0.159108
C93   C     C_3   0.518226 0.539037 0.515137 -0.158315
C94   C     C_3   0.025811 0.966527 0.528006 -0.147147
C95   C     C_3   0.001510 0.031410 0.367399 -0.151216
C96   C     C_3   0.989785 0.946969 0.411066 -0.170258
C97   C     C_3   0.038152 0.050792 0.485130 -0.171983
C98   C     C_3   0.449043 0.490584 0.472716 -0.131027
C99   C     C_3   0.571641 0.508405 0.422774 -0.141829
C100  C     C_3   0.961402 0.017054 0.480288 -0.142379
H1    H     H_    0.753449 0.634077 0.819036 0.088844
H2    H     H_    0.290728 0.588030 0.263085 0.097734
H3    H     H_    0.290987 0.412263 0.261624 0.102168
H4    H     H_    0.723216 0.586504 0.668681 0.090775
H5    H     H_    0.228558 0.912791 0.667094 0.091221
H6    H     H_    0.797412 0.085140 0.292145 0.091570
H7    H     H_    0.789578 0.910849 0.267254 0.095152
H8    H     H_    0.229103 0.087653 0.668670 0.083588
H9    H     H_    0.397076 0.483348 0.491790 0.115739
H10   H     H_    0.625334 0.515573 0.406444 0.117011
H11   H     H_    0.915877 0.031764 0.504861 0.114100
H12   H     H_    0.187396 0.333025 0.175891 0.083215
H13   H     H_    0.115751 0.966041 0.395469 0.115864
H14   H     H_    0.541581 0.409979 0.538320 0.107775
H15   H     H_    0.476421 0.588869 0.355137 0.110166
H16   H     H_    0.490387 0.427609 0.319723 0.114034
H17   H     H_    0.527290 0.571232 0.573389 0.109554
H18   H     H_    0.037548 0.940144 0.595867 0.111590
H19   H     H_    0.987870 0.057631 0.298455 0.115830
H20   H     H_    0.967825 0.904577 0.378430 0.107766
H21   H     H_    0.059027 0.093411 0.516711 0.103854
H22   H     H_    0.763173 0.251546 0.817920 0.104066
H23   H     H_    0.187726 0.666935 0.175868 0.084666
H24   H     H_    0.229499 0.751664 0.175561 0.104975
H25   H     H_    0.229203 0.248260 0.175693 0.104399
H26   H     H_    0.643424 0.678288 0.816133 0.104527
H27   H     H_    0.141863 0.823279 0.815838 0.104454
H28   H     H_    0.859321 0.172789 0.176263 0.104780
H29   H     H_    0.729473 0.748544 0.175976 0.104766
H30   H     H_    0.141852 0.176790 0.816038 0.105183
H31   H     H_    0.055860 0.746932 0.815643 0.105251
H32   H     H_    0.947960 0.248865 0.178075 0.104497
H33   H     H_    0.819190 0.673936 0.175954 0.103013
H34   H     H_    0.809874 0.334823 0.821483 0.080403
H35   H     H_    0.055327 0.252831 0.815810 0.104608
H36   H     H_    0.672481 0.177656 0.816584 0.106923
H37   H     H_    0.316225 0.828110 0.175540 0.104623
H38   H     H_    0.316502 0.172141 0.175750 0.104374
H39   H     H_    0.554451 0.752762 0.815952 0.105243
H40   H     H_    0.892778 0.410017 0.499027 0.105354
H41   H     H_    0.898334 0.586997 0.340643 0.103225
H42   H     H_    0.907824 0.409601 0.349859 0.107182
H43   H     H_    0.885563 0.587584 0.492577 0.105316
H44   H     H_    0.385456 0.910769 0.494628 0.104463
H45   H     H_    0.251962 0.132242 0.819113 0.090220
H46   H     H_    0.422057 0.088442 0.363196 0.102661
H47   H     H_    0.423409 0.910851 0.364148 0.102467
H48   H     H_    0.384068 0.088256 0.493581 0.104476
H49   H     H_    0.993140 0.334416 0.177294 0.082471
H50   H     H_    0.009144 0.663126 0.819695 0.082501
H51   H     H_    0.008754 0.336723 0.819811 0.080707
H52   H     H_    0.941676 0.647074 0.174385 0.082495
H53   H     H_    0.437809 0.856739 0.174908 0.082383
H54   H     H_    0.564194 0.130614 0.818312 0.093238
H55   H     H_    0.508591 0.836766 0.819759 0.082357
H56   H     H_    0.686984 0.833018 0.175924 0.084071
H57   H     H_    0.437944 0.143243 0.175020 0.082829
H58   H     H_    0.998053 0.585845 0.293748 0.083734
H59   H     H_    0.932476 0.411665 0.668254 0.081814
H60   H     H_    0.932149 0.587786 0.666644 0.082461
H61   H     H_    0.973833 0.410470 0.261646 0.093881
H62   H     H_    0.512914 0.087211 0.304572 0.082389
H63   H     H_    0.429650 0.911631 0.667191 0.080830
H64   H     H_    0.425041 0.087406 0.664285 0.082553
H65   H     H_    0.513368 0.912625 0.304652 0.082569
H66   H     H_    0.735660 0.147957 0.173797 0.084558
H67   H     H_    0.251818 0.868077 0.818946 0.089744
H68   H     H_    0.722025 0.411391 0.677027 0.087195
N1    N     N_R   0.892620 0.603790 0.941800 -0.039418
N2    N     N_R   0.047790 0.602400 0.942090 -0.038222
N3    N     N_R   0.047790 0.397600 0.942090 -0.037119
N4    N     N_R   0.952210 0.602400 0.057910 -0.037231
N5    N     N_R   0.452210 0.897600 0.057910 -0.038513
N6    N     N_R   0.547790 0.102400 0.942090 -0.040483
N7    N     N_R   0.547790 0.897600 0.942090 -0.038601
N8    N     N_R   0.452210 0.102400 0.057910 -0.039868
N9    N     N_R   0.026300 0.529110 0.206760 -0.039830
N10   N     N_R   0.973700 0.470890 0.793240 -0.039212
N11   N     N_R   0.973700 0.529110 0.793240 -0.038793
N12   N     N_R   0.107380 0.396210 0.058200 -0.036437
N13   N     N_R   0.026300 0.470890 0.206760 -0.041182
N14   N     N_R   0.526300 0.029110 0.206760 -0.037832
N15   N     N_R   0.473700 0.970890 0.793240 -0.037872
N16   N     N_R   0.473700 0.029110 0.793240 -0.037918
N17   N     N_R   0.526300 0.970890 0.206760 -0.037900
N18   N     N_R   0.818530 0.472270 0.792960 -0.036383
N19   N     N_R   0.181470 0.527730 0.207040 -0.042424
N20   N     N_R   0.181470 0.472270 0.207040 -0.042335
N21   N     N_R   0.818530 0.527730 0.792960 -0.035070
N22   N     N_R   0.318530 0.972270 0.792960 -0.034045
N23   N     N_R   0.107380 0.603790 0.058200 -0.038049
N24   N     N_R   0.681470 0.027730 0.207040 -0.038827
N25   N     N_R   0.681470 0.972270 0.207040 -0.040989
N26   N     N_R   0.318530 0.027730 0.792960 -0.034515
N27   N     N_R   0.892620 0.396210 0.941800 -0.037562
N28   N     N_R   0.392620 0.103790 0.941800 -0.041391
N29   N     N_R   0.607380 0.896210 0.058200 -0.038631
N30   N     N_R   0.607380 0.103790 0.058200 -0.039175
N31   N     N_R   0.392620 0.896210 0.941800 -0.040063
N32   N     N_R   0.952210 0.397600 0.057910 -0.036220
Ni1   Ni    Ni4+2 0.934150 0.565840 0.869060 0.208322
Ni2   Ni    Ni4+2 0.065850 0.434160 0.130940 0.206780
Ni3   Ni    Ni4+2 0.065850 0.565840 0.130940 0.209935
Ni4   Ni    Ni4+2 0.934150 0.434160 0.869060 0.206572
Ni5   Ni    Ni4+2 0.434150 0.065840 0.869060 0.209933
Ni6   Ni    Ni4+2 0.565850 0.934160 0.130940 0.210924
Ni7   Ni    Ni4+2 0.565850 0.065840 0.130940 0.213121
Ni8   Ni    Ni4+2 0.434150 0.934160 0.869060 0.208239

loop_
_geom_bond_atom_site_label_1
_geom_bond_atom_site_label_2
_ccdc_geom_bond_type
C38   C40   A    
C62   C83   A    
C51   H54   S    
C37   H44   S    
N10   Ni4   S    
N4    Ni3   S    
C61   H64   S    
C43   C83   S    
C14   C18   A    
C36   C42   A    
N13   Ni2   S    
C42   C82   S    
C7    H24   S    
C70   C88   A    
C33   C36   A    
C66   C85   A    
C46   C76   A    
C5    C94   S    
C67   N22   A    
C65   C86   A    
C52   H55   S    
C64   H2    S    
C6    C19   A    
C35   C75   A    
N23   Ni3   S    
C58   N13   A    
C17   C26   A    
C21   H38   S    
N8    Ni7   S    
C36   H43   S    
C59   C83   A    
C32   H40   S    
C13   H12   S    
N12   Ni2   S    
C70   H7    S    
C7    C23   A    
C9    C22   A    
C46   H45   S    
N5    N31   A    
C50   H53   S    
C48   N3    A    
C66   N21   A    
N19   Ni3   S    
N3    Ni4   S    
C60   H63   S    
C26   C72   S    
C35   H34   S    
C2    C85   S    
C68   N30   A    
N14   Ni7   S    
N20   Ni2   S    
N28   Ni5   S    
N7    N29   A    
N2    Ni1   S    
C97   H21   S    
C4    C96   S    
C38   H46   S    
N11   Ni1   S    
C49   C72   A    
C12   C17   A    
N6    Ni5   S    
N9    Ni3   S    
N5    Ni6   S    
N25   Ni6   S    
C28   C78   S    
C35   N27   A    
C60   N15   A    
C55   H59   S    
C65   N20   A    
C98   H9    S    
C71   H8    S    
C63   C85   A    
C55   C82   A    
N15   Ni8   S    
C79   H67   S    
N29   Ni6   S    
C34   C41   A    
C93   H17   S    
N7    Ni8   S    
C14   C30   A    
N17   Ni6   S    
C69   N24   A    
C64   C86   A    
C9    C26   A    
C31   C77   S    
C20   C29   A    
C68   C78   A    
C57   H56   S    
N6    N30   A    
C1    C72   A    
C79   N31   A    
C12   H29   S    
C40   H48   S    
N10   N11   A    
C3    H13   S    
C58   C81   A    
C91   C93   S    
C67   H5    S    
C71   N26   A    
C39   C43   A    
N27   Ni4   S    
C1    N1    A    
N21   Ni1   S    
C19   H36   S    
C99   H10   S    
N2    N23   A    
C24   H23   S    
N16   Ni5   S    
C45   N32   A    
N14   N17   A    
C32   C34   A    
C20   H37   S    
C2    C89   S    
N15   N16   A    
C66   H4    S    
C54   H58   S    
C4    C95   S    
C30   C76   S    
C11   C16   A    
C90   C92   S    
C47   H50   S    
C94   C100  S    
C63   N18   A    
C41   C81   S    
C22   C31   A    
C8    C21   A    
C5    C87   S    
N18   Ni4   S    
C18   H35   S    
N8    N28   A    
C89   C92   S    
C94   C96   S    
C19   C28   A    
C92   H16   S    
C52   N7    A    
C45   C75   A    
C3    C96   S    
C69   C88   A    
C62   N17   A    
C71   C87   A    
N22   Ni8   S    
C63   H68   S    
C5    C97   S    
C2    C99   S    
C7    C20   A    
C51   N6    A    
C4    C100  S    
C12   C31   A    
C86   C90   S    
N24   Ni7   S    
C38   C43   A    
N3    N12   A    
C53   C76   A    
C65   H3    S    
C23   C74   S    
C52   C77   A    
C1    H1    S    
C47   N2    A    
N27   N32   A    
C14   H30   S    
C16   C25   A    
N26   Ni5   S    
C89   H14   S    
C34   H42   S    
C61   N16   A    
C32   C42   A    
C97   C100  S    
C49   H52   S    
C57   N29   A    
N30   Ni7   S    
C67   C87   A    
C48   C73   A    
C96   H20   S    
C2    C93   S    
C59   N14   A    
C18   C27   A    
C47   C74   A    
C13   C73   A    
C3    C5    S    
C61   C84   A    
C50   C80   A    
C49   N4    A    
C69   H6    S    
C95   C97   S    
C56   C82   A    
C4    C88   S    
C13   N12   A    
C21   C30   A    
C53   H57   S    
C9    H26   S    
C54   N9    A    
C44   C84   S    
C89   C98   S    
C10   C15   A    
C33   H41   S    
N24   N25   A    
C57   C77   A    
C11   H28   S    
C51   C78   A    
C33   C41   A    
N19   N20   A    
C37   C39   A    
C59   H62   S    
C91   C99   S    
C17   H33   S    
C60   C84   A    
C10   C29   A    
C24   C74   A    
C90   C91   S    
C29   C80   S    
C11   C28   A    
N18   N21   A    
C70   N25   A    
N9    N13   A    
C22   H39   S    
C15   C23   A    
N31   Ni8   S    
C55   N10   A    
C91   H15   S    
C24   N23   A    
C45   H49   S    
C54   C81   A    
C16   H32   S    
C64   N19   A    
C95   H19   S    
N22   N26   A    
N1    Ni1   S    
C79   C80   A    
C6    C25   A    
C37   C44   A    
C8    H25   S    
C40   C44   A    
C62   H65   S    
C15   H31   S    
C53   N8    A    
C100  H11   S    
C56   H60   S    
C94   H18   S    
C48   H51   S    
C39   H47   S    
C46   N28   A    
C8    C27   A    
C6    H22   S    
C3    C95   S    
N1    N4    A    
C25   C75   S    
C27   C73   S    
C58   H61   S    
C93   C98   S    
C90   C98   S    
N32   Ni2   S    
C10   H27   S    
C92   C99   S    
C50   N5    A    
C56   N11   A    
C68   H66   S    
