data_mof_unit_11444.cif
_audit_creation_date              2012-12-10T17:19:56-0500
_audit_creation_method            fapswitch 2.2
_symmetry_space_group_name_H-M    P1
_symmetry_Int_Tables_number       1
_space_group_crystal_system       triclinic
_cell_length_a                    9.58172
_cell_length_b                    10.864682
_cell_length_c                    15.489046
_cell_angle_alpha                 87.720738
_cell_angle_beta                  74.244261
_cell_angle_gamma                 90.47478
_cell_volume                      1550.33004125

loop_
_atom_site_label
_atom_site_type_symbol
_atom_type_description
_atom_site_fract_x
_atom_site_fract_y
_atom_site_fract_z
_atom_type_partial_charge
C1    C     C_R   0.003366 0.263150 0.492747 0.805357
C2    C     C_R   0.677450 0.520304 0.908520 0.091809
C3    C     C_R   0.777622 0.490693 0.958459 0.166081
C4    C     C_R   0.529817 0.542264 0.954235 0.066628
C5    C     C_R   0.481989 0.522344 0.049197 0.064808
C6    C     C_R   0.586370 0.495769 0.096467 -0.219770
C7    C     C_R   0.731175 0.480813 0.051731 -0.241170
C8    C     C_R   0.428968 0.585112 0.908453 -0.223888
C9    C     C_R   0.284493 0.601720 0.953493 -0.241388
C10   C     C_R   0.234222 0.574333 0.045295 0.168048
C11   C     C_R   0.331704 0.532276 0.093900 0.091457
C12   C     C_R   0.918135 0.499877 0.672107 0.805516
C13   C     C_R   0.087031 0.589367 0.089239 -0.219715
C14   C     C_R   0.034586 0.561802 0.181024 -0.210107
C15   C     C_R   0.274764 0.500487 0.185646 -0.253702
C16   C     C_R   0.279865 0.123792 0.437507 -0.157316
C17   C     C_R   0.405228 0.066487 0.445964 -0.156144
C18   C     C_R   0.394985 0.951687 0.490019 -0.141495
C19   C     C_R   0.261716 0.888937 0.517190 -0.165377
C20   C     C_R   0.135678 0.940194 0.499740 0.094803
C21   C     C_R   0.141730 0.066024 0.473041 0.097451
C22   C     C_R   0.009425 0.129438 0.484308 -0.121919
C23   C     C_R   0.999685 0.737685 0.504586 0.783776
C24   C     C_R   0.878766 0.062818 0.499802 -0.211020
C25   C     C_R   0.877327 0.935648 0.507307 -0.212835
C26   C     C_R   0.004098 0.872485 0.507611 -0.114421
C27   C     C_R   0.699220 0.661525 0.379336 -0.170041
C28   C     C_R   0.654051 0.740530 0.320111 -0.231012
C29   C     C_R   0.510147 0.741580 0.320494 -0.191349
C30   C     C_R   0.410602 0.663605 0.380078 -0.149388
C31   C     C_R   0.451996 0.580209 0.440997 0.191285
C32   C     C_R   0.601745 0.579701 0.440804 0.207966
C33   C     C_R   0.548605 0.423676 0.556016 -0.073325
C34   C     C_R   0.081991 0.502671 0.327924 0.774144
C35   C     C_R   0.400629 0.423651 0.555950 -0.074105
C36   C     C_R   0.872953 0.500309 0.770610 -0.053453
C37   C     C_R   0.128808 0.518222 0.229729 -0.043921
C38   C     C_R   0.923576 0.470084 0.914478 -0.213849
C39   C     C_R   0.971323 0.476082 0.821127 -0.195736
C40   C     C_R   0.727719 0.522363 0.814325 -0.253062
Cu1   Cu    Cu3+1 0.140660 0.499990 0.500010 0.918062
Cu2   Cu    Cu3+1 0.859340 0.500010 0.499990 0.927707
H1    H     H_    0.806986 0.459355 0.090631 0.151380
H2    H     H_    0.776809 0.108931 0.506358 0.162022
H3    H     H_    0.293142 0.212261 0.401501 0.159837
H4    H     H_    0.509713 0.112859 0.420771 0.136842
H5    H     H_    0.490905 0.909895 0.501571 0.139310
H6    H     H_    0.259726 0.802979 0.554752 0.169250
H7    H     H_    0.775424 0.886845 0.514608 0.164210
H8    H     H_    0.583161 0.361087 0.601896 0.139556
H9    H     H_    0.811755 0.668706 0.373752 0.202542
H10   H     H_    0.731512 0.801802 0.273825 0.155850
H11   H     H_    0.474813 0.804054 0.274760 0.158900
H12   H     H_    0.302804 0.674097 0.375658 0.205209
H13   H     H_    0.324490 0.361068 0.601754 0.142687
H14   H     H_    0.921514 0.577160 0.214012 0.154947
H15   H     H_    0.211213 0.635363 0.915860 0.148695
H16   H     H_    0.000474 0.447326 0.952308 0.144585
H17   H     H_    0.084112 0.458572 0.788610 0.153227
H18   H     H_    0.654857 0.537203 0.773129 0.151532
H19   H     H_    0.560735 0.488962 0.168657 0.150992
H20   H     H_    0.458785 0.610573 0.837841 0.143242
N1    N     N_R   0.648320 0.501210 0.499140 -0.197905
N2    N     N_R   0.352470 0.501290 0.499110 -0.202730
O1    O     O_R   0.118810 0.319640 0.500010 -0.585805
O2    O     O_R   0.881240 0.319660 0.500000 -0.578574
O3    O     O_R   0.055570 0.499980 0.629840 -0.581970
O4    O     O_R   0.818000 0.500010 0.629830 -0.581911
O5    O     O_R   0.118760 0.680340 0.500000 -0.612654
O6    O     O_R   0.881190 0.680360 0.499990 -0.597880
O7    O     O_R   0.182000 0.499990 0.370170 -0.605726
O8    O     O_R   0.944430 0.500020 0.370160 -0.597446
H21   H     H_    0.012889 0.624346 0.052760 0.142004
H22   H     H_    0.341564 0.460581 0.224720 0.150394

loop_
_geom_bond_atom_site_label_1
_geom_bond_atom_site_label_2
_ccdc_geom_bond_type
C14   H14   S    
C16   C21   A    
C40   H18   S    
C34   C37   S    
Cu1   Cu2   S    
C23   O5    A    
C19   C20   A    
C4    C8    A    
C18   H5    S    
Cu1   O3    S    
C12   O4    A    
C29   H11   S    
C6    H19   S    
C28   C29   A    
C5    C11   A    
C3    C7    A    
C5    C6    A    
Cu2   O6    S    
C18   C19   A    
C23   C26   S    
C15   C37   A    
C38   H16   S    
C11   C15   A    
C3    C38   A    
C8    C9    A    
C1    O1    A    
C35   N2    A    
C7    H1    S    
C12   C36   S    
C9    C10   A    
Cu1   O7    S    
C1    C22   S    
C21   C22   A    
Cu2   O4    S    
C23   O6    A    
C27   H9    S    
C17   C18   A    
C38   C39   A    
C12   O3    A    
C35   H13   S    
C36   C40   A    
C17   H4    S    
C19   H6    S    
C16   C17   A    
Cu1   O1    S    
C25   C26   A    
C2    C4    A    
C29   C30   A    
C30   H12   S    
C31   C32   A    
C33   N1    A    
C39   H17   S    
Cu2   O8    S    
C1    O2    A    
C24   C25   A    
C13   H21   S    
C24   H2    S    
C22   C24   A    
C34   O8    A    
Cu1   O5    S    
C27   C32   A    
C31   N2    A    
C36   C39   A    
C32   N1    A    
C4    C5    A    
C10   C13   A    
C16   H3    S    
C6    C7    A    
C2    C3    A    
C33   H8    S    
C14   C37   A    
C28   H10   S    
C30   C31   A    
C20   C26   A    
C34   O7    A    
C33   C35   A    
C9    H15   S    
C25   H7    S    
C10   C11   A    
C2    C40   A    
C15   H22   S    
C20   C21   A    
C27   C28   A    
Cu2   O2    S    
Cu1   N2    S    
C13   C14   A    
Cu2   N1    S    
C8    H20   S    
