data_mof_unit_8447.cif
_audit_creation_date              2013-03-05T15:42:41-0500
_audit_creation_method            fapswitch 2.2
_symmetry_space_group_name_H-M    P1
_symmetry_Int_Tables_number       1
_space_group_crystal_system       triclinic
_cell_length_a                    7.745023
_cell_length_b                    8.685803
_cell_length_c                    27.631486
_cell_angle_alpha                 92.943024
_cell_angle_beta                  85.872851
_cell_angle_gamma                 93.348292
_cell_volume                      1848.75773524

loop_
_atom_site_label
_atom_site_type_symbol
_atom_site_description
_atom_site_fract_x
_atom_site_fract_y
_atom_site_fract_z
_atom_type_partial_charge
O1    O     O_R   0.389250 0.738570 0.503220 -0.586984
O2    O     O_R   0.610750 0.261430 0.496780 -0.586877
O3    O     O_R   0.678390 0.711630 0.494810 -0.592473
O4    O     O_R   0.321610 0.288370 0.505190 -0.592406
C1    C     C_R   0.544870 0.793959 0.498353 0.884017
C2    C     C_R   0.455130 0.206042 0.501650 0.884256
O5    O     O_R   0.355440 0.513440 0.575450 -0.632805
O6    O     O_R   0.644560 0.486560 0.424550 -0.632734
O7    O     O_R   0.644590 0.486500 0.567040 -0.560343
O8    O     O_R   0.355410 0.513500 0.432960 -0.560114
C3    C     C_R   0.503125 0.505148 0.594132 0.910508
C4    C     C_R   0.496872 0.494861 0.405866 0.910424
Zn1   Zn    Zn3+2 0.306940 0.517990 0.505620 1.079683
Zn2   Zn    Zn3+2 0.693060 0.482010 0.494380 1.079713
C5    C     C_R   0.592635 0.676082 0.826604 0.603069
C6    C     C_R   0.407286 0.325245 0.173344 0.603184
O9    O     O_2   0.667882 0.801874 0.805405 -0.446748
O10   O     O_2   0.332415 0.199239 0.194506 -0.446562
N1    N     N_R   0.503691 0.568540 0.799159 -0.356030
N2    N     N_R   0.496193 0.432798 0.200799 -0.355991
C7    C     C_R   0.417803 0.442386 0.818561 0.588615
C8    C     C_R   0.581690 0.559175 0.181419 0.588484
C9    C     C_R   0.364785 0.603857 0.724433 -0.050681
C10   C     C_R   0.635845 0.398205 0.275468 -0.050505
C11   C     C_R   0.363187 0.579411 0.674497 -0.272325
C12   C     C_R   0.637357 0.422272 0.325416 -0.272067
C13   C     C_R   0.664280 0.507970 0.670163 0.451846
C14   C     C_R   0.335356 0.491196 0.329869 0.452222
C15   C     C_R   0.663520 0.532918 0.720717 -0.209491
C16   C     C_R   0.336222 0.466682 0.279300 -0.209144
C17   C     C_R   0.513585 0.577622 0.747645 0.246056
C18   C     C_R   0.486622 0.423438 0.252306 0.246008
C19   C     C_R   0.507455 0.530239 0.898129 -0.104921
C20   C     C_R   0.491952 0.471383 0.101855 -0.105017
C21   C     C_R   0.603577 0.656014 0.876494 -0.115042
C22   C     C_R   0.396014 0.345504 0.123480 -0.115047
C23   C     C_R   0.711317 0.753657 0.905114 0.338408
C24   C     C_R   0.288144 0.247931 0.094879 0.338505
C25   C     C_R   0.416423 0.420030 0.868661 -0.164288
C26   C     C_R   0.582935 0.581615 0.131325 -0.164266
C27   C     C_R   0.510858 0.528672 0.646973 -0.083728
C28   C     C_R   0.489171 0.471591 0.353012 -0.083857
H1    H     H_    0.776632 0.510487 0.739611 0.155883
H2    H     H_    0.222724 0.488286 0.260454 0.155723
C29   C     C_R   0.582995 0.618382 0.029809 -0.074028
C30   C     C_R   0.416198 0.383341 0.970185 -0.074055
C31   C     C_R   0.403320 0.376068 0.021676 0.059713
C32   C     C_R   0.595917 0.625639 0.978318 0.059749
C33   C     C_R   0.494697 0.487854 0.050887 0.072493
C34   C     C_R   0.504574 0.513835 0.949103 0.072522
C35   C     C_R   0.649310 0.739462 0.061410 0.185283
C36   C     C_R   0.349818 0.262282 0.938586 0.185279
C37   C     C_R   0.660275 0.716234 0.110742 0.256066
C38   C     C_R   0.338910 0.285495 0.889253 0.256053
O11   O     O_2   0.662043 0.663550 0.211275 -0.474981
O12   O     O_2   0.337181 0.338151 0.788718 -0.475046
C39   C     C_R   0.710256 0.733772 0.954627 -0.166712
C40   C     C_R   0.289018 0.267922 0.045375 -0.166733
H3    H     H_    0.755983 0.404038 0.342305 0.197842
H4    H     H_    0.244901 0.598500 0.657562 0.198098
H5    H     H_    0.753044 0.366837 0.254403 0.180712
H6    H     H_    0.247919 0.636309 0.745454 0.180981
H7    H     H_    0.809661 0.798761 0.973344 0.214163
H8    H     H_    0.189526 0.203001 0.026674 0.214174
C41   C     C_2   0.569219 0.955796 0.500794 -0.014756
C42   C     C_2   0.430778 0.044205 0.499215 -0.014751
N3    N     N_2   0.950320 0.457960 0.486880 -0.126429
N4    N     N_2   0.049680 0.542040 0.513120 -0.126532
H9    H     H_    0.013811 0.381587 0.463126 0.228988
H10   H     H_    0.986189 0.618413 0.536874 0.228664
O13   O     O_3   0.810618 0.459552 0.643430 -0.719192
H11   H     H_    0.905279 0.452065 0.665399 0.341364
O14   O     O_3   0.188445 0.538057 0.356667 -0.719624
H12   H     H_    0.093568 0.544888 0.334724 0.340751
N5    N     N_R   0.830978 0.868615 0.884615 0.268589
O15   O     O_R   0.831549 0.009578 0.902962 -0.251353
O16   O     O_R   0.960017 0.826777 0.855027 -0.293445
N6    N     N_R   0.168501 0.132984 0.115394 0.268561
O17   O     O_R   0.167597 0.992096 0.096978 -0.251332
O18   O     O_R   0.039781 0.174812 0.145102 -0.293748
N7    N     N_R   0.739284 0.837528 0.140208 0.287288
O19   O     O_R   0.655605 0.959966 0.153569 -0.262701
O20   O     O_R   0.897369 0.827619 0.152271 -0.245625
N8    N     N_R   0.259865 0.164215 0.859789 0.287301
O21   O     O_R   0.343544 0.041792 0.846407 -0.262873
O22   O     O_R   0.101781 0.174155 0.847728 -0.245691
N9    N     N_R   0.678006 0.895023 0.046411 0.219821
O23   O     O_R   0.544764 0.978136 0.044588 -0.291762
O24   O     O_R   0.831098 0.964380 0.048428 -0.299261
N10   N     N_R   0.321010 0.106731 0.953587 0.219850
O25   O     O_R   0.167844 0.037502 0.951595 -0.299233
O26   O     O_R   0.454176 0.023486 0.955354 -0.291657
N11   N     N_R   0.741737 0.017115 0.508694 0.237043
O27   O     O_R   0.857253 0.026198 0.472250 -0.295030
O28   O     O_R   0.783516 0.060221 0.552310 -0.316352
N12   N     N_R   0.258257 0.982887 0.491319 0.237070
O29   O     O_R   0.142754 0.973791 0.527766 -0.295164
O30   O     O_R   0.216458 0.939810 0.447703 -0.316510

loop_
_geom_bond_atom_site_label_1
_geom_bond_atom_site_label_2
_geom_bond_distance
_ccdc_geom_bond_type
N9    O23   1.298792 A    
C10   H5    1.083290 S    
C13   C15   1.402201 A    
O14   H12   0.991988 S    
C36   N10   1.433875 S    
O7    Zn2   2.014570 S    
N1    C17   1.425953 S    
C38   N8    1.433738 S    
N7    O19   1.301177 A    
C32   C39   1.406208 A    
C31   C33   1.420058 A    
C5    N1    1.359945 A    
N11   O27   1.300351 A    
C2    C42   1.406126 S    
O1    C1    1.271935 A    
C21   C23   1.408689 A    
N8    O22   1.300623 A    
N6    O18   1.301381 A    
C25   C38   1.409548 A    
C29   C35   1.428078 A    
C30   C36   1.428094 A    
C37   N7    1.433736 S    
C14   C28   1.414796 A    
O4    Zn1   2.003662 S    
C4    C28   1.469043 S    
C24   C40   1.387140 A    
C9    H6    1.083233 S    
N12   O30   1.301137 A    
Zn2   N3    2.010302 S    
C11   H4    1.083136 S    
C12   H3    1.083179 S    
C6    N2    1.360008 A    
C32   C34   1.420074 A    
C23   N5    1.432192 S    
N11   O28   1.301137 A    
C15   H1    1.083607 S    
C16   H2    1.083658 S    
O2    C2    1.271938 A    
C14   O14   1.382209 S    
C5    C21   1.407528 A    
N7    O20   1.300618 A    
C36   C38   1.397428 A    
C39   H7    1.074900 S    
C40   H8    1.074892 S    
N3    N4    1.269460 D    
N8    O21   1.301186 A    
C1    C41   1.406133 S    
C11   C27   1.407115 A    
N6    O17   1.300798 A    
C24   N6    1.432225 S    
C19   C34   1.421397 A    
C35   C37   1.397475 A    
C9    C17   1.394110 A    
O5    C3    1.295538 A    
N5    O15   1.300793 A    
C10   C18   1.394200 A    
O7    C3    1.295096 A    
C13   C27   1.414649 A    
N10   O26   1.298805 A    
C7    C25   1.406922 A    
C29   C33   1.418501 A    
O6    C4    1.295605 A    
C8    C26   1.406972 A    
N12   O29   1.300352 A    
C6    O10   1.348625 S    
C19   C25   1.414281 A    
N5    O16   1.301383 A    
O3    Zn2   2.003662 S    
O8    C4    1.295105 A    
O4    C2    1.286444 A    
N2    C8    1.361825 A    
C26   C37   1.409573 A    
N9    O24   1.301739 A    
C20   C26   1.414259 A    
O1    Zn1   1.986408 S    
C35   N9    1.433876 S    
C13   O13   1.382148 S    
C12   C28   1.407149 A    
C42   N12   1.436504 S    
N2    C18   1.426056 S    
C29   C32   1.423477 A    
C5    O9    1.348611 S    
C30   C31   1.423486 A    
C20   C33   1.421374 A    
O6    Zn2   1.994881 S    
N1    C7    1.361757 A    
C10   C12   1.386023 A    
O3    C1    1.286447 A    
O8    Zn1   2.014570 S    
C7    O12   1.349424 S    
C8    O11   1.349422 S    
C30   C34   1.418561 A    
C22   C24   1.408682 A    
C14   C16   1.402163 A    
C15   C17   1.396975 A    
C6    C22   1.407466 A    
C31   C40   1.406214 A    
C16   C18   1.396990 A    
N10   O25   1.301736 A    
C41   N11   1.436503 S    
C19   C21   1.418826 A    
C3    C27   1.468923 S    
C20   C22   1.418759 A    
C9    C11   1.386047 A    
O2    Zn2   1.986408 S    
O5    Zn1   1.994880 S    
O13   H11   0.991936 S    
N4    H10   1.029361 S    
C41   C42   1.359271 D    
N3    H9    1.029361 S    
C23   C39   1.387125 A    
Zn1   N4    2.010303 S    
