data_mof_unit_37858.cif
_audit_creation_date              2012-12-10T19:07:37-0500
_audit_creation_method            fapswitch 2.2
_symmetry_space_group_name_H-M    P1
_symmetry_Int_Tables_number       1
_space_group_crystal_system       triclinic
_cell_length_a                    10.722378
_cell_length_b                    10.875947
_cell_length_c                    9.599803
_cell_angle_alpha                 90.685448
_cell_angle_beta                  88.993345
_cell_angle_gamma                 91.399855
_cell_volume                      1118.9094308

loop_
_atom_site_label
_atom_site_type_symbol
_atom_type_description
_atom_site_fract_x
_atom_site_fract_y
_atom_site_fract_z
_atom_type_partial_charge
C1    C     C_R   0.501244 0.262524 0.498730 0.824953
C2    C     C_R   0.938530 0.604771 0.474524 0.051506
C3    C     C_3   0.930617 0.724572 0.551119 -0.244437
C4    C     C_3   0.072870 0.726680 0.553196 -0.426233
C5    C     C_R   0.456370 0.064380 0.613170 0.048180
C6    C     C_R   0.495639 0.128771 0.494337 -0.133611
C7    C     C_R   0.520539 0.060380 0.370234 -0.037933
C8    C     C_R   0.517854 0.932252 0.373995 -0.186283
C9    C     C_R   0.491046 0.870035 0.498693 -0.155083
C10   C     C_R   0.450886 0.937711 0.614647 0.051942
C11   C     C_3   0.486175 0.934076 0.764568 0.239177
C12   C     C_R   0.262861 0.500730 0.500807 0.844241
C13   C     C_3   0.491632 0.074375 0.763478 -0.263051
C14   C     C_R   0.605641 0.530510 0.071527 0.250127
C15   C     C_R   0.402318 0.453355 0.078646 -0.091249
C16   C     C_R   0.401478 0.448662 0.931156 0.497750
C17   C     C_R   0.605909 0.530044 0.924911 0.196223
C18   C     C_3   0.681271 0.646511 0.919261 -0.458356
C19   C     C_3   0.679867 0.647862 0.077710 -0.435911
C20   C     C_R   0.498528 0.737282 0.500566 0.798824
C21   C     C_R   0.737158 0.499364 0.498761 0.780887
C22   C     C_R   0.066914 0.606163 0.476647 0.060786
C23   C     C_R   0.129705 0.498272 0.500366 -0.048896
C24   C     C_R   0.064010 0.385278 0.500152 -0.192943
C25   C     C_R   0.933520 0.383228 0.496553 -0.047542
C26   C     C_R   0.870611 0.495557 0.494197 -0.127053
Cu1   Cu    Cu3+1 0.499990 0.499980 0.640670 1.055007
Cu2   Cu    Cu3+1 0.500010 0.500020 0.359330 0.976478
H1    H     H_    0.113935 0.299980 0.505877 0.174576
H2    H     H_    0.577599 0.891333 0.779235 0.066235
H3    H     H_    0.419936 0.119290 0.830078 0.248767
H4    H     H_    0.323451 0.418857 0.139039 0.200861
H5    H     H_    0.775609 0.632636 0.872803 0.197132
H6    H     H_    0.628803 0.721941 0.874506 0.224340
H7    H     H_    0.773538 0.635337 0.122525 0.206333
H8    H     H_    0.626233 0.724807 0.123917 0.222824
H9    H     H_    0.884921 0.716943 0.655588 0.156486
H10   H     H_    0.118926 0.800072 0.489348 0.203934
H11   H     H_    0.110772 0.718138 0.659678 0.252047
H12   H     H_    0.543541 0.881486 0.280472 0.184742
N1    N     N_R   0.500790 0.500930 0.147930 -0.226347
N2    N     N_R   0.500790 0.500890 0.852020 -0.231502
O1    O     O_R   0.500000 0.319640 0.618810 -0.547181
O2    O     O_R   0.500010 0.319680 0.381230 -0.589433
O3    O     O_R   0.319650 0.499970 0.618810 -0.475316
O4    O     O_R   0.319660 0.500010 0.381230 -0.603506
O5    O     O_R   0.499990 0.680320 0.618770 -0.559808
O6    O     O_R   0.500000 0.680360 0.381190 -0.587769
O7    O     O_R   0.680340 0.499990 0.618770 -0.589898
O8    O     O_R   0.680350 0.500030 0.381190 -0.577071
C27   C     C_1   0.618453 0.125184 0.785589 0.282624
N3    N     N_1   0.717848 0.165281 0.803902 -0.225607
S1    S     S_3+6 0.263448 0.373874 0.866426 0.022725
O9    O     O_2   0.286427 0.294982 0.739973 -0.304114
O10   O     O_2   0.206875 0.291879 0.977019 -0.303908
O11   O     O_3   0.158997 0.481810 0.831398 -0.514705
H13   H     H_    0.079961 0.435624 0.813764 0.369671
C28   C     C_1   0.866750 0.266412 0.497314 0.285593
N4    N     N_1   0.813446 0.172648 0.497148 -0.262800
C29   C     C_1   0.878579 0.819957 0.463435 0.303236
N5    N     N_1   0.837388 0.894692 0.394152 -0.256854
C30   C     C_1   0.558579 0.116531 0.239937 0.375112
N6    N     N_1   0.589011 0.161238 0.135549 -0.256987
S2    S     S_3+6 0.362456 0.873796 0.873871 0.007248
O12   O     O_2   0.242314 0.935625 0.842815 -0.246872
O13   O     O_2   0.346517 0.737753 0.849224 -0.275818
O14   O     O_3   0.399230 0.900308 0.041198 -0.553298
H14   H     H_    0.334680 0.854595 0.096156 0.376807

loop_
_geom_bond_atom_site_label_1
_geom_bond_atom_site_label_2
_ccdc_geom_bond_type
C2    C22   A    
C23   C24   A    
C7    C30   S    
Cu1   N2    S    
C30   N6    T    
C12   O3    A    
Cu1   O1    S    
C4    C22   S    
C9    C10   A    
C1    O2    A    
C5    C13   S    
C12   C23   S    
C4    H11   S    
C21   C26   S    
S2    O12   D    
Cu1   O3    S    
C21   O7    A    
C17   C18   S    
C28   N4    T    
C5    C10   A    
C2    C26   A    
S2    O13   D    
C19   H7    S    
S1    O9    D    
C24   C25   A    
O14   H14   S    
C24   H1    S    
C11   C13   S    
C14   C17   A    
Cu2   O4    S    
C20   O6    A    
C29   N5    T    
C14   N1    A    
C15   C16   A    
C15   N1    A    
C21   O8    A    
C1    O1    A    
C2    C3    S    
C6    C7    A    
C19   H8    S    
C18   H6    S    
C5    C6    A    
C18   H5    S    
C20   O5    A    
C10   C11   S    
S1    O10   D    
Cu1   O7    S    
C1    C6    S    
S2    O14   S    
C16   N2    A    
Cu2   N1    S    
C7    C8    A    
C8    H12   S    
O11   H13   S    
C3    H9    S    
C12   O4    A    
C18   C19   S    
C25   C28   S    
S1    O11   S    
Cu1   O5    S    
Cu1   Cu2   S    
C13   H3    S    
C17   N2    A    
Cu2   O6    S    
C9    C20   S    
C11   S2    S    
C25   C26   A    
C13   C27   S    
C3    C29   S    
Cu2   O8    S    
C14   C19   S    
Cu2   O2    S    
C22   C23   A    
C3    C4    S    
C27   N3    T    
C11   H2    S    
C4    H10   S    
C8    C9    A    
C16   S1    S    
C15   H4    S    
