data_mof_unit_64328.cif
_audit_creation_date              2013-03-05T15:42:54-0500
_audit_creation_method            fapswitch 2.2
_symmetry_space_group_name_H-M    P1
_symmetry_Int_Tables_number       1
_space_group_crystal_system       triclinic
_cell_length_a                    21.729818
_cell_length_b                    21.721519
_cell_length_c                    55.629025
_cell_angle_alpha                 89.954843
_cell_angle_beta                  90.325392
_cell_angle_gamma                 90.013243
_cell_volume                      26256.7264656

loop_
_atom_site_label
_atom_site_type_symbol
_atom_site_description
_atom_site_fract_x
_atom_site_fract_y
_atom_site_fract_z
_atom_type_partial_charge
O1    O     O_R   0.499960 0.590510 0.020150 -0.590212
O2    O     O_R   0.409490 0.499960 0.020150 -0.596855
O3    O     O_R   0.500040 0.409490 0.020150 -0.625391
O4    O     O_R   0.590510 0.500040 0.020150 -0.625641
O5    O     O_R   0.999960 0.090510 0.520150 -0.623002
O6    O     O_R   0.909490 0.999960 0.520150 -0.623262
O7    O     O_R   0.000040 0.909490 0.520150 -0.623151
O8    O     O_R   0.090510 0.000040 0.520150 -0.623383
O9    O     O_R   0.499990 0.590510 0.979930 -0.604191
O10   O     O_R   0.409490 0.499990 0.979930 -0.598068
O11   O     O_R   0.500010 0.409490 0.979930 -0.568848
O12   O     O_R   0.590510 0.500010 0.979930 -0.568179
O13   O     O_R   0.999990 0.090510 0.479930 -0.570597
O14   O     O_R   0.909490 0.999990 0.479930 -0.570264
O15   O     O_R   0.000010 0.909490 0.479930 -0.570392
O16   O     O_R   0.090510 0.000010 0.479930 -0.570743
C1    C     C_R   0.503583 0.618936 0.000114 0.999157
C2    C     C_R   0.381110 0.503221 0.999881 0.999109
C3    C     C_R   0.496399 0.381062 0.000115 0.998910
C4    C     C_R   0.618940 0.496618 0.000178 0.996587
C5    C     C_R   0.003597 0.118937 0.500114 0.994815
C6    C     C_R   0.881062 0.003537 0.500055 0.994728
C7    C     C_R   0.996446 0.881063 0.500116 0.995157
C8    C     C_R   0.118935 0.996410 0.500173 0.994383
C9    C     C_R   0.500693 0.999867 0.123764 0.143523
C10   C     C_R   0.994612 0.501696 0.123808 0.143055
C11   C     C_R   0.000082 0.501162 0.623707 0.143829
C12   C     C_R   0.500213 0.999774 0.623763 0.143385
Zn1   Zn    Zn3+2 0.500000 0.500000 0.026890 1.076222
Zn2   Zn    Zn3+2 0.000000 1.000000 0.526890 1.059172
Zn3   Zn    Zn3+2 0.500000 0.500000 0.973180 1.101077
Zn4   Zn    Zn3+2 0.000000 0.000000 0.473180 1.120969
C13   C     C_2   0.784078 0.450209 0.988942 -0.171423
C14   C     C_2   0.548933 0.784371 0.988418 -0.150608
C15   C     C_2   0.216028 0.550091 0.010142 -0.173159
C16   C     C_2   0.450897 0.215674 0.988293 -0.154044
C17   C     C_2   0.284133 0.950916 0.488490 -0.154729
C18   C     C_2   0.048807 0.284388 0.488344 -0.158820
C19   C     C_2   0.715508 0.048965 0.488243 -0.153980
C20   C     C_2   0.950844 0.715688 0.488387 -0.160537
C21   C     C_2   0.815013 0.501136 0.995153 -0.340104
C22   C     C_2   0.498599 0.815101 0.995235 -0.349606
C23   C     C_2   0.185108 0.499035 0.004066 -0.300611
C24   C     C_2   0.501308 0.184921 0.995242 -0.346978
C25   C     C_2   0.314996 0.001314 0.495339 -0.345267
C26   C     C_2   0.998577 0.315092 0.495294 -0.345414
C27   C     C_2   0.684813 0.998633 0.495186 -0.348100
C28   C     C_2   0.001293 0.684931 0.495299 -0.344664
H1    H     H_    0.808418 0.407508 0.985345 0.226302
H2    H     H_    0.591329 0.808784 0.984403 0.227724
H3    H     H_    0.191748 0.592888 0.013631 0.218065
H4    H     H_    0.408453 0.191279 0.984166 0.227158
H5    H     H_    0.308461 0.908516 0.484384 0.226525
H6    H     H_    0.091120 0.308826 0.484221 0.227499
H7    H     H_    0.691105 0.091432 0.484182 0.227431
H8    H     H_    0.908366 0.691302 0.484307 0.228499
H9    H     H_    0.792007 0.545330 0.996750 0.184701
H10   H     H_    0.454565 0.791998 0.997223 0.181040
H11   H     H_    0.208039 0.454759 0.002649 0.180799
H12   H     H_    0.545367 0.208027 0.997329 0.182305
H13   H     H_    0.291919 0.045345 0.497413 0.182138
H14   H     H_    0.954578 0.291977 0.497373 0.183936
H15   H     H_    0.707868 0.954537 0.497209 0.182019
H16   H     H_    0.045369 0.708025 0.497347 0.184273
C29   C     C_2   0.716770 0.450749 0.986605 -0.033448
C30   C     C_2   0.547987 0.717160 0.985918 -0.049202
C31   C     C_2   0.283100 0.549162 0.013016 -0.045468
C32   C     C_2   0.451862 0.282893 0.985780 -0.038299
C33   C     C_2   0.216904 0.951854 0.486004 -0.037792
C34   C     C_2   0.047834 0.217177 0.485834 -0.037445
C35   C     C_2   0.782675 0.047916 0.485687 -0.038908
C36   C     C_2   0.951812 0.782895 0.485844 -0.038769
C37   C     C_2   0.684787 0.488906 0.001053 -0.361294
C38   C     C_2   0.511520 0.684788 0.000894 -0.374382
C39   C     C_2   0.315389 0.510757 0.998834 -0.375742
C40   C     C_2   0.488415 0.315208 0.000886 -0.362766
C41   C     C_2   0.184769 0.988292 0.501057 -0.365473
C42   C     C_2   0.011597 0.184786 0.500889 -0.366851
C43   C     C_2   0.815209 0.011326 0.500716 -0.364367
C44   C     C_2   0.988485 0.815219 0.500900 -0.365886
H17   H     H_    0.707852 0.513477 0.015532 0.164862
H18   H     H_    0.488645 0.707578 0.015758 0.180261
H19   H     H_    0.292749 0.486317 0.984214 0.178486
H20   H     H_    0.511340 0.292352 0.015838 0.165064
H21   H     H_    0.207776 0.011118 0.515985 0.165397
H22   H     H_    0.988966 0.207569 0.515811 0.167861
H23   H     H_    0.792572 0.988378 0.515615 0.165420
H24   H     H_    0.011489 0.792386 0.515840 0.167870
O17   O     O_R   0.999980 0.448970 0.964420 -0.569085
O18   O     O_R   0.551030 0.999980 0.964420 -0.591807
O19   O     O_R   0.000020 0.551030 0.964420 -0.625756
O20   O     O_R   0.448970 0.000020 0.964420 -0.592643
O21   O     O_R   0.499980 0.948970 0.464420 -0.592202
O22   O     O_R   0.051030 0.499980 0.464420 -0.591746
O23   O     O_R   0.500020 0.051030 0.464420 -0.592683
O24   O     O_R   0.948970 0.500020 0.464420 -0.593002
C45   C     C_R   0.999105 0.500017 0.952997 0.900252
C46   C     C_R   0.499840 0.000001 0.953016 0.878582
C47   C     C_R   0.499936 0.000021 0.453014 0.879479
C48   C     C_R   0.999829 0.500016 0.453017 0.879383
O25   O     O_R   0.909490 0.448990 0.000040 -0.598368
O26   O     O_R   0.551010 0.909490 0.000040 -0.595491
O27   O     O_R   0.090510 0.551010 0.000040 -0.622316
O28   O     O_R   0.448990 0.090510 0.000040 -0.595236
O29   O     O_R   0.409490 0.948990 0.500040 -0.595611
O30   O     O_R   0.051010 0.409490 0.500040 -0.594436
O31   O     O_R   0.590510 0.051010 0.500040 -0.595135
O32   O     O_R   0.948990 0.590510 0.500040 -0.593776
O33   O     O_R   0.909510 0.551130 0.000040 -0.598292
O34   O     O_R   0.448870 0.909510 0.000040 -0.603353
O35   O     O_R   0.090490 0.448870 0.000040 -0.589942
O36   O     O_R   0.551130 0.090490 0.000040 -0.603434
O37   O     O_R   0.409510 0.051130 0.500040 -0.603486
O38   O     O_R   0.948870 0.409510 0.500040 -0.604024
O39   O     O_R   0.590490 0.948870 0.500040 -0.603542
O40   O     O_R   0.051130 0.590490 0.500040 -0.603937
C49   C     C_R   0.880802 0.500158 0.998717 1.005300
C50   C     C_R   0.499791 0.880816 0.998799 1.009586
C51   C     C_R   0.119264 0.499868 0.000923 1.017657
C52   C     C_R   0.500179 0.119190 0.998801 1.008765
C53   C     C_R   0.380786 0.000184 0.498819 1.009948
C54   C     C_R   0.999788 0.380807 0.498840 1.007381
C55   C     C_R   0.619171 0.999816 0.498795 1.008323
C56   C     C_R   0.000178 0.619199 0.498841 1.010249
Zn5   Zn    Zn3+2 0.999950 0.431840 0.000040 1.135972
Zn6   Zn    Zn3+2 0.568160 0.999950 0.000040 1.122256
Zn7   Zn    Zn3+2 0.000050 0.568160 0.000040 1.104602
Zn8   Zn    Zn3+2 0.431840 0.000050 0.000040 1.122325
Zn9   Zn    Zn3+2 0.499950 0.931840 0.500040 1.121722
Zn10  Zn    Zn3+2 0.068160 0.499950 0.500040 1.120822
Zn11  Zn    Zn3+2 0.500050 0.068160 0.500040 1.121352
Zn12  Zn    Zn3+2 0.931840 0.500050 0.500040 1.120919
O41   O     O_R   0.999930 0.448970 0.035660 -0.579074
O42   O     O_R   0.551030 0.999930 0.035660 -0.578055
O43   O     O_R   0.000070 0.551030 0.035660 -0.580557
O44   O     O_R   0.448970 0.000070 0.035660 -0.577657
O45   O     O_R   0.499930 0.948970 0.535660 -0.578107
O46   O     O_R   0.051030 0.499930 0.535660 -0.578513
O47   O     O_R   0.500070 0.051030 0.535660 -0.578017
O48   O     O_R   0.948970 0.500070 0.535660 -0.578604
C57   C     C_R   0.999856 0.499963 0.047118 1.059404
C58   C     C_R   0.500160 0.999971 0.047095 1.069142
C59   C     C_R   0.499990 0.999978 0.547097 1.069789
C60   C     C_R   0.000161 0.500063 0.547081 1.071272
C61   C     C_R   0.974332 0.556031 0.762286 -0.017233
C62   C     C_R   0.445320 0.983360 0.762451 -0.017310
C63   C     C_R   0.018663 0.451167 0.762827 -0.017466
C64   C     C_R   0.554190 0.016588 0.762753 -0.017317
C65   C     C_R   0.483085 0.054400 0.262528 -0.017325
C66   C     C_R   0.939947 0.487787 0.262681 -0.017208
C67   C     C_R   0.515869 0.945374 0.262674 -0.017305
C68   C     C_R   0.048803 0.521052 0.262560 -0.017445
C69   C     C_R   0.996139 0.503773 0.775207 0.071911
C70   C     C_R   0.499685 0.000023 0.775253 0.070834
C71   C     C_R   0.499374 0.999886 0.275252 0.070708
C72   C     C_R   0.994742 0.504111 0.275271 0.070710
C73   C     C_R   0.962207 0.611480 0.775157 -0.067348
C74   C     C_R   0.389042 0.977563 0.775347 -0.067115
C75   C     C_R   0.029999 0.396057 0.776101 -0.067759
C76   C     C_R   0.610324 0.022490 0.775980 -0.067189
C77   C     C_R   0.477338 0.110643 0.275555 -0.066918
C78   C     C_R   0.884124 0.481638 0.275845 -0.067280
C79   C     C_R   0.521382 0.889126 0.275770 -0.067030
C80   C     C_R   0.105388 0.526625 0.275514 -0.066683
C81   C     C_R   0.961680 0.610562 0.800304 -0.147613
C82   C     C_R   0.390133 0.977847 0.800491 -0.149885
C83   C     C_R   0.029193 0.397671 0.801232 -0.148568
C84   C     C_R   0.608962 0.022377 0.801117 -0.149899
C85   C     C_R   0.477348 0.109414 0.300696 -0.150302
C86   C     C_R   0.886092 0.481163 0.300986 -0.150268
C87   C     C_R   0.521025 0.890357 0.300910 -0.150281
C88   C     C_R   0.104910 0.525721 0.300653 -0.150252
C89   C     C_R   0.977333 0.557365 0.813087 -0.052587
C90   C     C_R   0.444812 0.988161 0.813203 -0.048213
C91   C     C_R   0.012927 0.451236 0.813552 -0.049837
C92   C     C_R   0.554153 0.012123 0.813514 -0.048130
C93   C     C_R   0.487360 0.054623 0.313301 -0.048285
C94   C     C_R   0.941220 0.491051 0.313454 -0.048308
C95   C     C_R   0.510905 0.945164 0.313414 -0.047905
C96   C     C_R   0.050559 0.515015 0.313292 -0.047861
C97   C     C_R   0.995448 0.504122 0.800595 -0.043314
C98   C     C_R   0.499549 0.000107 0.800637 -0.042039
C99   C     C_R   0.499202 0.999889 0.300636 -0.042040
C100  C     C_R   0.995502 0.503408 0.300653 -0.042114
C101  C     C_R   0.977527 0.556862 0.838300 0.612814
C102  C     C_R   0.445603 0.988975 0.838403 0.615689
C103  C     C_R   0.011610 0.452462 0.838738 0.604873
C104  C     C_R   0.553114 0.011380 0.838708 0.615055
C105  C     C_R   0.488061 0.053728 0.338501 0.615220
C106  C     C_R   0.942910 0.491078 0.338652 0.615223
C107  C     C_R   0.510069 0.946107 0.338608 0.615309
C108  C     C_R   0.050421 0.513466 0.338483 0.615436
N1    N     N_R   0.994265 0.504814 0.850502 -0.344906
N2    N     N_R   0.499305 0.000170 0.850533 -0.339951
N3    N     N_R   0.499077 0.999938 0.350532 -0.339838
N4    N     N_R   0.997036 0.501919 0.350544 -0.339903
H25   H     H_    0.951767 0.652717 0.809961 0.225500
H26   H     H_    0.347275 0.972755 0.810179 0.225370
H27   H     H_    0.038577 0.355781 0.811211 0.225428
H28   H     H_    0.651716 0.027530 0.811057 0.225310
H29   H     H_    0.472325 0.152254 0.310480 0.225189
H30   H     H_    0.843579 0.475789 0.310879 0.225312
H31   H     H_    0.525917 0.847521 0.310755 0.225218
H32   H     H_    0.148006 0.530600 0.310386 0.225081
O49   O     O_2   0.960851 0.607702 0.850579 -0.498851
O50   O     O_2   0.393388 0.978262 0.850751 -0.507559
O51   O     O_2   0.027863 0.401989 0.851440 -0.505385
O52   O     O_2   0.605208 0.022134 0.851353 -0.508018
O53   O     O_2   0.477482 0.105946 0.350946 -0.508242
O54   O     O_2   0.891137 0.480002 0.351231 -0.508195
O55   O     O_2   0.520581 0.893912 0.351155 -0.508452
O56   O     O_2   0.102957 0.523829 0.350896 -0.508402
C109  C     C_R   0.473418 0.049789 0.237348 0.066289
C110  C     C_R   0.943932 0.478299 0.237502 0.066662
C111  C     C_R   0.526011 0.950003 0.237564 0.066453
C112  C     C_R   0.043462 0.531365 0.237452 0.066138
C113  C     C_R   0.965793 0.550069 0.737081 0.066246
C114  C     C_R   0.450114 0.973364 0.737330 0.066429
C115  C     C_R   0.028684 0.456433 0.737727 0.066342
C116  C     C_R   0.549673 0.026378 0.737584 0.066403
C117  C     C_R   0.499844 0.999906 0.224850 0.092043
C118  C     C_R   0.993452 0.504900 0.224871 0.092046
C119  C     C_R   0.997598 0.503062 0.724797 0.092078
C120  C     C_R   0.499961 0.999822 0.724851 0.092124
C121  C     C_R   0.562955 0.907944 0.224823 -0.143291
C122  C     C_R   0.085026 0.568572 0.224567 -0.143630
C123  C     C_R   0.436721 0.091856 0.224315 -0.143205
C124  C     C_R   0.901714 0.441437 0.224616 -0.142877
C125  C     C_R   0.070076 0.418287 0.725200 -0.143447
C126  C     C_R   0.591657 0.063332 0.724790 -0.143339
C127  C     C_R   0.925152 0.587837 0.723814 -0.143199
C128  C     C_R   0.408271 0.936303 0.724351 -0.143267
C129  C     C_R   0.566639 0.910326 0.199857 -0.099673
C130  C     C_R   0.082320 0.571932 0.199589 -0.098958
C131  C     C_R   0.433546 0.089515 0.199324 -0.099326
C132  C     C_R   0.903786 0.437919 0.199637 -0.100085
C133  C     C_R   0.073820 0.420506 0.700235 -0.099428
C134  C     C_R   0.589403 0.066674 0.699802 -0.099491
C135  C     C_R   0.922764 0.584795 0.698821 -0.099505
C136  C     C_R   0.410775 0.932788 0.699383 -0.099498
C137  C     C_R   0.533644 0.954948 0.186944 -0.038040
C138  C     C_R   0.037859 0.538335 0.186824 -0.037795
C139  C     C_R   0.466810 0.044920 0.186677 -0.038104
C140  C     C_R   0.948229 0.471021 0.186841 -0.038102
C141  C     C_R   0.036504 0.461141 0.687105 -0.038242
C142  C     C_R   0.544987 0.033318 0.686916 -0.037988
C143  C     C_R   0.960727 0.543699 0.686395 -0.038212
C144  C     C_R   0.455302 0.966079 0.686707 -0.037983
C145  C     C_R   0.500102 0.999926 0.199467 -0.052403
C146  C     C_R   0.993124 0.504818 0.199488 -0.052390
C147  C     C_R   0.998287 0.502644 0.699410 -0.052277
C148  C     C_R   0.500087 0.999735 0.699468 -0.052389
C149  C     C_R   0.466740 0.043379 0.161498 0.547618
C150  C     C_R   0.949929 0.470047 0.161663 0.548224
C151  C     C_R   0.534183 0.956502 0.161766 0.547610
C152  C     C_R   0.036440 0.537981 0.161649 0.547037
C153  C     C_R   0.961273 0.541717 0.661218 0.547747
C154  C     C_R   0.456941 0.965737 0.661533 0.547600
C155  C     C_R   0.037196 0.462171 0.661920 0.547870
C156  C     C_R   0.543520 0.033585 0.661732 0.547723
N5    N     N_R   0.500567 0.999938 0.149562 -0.334542
N6    N     N_R   0.993452 0.503454 0.149589 -0.334581
N7    N     N_R   0.999520 0.501704 0.649502 -0.334667
N8    N     N_R   0.500251 0.999669 0.649562 -0.334481
H33   H     H_    0.590482 0.873753 0.234028 0.156324
H34   H     H_    0.119184 0.596381 0.233663 0.156382
H35   H     H_    0.408998 0.126023 0.233299 0.156467
H36   H     H_    0.867757 0.413680 0.233713 0.156358
H37   H     H_    0.100946 0.387393 0.734571 0.156127
H38   H     H_    0.625680 0.091136 0.733964 0.156304
H39   H     H_    0.893778 0.619021 0.732611 0.156183
H40   H     H_    0.374157 0.908566 0.733369 0.156360
H41   H     H_    0.594763 0.876572 0.190729 0.200178
H42   H     H_    0.115830 0.600106 0.190335 0.200208
H43   H     H_    0.405596 0.123273 0.189973 0.200403
H44   H     H_    0.870056 0.409668 0.190410 0.200258
H45   H     H_    0.105462 0.389704 0.691279 0.200140
H46   H     H_    0.623085 0.094835 0.690639 0.200218
H47   H     H_    0.891615 0.615289 0.689295 0.200214
H48   H     H_    0.377179 0.904571 0.690066 0.200222
O57   O     O_2   0.432850 0.084683 0.149032 -0.521423
O58   O     O_2   0.908838 0.435551 0.149349 -0.521988
O59   O     O_2   0.568286 0.915195 0.149567 -0.521651
O60   O     O_2   0.077579 0.571963 0.149298 -0.521212
O61   O     O_2   0.923626 0.579171 0.648536 -0.521346
O62   O     O_2   0.415835 0.931517 0.649107 -0.521745
O63   O     O_2   0.075437 0.424249 0.649926 -0.521367
O64   O     O_2   0.584718 0.067759 0.649495 -0.521803
C157  C     C_R   0.944152 0.479627 0.888848 -0.046274
C158  C     C_R   0.517155 0.946381 0.888835 -0.048173
C159  C     C_R   0.045532 0.529526 0.888721 -0.046119
C160  C     C_R   0.481349 0.053699 0.888777 -0.048194
C161  C     C_R   0.445671 0.982252 0.388764 -0.048183
C162  C     C_R   0.016053 0.447504 0.388640 -0.048169
C163  C     C_R   0.553050 0.017818 0.388849 -0.048368
C164  C     C_R   0.980379 0.554861 0.388987 -0.048325
C165  C     C_R   0.945611 0.477911 0.914201 -0.123855
C166  C     C_R   0.516532 0.946064 0.914183 -0.117457
C167  C     C_R   0.047713 0.526593 0.914026 -0.113458
C168  C     C_R   0.482238 0.053932 0.914129 -0.117736
C169  C     C_R   0.445614 0.983024 0.414114 -0.117922
C170  C     C_R   0.016064 0.446764 0.413995 -0.118590
C171  C     C_R   0.553534 0.017097 0.414198 -0.117902
C172  C     C_R   0.981915 0.554674 0.414329 -0.117306
C173  C     C_R   0.998006 0.500210 0.926641 -0.168601
C174  C     C_R   0.499485 0.999987 0.926701 -0.177276
C175  C     C_R   0.499692 0.000057 0.426700 -0.177457
C176  C     C_R   0.999362 0.500499 0.426705 -0.177464
C177  C     C_R   0.994311 0.505200 0.876304 0.148570
C178  C     C_R   0.499227 0.000072 0.876320 0.141622
C179  C     C_R   0.499260 0.000012 0.376320 0.141707
C180  C     C_R   0.997801 0.501403 0.376329 0.141683
C181  C     C_R   0.479551 0.948333 0.111184 -0.144754
C182  C     C_R   0.046867 0.480143 0.111995 -0.143120
C183  C     C_R   0.521829 0.051374 0.111227 -0.144213
C184  C     C_R   0.943740 0.521788 0.110524 -0.143973
C185  C     C_R   0.983886 0.447683 0.611237 -0.144103
C186  C     C_R   0.551791 0.978956 0.611292 -0.144329
C187  C     C_R   0.016648 0.554173 0.611055 -0.143636
C188  C     C_R   0.448572 0.020679 0.611113 -0.144555
H49   H     H_    0.463279 0.908837 0.121180 0.209136
H50   H     H_    0.085850 0.464724 0.122594 0.209186
H51   H     H_    0.538117 0.090885 0.121258 0.209255
H52   H     H_    0.903542 0.538170 0.119972 0.210209
H53   H     H_    0.971099 0.407034 0.621310 0.208699
H54   H     H_    0.591387 0.962838 0.621371 0.209339
H55   H     H_    0.029152 0.595174 0.620993 0.208744
H56   H     H_    0.409023 0.036703 0.621058 0.209322
C189  C     C_R   0.479988 0.947305 0.086089 0.366959
C190  C     C_R   0.049529 0.479603 0.086926 0.362461
C191  C     C_R   0.521213 0.052414 0.086128 0.367131
C192  C     C_R   0.944325 0.520319 0.085426 0.368752
C193  C     C_R   0.984566 0.446376 0.586140 0.367133
C194  C     C_R   0.552741 0.979565 0.586196 0.366856
C195  C     C_R   0.016385 0.554673 0.585951 0.367309
C196  C     C_R   0.447465 0.020217 0.586015 0.367183
C197  C     C_R   0.500511 0.999879 0.073388 -0.316995
C198  C     C_R   0.997916 0.499884 0.073430 -0.313474
C199  C     C_R   0.000498 0.500339 0.573351 -0.315227
C200  C     C_R   0.500064 0.999925 0.573388 -0.317036
C201  C     C_2   0.890030 0.458135 0.927624 0.944179
O65   O     O_2   0.893021 0.415715 0.942032 -0.572329
O66   O     O_R   0.833962 0.487834 0.923348 -0.765626
H57   H     H_    0.799447 0.470818 0.933565 0.379240
C202  C     C_2   0.530002 0.888151 0.927498 0.950622
O67   O     O_2   0.570641 0.886871 0.942770 -0.583520
O68   O     O_R   0.496572 0.834840 0.922170 -0.761897
H58   H     H_    0.509694 0.798421 0.932386 0.374101
C203  C     C_2   0.103367 0.547242 0.927412 0.939488
O69   O     O_2   0.120325 0.600801 0.926190 -0.540073
O70   O     O_R   0.135396 0.505347 0.941883 -0.802756
H59   H     H_    0.172385 0.524642 0.950125 0.340910
C204  C     C_2   0.468943 0.111806 0.927402 0.950630
O71   O     O_2   0.428564 0.113015 0.942600 -0.583703
O72   O     O_R   0.502260 0.165151 0.922131 -0.761769
H60   H     H_    0.489303 0.201528 0.932321 0.375305
C205  C     C_2   0.387821 0.969760 0.427366 0.950343
O73   O     O_2   0.386640 0.929330 0.442649 -0.584162
O74   O     O_R   0.334511 0.003160 0.421973 -0.761383
H61   H     H_    0.298190 0.990191 0.432154 0.375374
C206  C     C_2   0.029721 0.388610 0.427127 0.951114
O75   O     O_2   0.070328 0.387148 0.442410 -0.583726
O76   O     O_R   0.996435 0.335308 0.421643 -0.761343
H62   H     H_    0.009639 0.298737 0.431760 0.375874
C207  C     C_2   0.611532 0.030417 0.427541 0.950928
O77   O     O_2   0.612984 0.071009 0.442736 -0.583856
O78   O     O_R   0.664715 0.996891 0.422334 -0.761481
H63   H     H_    0.701207 0.009896 0.432566 0.375293
C208  C     C_2   0.968963 0.612334 0.427786 0.950468
O79   O     O_2   0.928566 0.613461 0.442976 -0.583731
O80   O     O_R   0.002560 0.665600 0.422668 -0.761557
H64   H     H_    0.989790 0.701853 0.432962 0.375091
S1    S     S_3+6 0.457872 0.878563 0.071211 0.048053
O81   O     O_2   0.442732 0.829070 0.089147 -0.266650
O82   O     O_2   0.402418 0.890452 0.055632 -0.265311
O83   O     O_3   0.516469 0.854775 0.053951 -0.566365
H65   H     H_    0.504949 0.812655 0.048804 0.379298
S2    S     S_3+6 0.119688 0.458083 0.073210 0.048129
O84   O     O_2   0.165272 0.436554 0.091850 -0.271976
O85   O     O_2   0.109103 0.407238 0.055370 -0.262326
O86   O     O_3   0.148180 0.519956 0.058943 -0.558330
H66   H     H_    0.193428 0.514633 0.059491 0.406777
S3    S     S_3+6 0.543195 0.121165 0.071285 0.047762
O87   O     O_2   0.558804 0.170546 0.089245 -0.265721
O88   O     O_2   0.598312 0.109213 0.055784 -0.265367
O89   O     O_3   0.484308 0.145160 0.053944 -0.566564
H67   H     H_    0.495834 0.187263 0.048804 0.378094
S4    S     S_3+6 0.876138 0.540715 0.069698 0.046209
O90   O     O_2   0.825857 0.557125 0.087016 -0.269448
O91   O     O_2   0.888212 0.594843 0.053567 -0.264460
O92   O     O_3   0.853453 0.480310 0.052987 -0.565279
H68   H     H_    0.810519 0.489793 0.048192 0.379099
S5    S     S_3+6 0.967920 0.376093 0.571299 0.044835
O93   O     O_2   0.955864 0.325770 0.589244 -0.264827
O94   O     O_2   0.912208 0.383948 0.555469 -0.273498
O95   O     O_3   0.028529 0.356476 0.554295 -0.561016
H69   H     H_    0.019484 0.314147 0.548681 0.378397
S6    S     S_3+6 0.621474 0.957830 0.571440 0.047763
O96   O     O_2   0.671114 0.942873 0.589461 -0.265231
O97   O     O_2   0.609723 0.902343 0.555967 -0.265934
O98   O     O_3   0.644904 0.016600 0.554076 -0.566539
H70   H     H_    0.686860 0.005082 0.548860 0.377990
S7    S     S_3+6 0.033030 0.624575 0.570867 0.044130
O99   O     O_2   0.046197 0.675081 0.588640 -0.266045
O100  O     O_2   0.088039 0.616077 0.554966 -0.273606
O101  O     O_3   0.971865 0.644387 0.553921 -0.561096
H71   H     H_    0.980589 0.686884 0.548439 0.378592
S8    S     S_3+6 0.378565 0.041852 0.571037 0.046981
O102  O     O_2   0.329250 0.057310 0.588901 -0.266151
O103  O     O_2   0.390177 0.096979 0.555372 -0.265873
O104  O     O_3   0.354729 0.982753 0.553860 -0.566756
H72   H     H_    0.312407 0.993869 0.548773 0.378233
C209  C     C_2   0.688126 0.404870 0.970081 0.955168
O105  O     O_2   0.636413 0.384944 0.973777 -0.625073
O106  O     O_R   0.722109 0.382204 0.950742 -0.777840
H73   H     H_    0.698482 0.350670 0.940930 0.370381
C210  C     C_2   0.591555 0.689088 0.968518 0.957779
O107  O     O_2   0.613099 0.637852 0.972032 -0.620563
O108  O     O_R   0.610197 0.723143 0.948498 -0.769259
H74   H     H_    0.640511 0.699960 0.938085 0.369703
C211  C     C_2   0.311172 0.594465 0.029905 0.962956
O109  O     O_2   0.362876 0.614765 0.026503 -0.625130
O110  O     O_R   0.276687 0.616032 0.049301 -0.771693
H75   H     H_    0.299947 0.647265 0.059391 0.370861
C212  C     C_2   0.408255 0.311025 0.968200 0.957118
O111  O     O_2   0.386818 0.362301 0.971596 -0.627944
O112  O     O_R   0.389457 0.276988 0.948135 -0.768918
H76   H     H_    0.359135 0.300216 0.937593 0.368792
C213  C     C_2   0.188557 0.908377 0.468476 0.957463
O113  O     O_2   0.137452 0.886680 0.471953 -0.622758
O114  O     O_R   0.222211 0.890001 0.448369 -0.768900
H77   H     H_    0.198869 0.859727 0.437869 0.369512
C214  C     C_2   0.091142 0.189128 0.468332 0.957827
O115  O     O_2   0.112839 0.137942 0.471815 -0.622807
O116  O     O_R   0.109379 0.223156 0.448247 -0.769190
H78   H     H_    0.139550 0.199993 0.437765 0.369431
C215  C     C_2   0.810539 0.091565 0.468201 0.956249
O117  O     O_2   0.861919 0.112897 0.471615 -0.622612
O118  O     O_R   0.776141 0.110521 0.448207 -0.768386
H79   H     H_    0.799213 0.140853 0.437727 0.369673
C216  C     C_2   0.908095 0.811011 0.468300 0.957327
O119  O     O_2   0.886754 0.862331 0.471688 -0.623133
O120  O     O_R   0.889091 0.776913 0.448280 -0.767904
H80   H     H_    0.858715 0.800137 0.437760 0.369676
C217  C     C_2   0.959793 0.672979 0.763477 0.911835
O121  O     O_2   0.925434 0.712805 0.771236 -0.582588
O122  O     O_R   0.998505 0.686095 0.744132 -0.771239
H81   H     H_    0.992885 0.729538 0.737818 0.365205
C218  C     C_2   0.327555 0.981124 0.763609 0.911636
O123  O     O_2   0.284437 0.951386 0.771597 -0.581894
O124  O     O_R   0.318402 0.020253 0.743930 -0.771629
H82   H     H_    0.274576 0.018935 0.737604 0.365198
C219  C     C_2   0.032954 0.334242 0.764744 0.911554
O125  O     O_2   0.066773 0.294563 0.773138 -0.582866
O126  O     O_R   0.995344 0.320682 0.744956 -0.771351
H83   H     H_    0.001234 0.277063 0.738921 0.365166
C220  C     C_2   0.671939 0.018848 0.764625 0.911930
O127  O     O_2   0.714961 0.048665 0.772820 -0.582033
O128  O     O_R   0.681317 0.979557 0.745077 -0.771347
H84   H     H_    0.725210 0.980833 0.739017 0.365353
C221  C     C_2   0.481261 0.172209 0.264007 0.911423
O129  O     O_2   0.451561 0.215379 0.271977 -0.582048
O130  O     O_R   0.520683 0.181369 0.244537 -0.771859
H85   H     H_    0.519598 0.225250 0.238329 0.365163
C222  C     C_2   0.822252 0.485556 0.264438 0.911584
O131  O     O_2   0.779343 0.455760 0.272563 -0.582118
O132  O     O_R   0.812521 0.525072 0.244919 -0.771928
H86   H     H_    0.768483 0.523972 0.238818 0.365116
C223  C     C_2   0.517606 0.827568 0.264228 0.911471
O133  O     O_2   0.547102 0.784359 0.272439 -0.582276
O134  O     O_R   0.478548 0.818462 0.244476 -0.771810
H87   H     H_    0.479700 0.774583 0.238300 0.365115
C224  C     C_2   0.166609 0.523398 0.263825 0.911297
O135  O     O_2   0.209824 0.553166 0.271890 -0.582271
O136  O     O_R   0.175422 0.484534 0.244106 -0.771678
H88   H     H_    0.219096 0.486062 0.237820 0.365181
C225  C     C_2   0.891116 0.453285 0.875209 0.989955
O137  O     O_2   0.868413 0.404332 0.881459 -0.559751
O138  O     O_R   0.867338 0.484214 0.855163 -0.781473
H89   H     H_    0.831755 0.461423 0.847360 0.360883
C226  C     C_2   0.538124 0.891302 0.875191 0.989499
O139  O     O_2   0.584296 0.863485 0.881634 -0.560199
O140  O     O_R   0.505355 0.871412 0.854942 -0.782005
H90   H     H_    0.524506 0.833883 0.847164 0.360763
C227  C     C_2   0.097796 0.554877 0.874777 0.940074
O141  O     O_2   0.113792 0.608339 0.877622 -0.527253
O142  O     O_R   0.127608 0.517888 0.857915 -0.779468
H91   H     H_    0.161814 0.540488 0.849282 0.359209
C228  C     C_2   0.460243 0.108824 0.875067 0.989948
O143  O     O_2   0.414137 0.136620 0.881375 -0.560591
O144  O     O_R   0.492806 0.128788 0.854910 -0.782448
H92   H     H_    0.473576 0.166347 0.847075 0.360607
C229  C     C_2   0.390419 0.961333 0.375040 0.989984
O145  O     O_2   0.362522 0.915266 0.381413 -0.560623
O146  O     O_R   0.370458 0.994025 0.354795 -0.782125
H93   H     H_    0.332808 0.974918 0.346960 0.360685
C230  C     C_2   0.036657 0.392658 0.374772 0.990351
O147  O     O_2   0.082936 0.364678 0.380982 -0.560775
O148  O     O_R   0.003428 0.373175 0.354576 -0.782193
H94   H     H_    0.022365 0.335770 0.346629 0.360664
C231  C     C_2   0.608084 0.038707 0.375215 0.989311
O149  O     O_2   0.636039 0.084829 0.381584 -0.560532
O150  O     O_R   0.627783 0.005917 0.355063 -0.782554
H95   H     H_    0.665302 0.025013 0.347283 0.360602
C232  C     C_2   0.959019 0.610257 0.375503 0.988687
O151  O     O_2   0.913088 0.637979 0.382048 -0.560499
O152  O     O_R   0.991151 0.630569 0.355294 -0.782407
H96   H     H_    0.971784 0.668287 0.347630 0.360619

loop_
_geom_bond_atom_site_label_1
_geom_bond_atom_site_label_2
_geom_bond_distance
_ccdc_geom_bond_type
O128  H84   1.013779 S    
C205  O73   1.222217 D    
C17   C33   1.466783 S    
C212  O111  1.222613 D    
O146  H93   1.013740 S    
C14   C22   1.338319 D    
C156  N8    1.370532 A    
C22   H10   1.086518 S    
C43   H23   1.086830 S    
O15   Zn4   2.001262 S    
O17   Zn5   2.015849 S    
C215  O117  1.222627 D    
C92   C98   1.406984 A    
C10   C182  1.396264 A    
C11   C187  1.397223 A    
C86   C94   1.397466 A    
O2    Zn1   2.000093 S    
C12   C188  1.396911 A    
S7    O100  1.502576 D    
C193  S5    1.772408 S    
C152  N6    1.370565 A    
C194  S6    1.772647 S    
O23   C47   1.277252 A    
C119  C147  1.412471 A    
C170  C176  1.413663 A    
C131  H43   1.083158 S    
O30   Zn10  1.999869 S    
C64   C76   1.426761 A    
C85   C93   1.397337 A    
C124  H36   1.080579 S    
C163  C231  1.490204 S    
C125  H37   1.080622 S    
O33   Zn7   2.001810 S    
C68   C72   1.422752 A    
C48   C176  1.463746 S    
C218  O124  1.398771 S    
C95   C107  1.401910 A    
O35   Zn5   2.001810 S    
C47   C175  1.463823 S    
C67   C71   1.422828 A    
C84   H28   1.084245 S    
C213  O114  1.398325 S    
C209  O106  1.398248 S    
C140  C150  1.401489 A    
C103  N1    1.366628 A    
C79   C223  1.485800 S    
O34   C50   1.272329 A    
O32   C56   1.276909 A    
C111  C117  1.411760 A    
C37   H17   1.086629 S    
C204  O72   1.397964 S    
C149  O57   1.349705 S    
C92   C104  1.401891 A    
C82   C90   1.397342 A    
C189  S1    1.772738 S    
O130  H85   1.013779 S    
C137  C145  1.406484 A    
S1    O83   1.680828 S    
O36   C52   1.272214 A    
C187  C195  1.396502 A    
C126  H38   1.080607 S    
C25   C53   1.441788 S    
C223  O133  1.223355 D    
C112  C122  1.410224 A    
C132  H44   1.083164 S    
O112  H76   1.013873 S    
C133  H45   1.083182 S    
C82   H26   1.084244 S    
C195  S7    1.772446 S    
C61   C73   1.427024 A    
C161  C229  1.490176 S    
O72   H60   1.013726 S    
C62   C70   1.422810 A    
O12   C4    1.283663 A    
O1    Zn1   2.001155 S    
O18   Zn6   2.014081 S    
O13   C5    1.283808 A    
C131  C139  1.401044 A    
C169  C205  1.487788 S    
C84   C92   1.397350 A    
O6    Zn2   2.000094 S    
C26   H14   1.086513 S    
C144  C148  1.406446 A    
C229  O146  1.397898 S    
C15   H3    1.087156 S    
O86   H66   0.990330 S    
C16   C24   1.338199 D    
C117  C145  1.412074 A    
C17   C25   1.338193 D    
S3    O87   1.503790 D    
Zn10  O46   2.018247 S    
O136  H88   1.013783 S    
C19   C27   1.338384 D    
C149  N5    1.370544 A    
C20   C28   1.338298 D    
O32   Zn12  1.999869 S    
C11   C185  1.397397 A    
C153  N7    1.370522 A    
O114  H77   1.013879 S    
C154  N8    1.370551 A    
Zn7   O43   2.015854 S    
O29   Zn9   2.000750 S    
C16   C32   1.466814 S    
C44   H24   1.086880 S    
C165  C201  1.486726 S    
S5    O93   1.503728 D    
C155  N7    1.370334 A    
C139  C149  1.401113 A    
C157  C165  1.410974 A    
S1    O82   1.502553 D    
C106  O54   1.349755 S    
O25   C49   1.276330 A    
C225  O138  1.397968 S    
C207  O77   1.222185 D    
C164  C232  1.490268 S    
C123  H35   1.080610 S    
O10   C2    1.274741 A    
C167  C203  1.486020 S    
C75   C83   1.398684 A    
C4    C37   1.441197 S    
C188  H56   1.082402 S    
C65   C71   1.422851 A    
C217  O121  1.223381 D    
C63   C69   1.423008 A    
C65   C109  1.418843 A    
C86   H30   1.084235 S    
C28   H16   1.086533 S    
O4    C4    1.276526 A    
C8    C41   1.441963 S    
Zn9   O45   2.016435 S    
C184  H52   1.082361 S    
C29   C209  1.490029 S    
C151  O59   1.349694 S    
O74   H61   1.013770 S    
C19   C35   1.467425 S    
C26   C54   1.441365 S    
C105  O53   1.349772 S    
C230  O148  1.397896 S    
S2    O84   1.504263 D    
C96   C100  1.407044 A    
O34   Zn8   2.001266 S    
C113  C119  1.412070 A    
C211  O109  1.222542 D    
S7    O99   1.503757 D    
O13   Zn4   2.001842 S    
C33   C41   1.350261 D    
O108  H74   1.013875 S    
O106  H73   1.013896 S    
C39   H19   1.086868 S    
C14   C30   1.466781 S    
C61   C113  1.419357 A    
C35   C43   1.350176 D    
O98   H70   0.990543 S    
C213  O113  1.222649 D    
C68   C112  1.418513 A    
C89   C101  1.402563 A    
O22   Zn10  2.014081 S    
C71   C99   1.412125 A    
C193  C199  1.414665 A    
C30   C38   1.350092 D    
C170  C206  1.487824 S    
C186  H54   1.082406 S    
O35   C51   1.272745 A    
O3    Zn1   2.001739 S    
C108  O56   1.349795 S    
C58   C197  1.462619 S    
O47   C59   1.278046 A    
C182  H50   1.082384 S    
C151  N5    1.370510 A    
S4    O90   1.503884 D    
O25   Zn5   2.000750 S    
C78   C222  1.485843 S    
O22   C48   1.277577 A    
O27   Zn7   2.000750 S    
C16   H4    1.087072 S    
C23   H11   1.086374 S    
C91   C97   1.406868 A    
C77   C85   1.398846 A    
C76   C84   1.398840 A    
C41   H21   1.086851 S    
C231  O149  1.223124 D    
C87   C95   1.397345 A    
C165  C173  1.414595 A    
C210  O108  1.398333 S    
C88   H32   1.084263 S    
C201  O66   1.397825 S    
C157  C177  1.411124 A    
S5    O95   1.681055 S    
C73   C217  1.485832 S    
C232  O152  1.397879 S    
C102  O50   1.349762 S    
C75   C219  1.485916 S    
C73   C81   1.399136 A    
C167  C173  1.412511 A    
C214  O116  1.398318 S    
C160  C228  1.490190 S    
C115  C119  1.411792 A    
C159  C227  1.484496 S    
C62   C114  1.418812 A    
C118  C146  1.411995 A    
C227  O141  1.222244 D    
C168  C204  1.487620 S    
O140  H90   1.013740 S    
C15   C31   1.465447 S    
O30   C54   1.276882 A    
C226  O139  1.223126 D    
O40   Zn10  2.001266 S    
O3    C3    1.276642 A    
C228  O144  1.397897 S    
C114  C128  1.410395 A    
C156  O64   1.349691 S    
C130  C138  1.401034 A    
C144  C154  1.401097 A    
C150  O58   1.349638 S    
C187  H55   1.082424 S    
O12   Zn3   2.000193 S    
S6    O97   1.502574 D    
C80   C88   1.398667 A    
C31   C39   1.348413 D    
C203  O70   1.397619 S    
C103  O51   1.349862 S    
C183  C191  1.396391 A    
O104  H72   0.990534 S    
C163  C171  1.410194 A    
O5    Zn2   2.001156 S    
C185  H53   1.082431 S    
C164  C172  1.409931 A    
C220  O127  1.223353 D    
N4    C180  1.434431 S    
C20   C36   1.466728 S    
C102  N2    1.366542 A    
C134  H46   1.083156 S    
O150  H95   1.013740 S    
C62   C74   1.426773 A    
C143  C147  1.406465 A    
C32   C40   1.350151 D    
C45   C173  1.466237 S    
C122  C130  1.392291 A    
C166  C202  1.487606 S    
O14   C6    1.284094 A    
S3    O89   1.680841 S    
C36   C44   1.350013 D    
O46   C60   1.278087 A    
C33   C213  1.488764 S    
C166  C174  1.413664 A    
S4    O92   1.680803 S    
O7    C7    1.276491 A    
O24   C48   1.277386 A    
C159  C167  1.409639 A    
O8    C8    1.276987 A    
C107  N3    1.366562 A    
C18   C26   1.338334 D    
C74   C218  1.485794 S    
Zn11  O47   2.015854 S    
C120  C148  1.412064 A    
C91   C103  1.401779 A    
O124  H82   1.013778 S    
C194  C200  1.415630 A    
O43   C57   1.278939 A    
O37   C53   1.272045 A    
C150  N6    1.370494 A    
C218  O123  1.223354 D    
C107  O55   1.349772 S    
O142  H91   1.013745 S    
C83   H27   1.084272 S    
C67   C111  1.418816 A    
C21   C49   1.442308 S    
C161  C169  1.410366 A    
C23   C51   1.440552 S    
C208  O80   1.397930 S    
C18   C34   1.466845 S    
C209  O105  1.222523 D    
C139  C145  1.406453 A    
C159  C177  1.409513 A    
C220  O128  1.398769 S    
C32   C212  1.488787 S    
O138  H89   1.013754 S    
C158  C166  1.410227 A    
O31   C55   1.276782 A    
C40   H20   1.086865 S    
C204  O71   1.222202 D    
C72   C100  1.412049 A    
O33   C49   1.272676 A    
C206  O76   1.397987 S    
O11   C3    1.283805 A    
O118  H79   1.013878 S    
C59   C200  1.462523 S    
C108  N4    1.366469 A    
C83   C91   1.397352 A    
C3    C40   1.441530 S    
C38   H18   1.086884 S    
C6    C43   1.441660 S    
Zn8   O44   2.014092 S    
C27   H15   1.086515 S    
C94   C106  1.401980 A    
C216  O120  1.398335 S    
C46   C174  1.463871 S    
C24   C52   1.441514 S    
C13   H1    1.087109 S    
O80   H64   1.013713 S    
O6    C6    1.276443 A    
C135  C143  1.401066 A    
C181  C189  1.396310 A    
C219  O126  1.398793 S    
O44   C58   1.278256 A    
C143  C153  1.401418 A    
C109  C117  1.411787 A    
O10   Zn3   2.004385 S    
C19   H7    1.087047 S    
O70   H59   1.013856 S    
C20   H8    1.087052 S    
C135  H47   1.083183 S    
C5    C42   1.441478 S    
O76   H62   1.013747 S    
C136  H48   1.083157 S    
C137  C151  1.401151 A    
C7    C44   1.441278 S    
C202  O68   1.397950 S    
C79   C87   1.398850 A    
O21   C47   1.277161 A    
O36   Zn6   2.001266 S    
O4    Zn1   2.004274 S    
O8    Zn2   2.004275 S    
C88   C96   1.397243 A    
C223  O134  1.398770 S    
C141  C147  1.406661 A    
C89   C97   1.407115 A    
O126  H83   1.013806 S    
C205  O74   1.397976 S    
O7    Zn2   2.001740 S    
C229  O145  1.223123 D    
O23   Zn11  2.016418 S    
C212  O112  1.398330 S    
C90   C98   1.407036 A    
C64   C70   1.422859 A    
C115  C125  1.410517 A    
O21   Zn9   2.015849 S    
C215  O118  1.398324 S    
C203  O69   1.222218 D    
C66   C78   1.426679 A    
O20   C46   1.277634 A    
O122  H81   1.013807 S    
C138  C146  1.406397 A    
O92   H68   0.990527 S    
C158  C226  1.490202 S    
O39   C55   1.271957 A    
O95   H69   0.990560 S    
C181  H49   1.082407 S    
O68   H58   1.013733 S    
C22   C50   1.441502 S    
O26   Zn6   1.999869 S    
C93   C99   1.406997 A    
C184  C192  1.396725 A    
C196  S8    1.772634 S    
C111  C121  1.410419 A    
O5    C5    1.276608 A    
C80   C224  1.485773 S    
O134  H87   1.013778 S    
C189  C197  1.415728 A    
C225  O137  1.223141 D    
C109  C123  1.410399 A    
C81   H25   1.084268 S    
O42   C58   1.278501 A    
C9    N5    1.435121 S    
C105  N3    1.366560 A    
C18   H6    1.087081 S    
C11   N7    1.435135 S    
S7    O101  1.681025 S    
C153  O61   1.349695 S    
N1    C177  1.435327 S    
O19   C45   1.277880 A    
C155  O63   1.349690 S    
C64   C116  1.418844 A    
N3    C179  1.434513 S    
C69   C97   1.412484 A    
C158  C178  1.411560 A    
C121  H33   1.080616 S    
C160  C168  1.410337 A    
O16   Zn4   2.000193 S    
S2    O85   1.502198 D    
C74   C82   1.398854 A    
C168  C174  1.413701 A    
C162  C230  1.490138 S    
C224  O136  1.398766 S    
C104  O52   1.349779 S    
O40   C56   1.272226 A    
O1    C1    1.276555 A    
C186  C194  1.396405 A    
C60   C199  1.461352 S    
O48   C60   1.277875 A    
O14   Zn4   2.004385 S    
C114  C120  1.411772 A    
Zn12  O48   2.014092 S    
O41   C57   1.278403 A    
C116  C126  1.410417 A    
C121  C129  1.392503 A    
C31   C211  1.489230 S    
S2    O86   1.680197 S    
O89   H67   0.990538 S    
C21   H9    1.086366 S    
C171  C207  1.487477 S    
C77   C221  1.485776 S    
C9    C181  1.396856 A    
C24   H12   1.086556 S    
C25   H13   1.086540 S    
O28   Zn8   1.999869 S    
C87   H31   1.084240 S    
C141  C155  1.401355 A    
C162  C170  1.410540 A    
C142  C156  1.401167 A    
C85   H29   1.084246 S    
C161  C179  1.411571 A    
C162  C180  1.411713 A    
S8    O102  1.503803 D    
S4    O91   1.502412 D    
C76   C220  1.485790 S    
C136  C144  1.401048 A    
C169  C175  1.413773 A    
O101  H71   0.990554 S    
C101  N1    1.366548 A    
C90   C102  1.401946 A    
C30   C210  1.488828 S    
O28   C52   1.276958 A    
O66   H57   1.013181 S    
C34   C42   1.350091 D    
C138  C152  1.400674 A    
O78   H63   1.013708 S    
C196  C200  1.415606 A    
C63   C75   1.426774 A    
C210  O107  1.222633 D    
C13   C29   1.467661 S    
O152  H96   1.013741 S    
C142  C148  1.406474 A    
C201  O65   1.222248 D    
S5    O94   1.502619 D    
C232  O151  1.223125 D    
C140  C146  1.406518 A    
C207  O78   1.397962 S    
C81   C89   1.397398 A    
O148  H94   1.013740 S    
C29   C37   1.350407 D    
C127  C135  1.392596 A    
C230  O147  1.223126 D    
C217  O122  1.398792 S    
C129  C137  1.401041 A    
C222  O132  1.398775 S    
C27   C55   1.441814 S    
C163  C179  1.411587 A    
C185  C193  1.396623 A    
C164  C180  1.411408 A    
C78   C86   1.399011 A    
O19   Zn7   2.016418 S    
O144  H92   1.013742 S    
C128  H40   1.080616 S    
C2    C39   1.438343 S    
C110  C124  1.410578 A    
C228  O143  1.223123 D    
O26   C50   1.276836 A    
C106  N4    1.366623 A    
O24   Zn12  2.018237 S    
C61   C69   1.422936 A    
C42   H22   1.086851 S    
O15   C7    1.283806 A    
O45   C59   1.278069 A    
C104  N2    1.366576 A    
C211  O110  1.398327 S    
C66   C72   1.422916 A    
C127  H39   1.080587 S    
C188  C196  1.396292 A    
S6    O98   1.680859 S    
C134  C142  1.401046 A    
C190  C198  1.416234 A    
O20   Zn8   2.018237 S    
Zn6   O42   2.018247 S    
C95   C99   1.407015 A    
C221  O130  1.398766 S    
C36   C216  1.488868 S    
C14   H2    1.087070 S    
C93   C105  1.401928 A    
C152  O60   1.349770 S    
C133  C141  1.400950 A    
C101  O49   1.349689 S    
C63   C115  1.418891 A    
C13   C21   1.338878 D    
O31   Zn11  2.000750 S    
C96   C108  1.401759 A    
C192  C198  1.417024 A    
O110  H75   1.013910 S    
C171  C175  1.413560 A    
C9    C183  1.396890 A    
C224  O135  1.223359 D    
C12   N8    1.435163 S    
C10   C184  1.396056 A    
O17   C45   1.277655 A    
C12   C186  1.396930 A    
S3    O88   1.502553 D    
C221  O129  1.223356 D    
C35   C215  1.488858 S    
O132  H86   1.013787 S    
S8    O104  1.680845 S    
C172  C176  1.413646 A    
C222  O131  1.223362 D    
O29   C53   1.276701 A    
C34   C214  1.488772 S    
C191  C197  1.415693 A    
C68   C80   1.426840 A    
C122  H34   1.080669 S    
O9    C1    1.283821 A    
C190  S2    1.771749 S    
C67   C79   1.426745 A    
C231  O150  1.397893 S    
C1    C38   1.441380 S    
C126  C134  1.392519 A    
C110  C118  1.411800 A    
C116  C120  1.411762 A    
C15   C23   1.339124 D    
O83   H65   0.990543 S    
C182  C190  1.396133 A    
C208  O79   1.222164 D    
O39   Zn9   2.001810 S    
Zn5   O41   2.016435 S    
O37   Zn11  2.001810 S    
O38   Zn12  2.001266 S    
C57   C198  1.464535 S    
O27   C51   1.275453 A    
S8    O103  1.502537 D    
O2    C2    1.284003 A    
C28   C56   1.441396 S    
C10   N6    1.435108 S    
C123  C131  1.392491 A    
C206  O75   1.222230 D    
C130  H42   1.083161 S    
C129  H41   1.083160 S    
C154  O62   1.349701 S    
C132  C140  1.401076 A    
N2    C178  1.434516 S    
C17   H5    1.087090 S    
O120  H80   1.013877 S    
C227  O142  1.397632 S    
S1    O81   1.503799 D    
C113  C127  1.410529 A    
C195  C199  1.414863 A    
C192  S4    1.772624 S    
C216  O119  1.222630 D    
C70   C98   1.412115 A    
C226  O140  1.397885 S    
C191  S3    1.772662 S    
C66   C110  1.419041 A    
C219  O125  1.223383 D    
C112  C118  1.411706 A    
C124  C132  1.392696 A    
C160  C178  1.411572 A    
O9    Zn3   2.001842 S    
O11   Zn3   2.001262 S    
O116  H78   1.013880 S    
O38   C54   1.272239 A    
C65   C77   1.426789 A    
O16   C8    1.283634 A    
C214  O115  1.222651 D    
C128  C136  1.392492 A    
S6    O96   1.503775 D    
C202  O67   1.222195 D    
C125  C133  1.392426 A    
O18   C46   1.277395 A    
C94   C100  1.406980 A    
C183  H51   1.082404 S    
C172  C208  1.487398 S    
C157  C225  1.490536 S    
