data_mof_unit_19276.cif
_audit_creation_date              2012-10-26T20:32:02-0400
_audit_creation_method            fapswitch 2.2
_symmetry_space_group_name_H-M    P1
_symmetry_Int_Tables_number       1
_space_group_crystal_system       triclinic
_cell_length_a                    10.627828
_cell_length_b                    10.8623
_cell_length_c                    9.552556
_cell_angle_alpha                 89.827394
_cell_angle_beta                  89.365134
_cell_angle_gamma                 90.298103
_cell_volume                      1102.68461705

loop_
_atom_site_label
_atom_site_type_symbol
_atom_type_description
_atom_site_fract_x
_atom_site_fract_y
_atom_site_fract_z
_atom_type_partial_charge
C1    C     C_R   0.499598 0.262705 0.500012 0.549924
C2    C     C_R   0.502284 0.937478 0.620689 0.015812
C3    C     C_3   0.507043 0.927574 0.776061 -0.278564
C4    C     C_R   0.259313 0.500207 0.500773 0.551321
C5    C     C_3   0.505748 0.069299 0.776665 -0.258430
C6    C     C_R   0.565841 0.587484 0.072416 0.139315
C7    C     C_R   0.424624 0.422061 0.076170 -0.010660
C8    C     C_R   0.421477 0.423471 0.925753 0.376597
C9    C     C_R   0.566345 0.587077 0.925275 0.110362
C10   C     C_3   0.704733 0.609577 0.917666 -0.280756
C11   C     C_3   0.704217 0.610075 0.076447 -0.273363
C12   C     C_3   0.961780 0.491766 0.367229 -0.113553
C13   C     C_R   0.500214 0.737249 0.499674 0.542866
C14   C     C_R   0.740741 0.499698 0.499345 0.544505
C15   C     C_3   0.038563 0.508090 0.633673 -0.116619
C16   C     C_3   0.956651 0.402902 0.574291 -0.127874
C17   C     C_3   0.877719 0.499484 0.498374 0.047004
C18   C     C_3   0.957334 0.604626 0.557789 -0.129309
C19   C     C_3   0.043551 0.596968 0.426648 -0.124375
C20   C     C_3   0.226357 0.327847 0.909857 -0.155912
C21   C     C_3   0.042870 0.395221 0.443160 -0.123629
C22   C     C_3   0.122443 0.500367 0.502347 0.048699
C23   C     C_R   0.501406 0.061433 0.621057 0.022360
C24   C     C_R   0.498937 0.130028 0.498412 0.007981
C25   C     C_R   0.496315 0.064918 0.370645 -0.169442
C26   C     C_R   0.496787 0.935771 0.370379 -0.167479
C27   C     C_R   0.499922 0.869839 0.497875 0.007785
Cu1   Cu    Cu3+1 0.499990 0.499980 0.640670 0.989339
Cu2   Cu    Cu3+1 0.500010 0.500020 0.359330 0.922352
H1    H     H_    0.918099 0.323465 0.634617 0.101378
H2    H     H_    0.072245 0.515592 0.742840 0.112493
H3    H     H_    0.919095 0.690238 0.604656 0.102168
H4    H     H_    0.082131 0.676447 0.366420 0.108021
H5    H     H_    0.929843 0.484124 0.257584 0.102042
H6    H     H_    0.081030 0.309533 0.396408 0.102462
H7    H     H_    0.494041 0.112977 0.271196 0.133567
H8    H     H_    0.494780 0.888363 0.270827 0.134966
H9    H     H_    0.420334 0.885056 0.821408 0.139471
H10   H     H_    0.162402 0.293239 0.827650 0.140655
H11   H     H_    0.187058 0.416633 0.948267 0.095652
H12   H     H_    0.597082 0.887862 0.812606 0.131043
H13   H     H_    0.226930 0.257934 0.994901 0.093314
H14   H     H_    0.418026 0.108031 0.822411 0.177932
H15   H     H_    0.594817 0.111331 0.813990 0.137332
H16   H     H_    0.368725 0.356395 0.135374 0.114605
H17   H     H_    0.757742 0.530734 0.872889 0.152074
H18   H     H_    0.728314 0.700694 0.870871 0.116925
H19   H     H_    0.756149 0.531136 0.121149 0.145943
H20   H     H_    0.727628 0.701407 0.121726 0.123266
N1    N     N_R   0.500800 0.500930 0.147930 -0.259648
N2    N     N_R   0.500800 0.500890 0.852020 -0.219771
O1    O     O_R   0.500000 0.319640 0.618810 -0.451435
O2    O     O_R   0.500010 0.319680 0.381230 -0.522149
O3    O     O_R   0.316850 0.499950 0.618770 -0.465826
O4    O     O_R   0.316860 0.499990 0.381190 -0.514470
O5    O     O_R   0.499990 0.680320 0.618770 -0.505245
O6    O     O_R   0.500000 0.680360 0.381190 -0.507354
O7    O     O_R   0.683140 0.500010 0.618810 -0.516415
O8    O     O_R   0.683150 0.500050 0.381230 -0.507954
O9    O     O_3   0.347887 0.341573 0.850548 -0.541299

loop_
_geom_bond_atom_site_label_1
_geom_bond_atom_site_label_2
_ccdc_geom_bond_type
C12   C17   S    
C10   H17   S    
C15   C18   S    
C20   H13   S    
C23   C24   A    
C3    H9    S    
C26   H8    S    
C15   H2    S    
C2    C27   A    
C11   H20   S    
Cu1   O7    S    
C20   O9    S    
C4    C22   S    
C9    C10   S    
C9    N2    A    
C13   O5    A    
C6    C9    A    
C2    C3    S    
Cu1   O5    S    
C7    C8    A    
C21   C22   S    
C8    O9    S    
C14   O8    A    
Cu1   O1    S    
C14   C17   S    
C11   H19   S    
C16   C21   S    
Cu2   O2    S    
C20   H11   S    
C7    H16   S    
C12   C19   S    
Cu1   Cu2   S    
Cu1   N2    S    
C5    H15   S    
Cu2   O6    S    
C17   C18   S    
Cu2   N1    S    
C6    C11   S    
C4    O4    A    
C5    H14   S    
C14   O7    A    
C1    O1    A    
C21   H6    S    
C13   O6    A    
C10   C11   S    
C25   H7    S    
C12   H5    S    
C15   C16   S    
C10   H18   S    
C19   C22   S    
C18   H3    S    
C24   C25   A    
C3    H12   S    
C1    C24   S    
C18   C19   S    
C19   H4    S    
C8    N2    A    
C2    C23   A    
C20   H10   S    
C1    O2    A    
C13   C27   S    
C26   C27   A    
Cu1   O3    S    
Cu2   O4    S    
C4    O3    A    
C25   C26   A    
C16   H1    S    
C12   C21   S    
C15   C22   S    
C6    N1    A    
Cu2   O8    S    
C7    N1    A    
C16   C17   S    
C3    C5    S    
C5    C23   S    
