data_mof_unit_56221.cif
_audit_creation_date              2012-12-10T18:57:11-0500
_audit_creation_method            fapswitch 2.2
_symmetry_space_group_name_H-M    P1
_symmetry_Int_Tables_number       1
_space_group_crystal_system       triclinic
_cell_length_a                    10.675246
_cell_length_b                    9.918659
_cell_length_c                    10.701543
_cell_angle_alpha                 89.857033
_cell_angle_beta                  93.269472
_cell_angle_gamma                 90.722017
_cell_volume                      1131.18756809

loop_
_atom_site_label
_atom_site_type_symbol
_atom_type_description
_atom_site_fract_x
_atom_site_fract_y
_atom_site_fract_z
_atom_type_partial_charge
C1    C     C_R   0.260368 0.498676 0.508547 0.873632
C2    C     C_R   0.549336 0.610626 0.938827 -0.032658
C3    C     C_R   0.493990 0.503793 0.127755 -0.134979
C4    C     C_R   0.497210 0.501994 0.871018 -0.035381
C5    C     C_R   0.431973 0.400179 0.059571 -0.095431
C6    C     C_R   0.430916 0.400894 0.930693 -0.131563
C7    C     C_3   0.678715 0.672182 0.942741 0.116348
C8    C     C_3   0.671549 0.678587 0.084276 0.125503
C9    C     C_R   0.058088 0.372756 0.505906 -0.004007
C10   C     C_R   0.934144 0.379282 0.458286 -0.034775
C11   C     C_R   0.871127 0.501128 0.475867 -0.158600
C12   C     C_R   0.738516 0.500532 0.487665 0.913891
C13   C     C_R   0.126560 0.495776 0.514167 -0.177437
C14   C     C_R   0.937143 0.621332 0.500530 -0.096283
C15   C     C_R   0.065157 0.619495 0.511991 -0.118034
C16   C     C_2   0.105636 0.246530 0.568329 0.598517
C17   C     C_2   0.876826 0.269561 0.377104 0.543597
C18   C     C_R   0.573950 0.069248 0.587448 0.381059
C19   C     C_R   0.423151 0.067206 0.415205 0.388488
C20   C     C_R   0.573361 0.926634 0.584692 -0.102195
C21   C     C_R   0.426392 0.924916 0.415900 -0.012258
C22   C     C_R   0.500225 0.500562 0.260243 0.881154
C23   C     C_R   0.501968 0.500200 0.739591 0.949737
C24   C     C_R   0.543762 0.614527 0.066358 0.052221
H1    H     H_    0.387617 0.317180 0.104722 0.243926
H2    H     H_    0.765903 0.811806 0.319870 0.356075
H3    H     H_    0.196738 0.243932 0.618022 0.045314
H4    H     H_    0.781914 0.277493 0.336438 0.071265
H5    H     H_    0.799146 0.063060 0.857444 0.425350
H6    H     H_    0.194488 0.296692 0.242479 0.381669
H7    H     H_    0.382517 0.320504 0.878457 0.185744
H8    H     H_    0.680863 0.771496 0.894474 0.167400
H9    H     H_    0.739539 0.614376 0.139168 0.114155
H10   H     H_    0.890441 0.716698 0.510749 0.185333
H11   H     H_    0.115425 0.714734 0.522812 0.191179
H12   H     H_    0.628739 0.869241 0.653224 0.203459
H13   H     H_    0.367612 0.866671 0.349576 0.198511
H14   H     H_    0.946172 0.711625 0.927259 0.373877
N1    N     N_R   0.500000 0.857200 0.500000 -0.143200
N2    N     N_R   0.500000 0.142810 0.500000 -0.219412
O1    O     O_R   0.316770 0.614620 0.499990 -0.621802
O2    O     O_2   0.802213 0.555994 0.758981 -0.289266
O3    O     O_3   0.939223 0.618065 0.958963 -0.506995
O4    O     O_2   0.776255 0.927593 0.092886 -0.257540
O5    O     O_2   0.547485 0.913889 0.097538 -0.201610
O6    O     O_3   0.681170 0.847417 0.298220 -0.520305
O7    O     O_2   0.039231 0.145927 0.574924 -0.489087
O8    O     O_2   0.938018 0.173517 0.345749 -0.451598
O9    O     O_2   0.727545 0.265609 0.698814 -0.194360
O10   O     O_2   0.566718 0.159249 0.821452 -0.278189
O11   O     O_3   0.764161 0.024494 0.777396 -0.557312
O12   O     O_R   0.683230 0.614620 0.500010 -0.603072
O13   O     O_2   0.343862 0.080823 0.176454 -0.259539
O14   O     O_2   0.186557 0.054317 0.329523 -0.266075
O15   O     O_3   0.275113 0.291054 0.292755 -0.558386
O16   O     O_R   0.316800 0.385290 0.500000 -0.598224
O17   O     O_R   0.683200 0.385290 0.500000 -0.600479
O18   O     O_R   0.500000 0.614690 0.316780 -0.584794
O19   O     O_R   0.500000 0.614690 0.683220 -0.634214
O20   O     O_R   0.500020 0.385360 0.316780 -0.570601
O21   O     O_R   0.499980 0.385360 0.683220 -0.569564
O22   O     O_2   0.776659 0.421202 0.948211 -0.214815
S1    S     S_3+6 0.799723 0.560816 0.898811 0.050843
S2    S     S_3+6 0.668287 0.848136 0.141146 0.063880
S3    S     S_3+6 0.657983 0.137057 0.722053 0.093085
S4    S     S_3+6 0.306735 0.126646 0.302679 0.052151
Zn1   Zn    Zn3+2 0.500000 0.653120 0.500000 1.020087
Zn2   Zn    Zn3+2 0.500000 0.346880 0.500000 1.076595

loop_
_geom_bond_atom_site_label_1
_geom_bond_atom_site_label_2
_ccdc_geom_bond_type
C14   H10   S    
C1    C13   S    
C2    C4    A    
C11   C12   S    
C22   O18   A    
O22   S1    D    
O14   S4    D    
C9    C10   A    
O5    S2    D    
C2    C7    S    
C21   N1    A    
C17   O8    D    
C10   C11   A    
C16   H3    S    
C6    H7    S    
O3    S1    S    
H14   O3    S    
O1    Zn1   S    
O4    S2    D    
C18   S3    S    
C23   O19   A    
O13   S4    D    
O19   Zn1   S    
O21   Zn2   S    
C7    S1    S    
C3    C24   A    
O12   Zn1   S    
O9    S3    D    
C8    S2    S    
C5    H1    S    
C12   O17   A    
C16   O7    D    
C15   H11   S    
C12   O12   A    
C1    O16   A    
H5    O11   S    
C18   C20   A    
C8    H9    S    
C13   C15   A    
C22   O20   A    
C5    C6    A    
C7    H8    S    
C11   C14   A    
O11   S3    S    
C19   N2    A    
H2    O6    S    
O17   Zn2   S    
N2    Zn2   S    
C20   H12   S    
O18   Zn1   S    
C23   O21   A    
O15   S4    S    
C21   H13   S    
C8    C24   S    
O20   Zn2   S    
C19   S4    S    
C4    C6    A    
C7    C8    S    
H6    O15   S    
C1    O1    A    
C4    C23   S    
C20   N1    A    
C18   N2    A    
C14   C15   A    
C3    C22   S    
C9    C13   A    
C2    C24   A    
C10   C17   S    
C19   C21   A    
O16   Zn2   S    
C17   H4    S    
N1    Zn1   S    
O2    S1    D    
C9    C16   S    
O10   S3    D    
O6    S2    S    
C3    C5    A    
