data_mof_unit_56103.cif
_audit_creation_date              2012-12-10T18:36:27-0500
_audit_creation_method            fapswitch 2.2
_symmetry_space_group_name_H-M    P1
_symmetry_Int_Tables_number       1
_space_group_crystal_system       triclinic
_cell_length_a                    13.853763
_cell_length_b                    15.137493
_cell_length_c                    15.698996
_cell_angle_alpha                 90.024736
_cell_angle_beta                  70.525497
_cell_angle_gamma                 89.932545
_cell_volume                      3103.9024417

loop_
_atom_site_label
_atom_site_type_symbol
_atom_type_description
_atom_site_fract_x
_atom_site_fract_y
_atom_site_fract_z
_atom_type_partial_charge
C1    C     C_R   0.499985 0.670056 0.499932 0.792540
C2    C     C_R   0.500089 0.329827 0.499839 0.788126
C3    C     C_R   0.375149 0.425063 0.095132 0.430428
C4    C     C_R   0.622344 0.421013 0.906167 0.413175
C5    C     C_R   0.305867 0.425651 0.047905 -0.315880
C6    C     C_R   0.692513 0.424532 0.952331 -0.314397
C7    C     C_R   0.407736 0.904626 0.534138 -0.165587
C8    C     C_R   0.579647 0.094969 0.515901 -0.168571
C9    C     C_R   0.407578 0.812819 0.533578 -0.188637
C10   C     C_R   0.580167 0.186758 0.515069 -0.185319
C11   C     C_R   0.500031 0.766347 0.499623 -0.032358
C12   C     C_R   0.500255 0.233319 0.499430 -0.029338
C13   C     C_R   0.592569 0.812423 0.465310 -0.186297
C14   C     C_R   0.420534 0.187019 0.483302 -0.193087
C15   C     C_R   0.592594 0.904217 0.464160 -0.168430
C16   C     C_R   0.421089 0.095251 0.482072 -0.171013
C17   C     C_R   0.500216 0.951161 0.499037 0.103286
C18   C     C_R   0.500333 0.048368 0.498969 0.107536
C19   C     C_R   0.917678 0.455256 0.431319 0.345129
C20   C     C_R   0.108491 0.580426 0.496690 0.335662
C21   C     C_R   0.814319 0.453176 0.436127 -0.065099
C22   C     C_R   0.209559 0.578014 0.498295 -0.054282
C23   C     C_R   0.438186 0.497564 0.672671 0.801118
C24   C     C_R   0.561840 0.498102 0.327299 0.802272
C25   C     C_R   0.766482 0.547075 0.563455 -0.080180
C26   C     C_R   0.207887 0.422387 0.501794 -0.082802
C27   C     C_R   0.867457 0.545728 0.567065 0.337574
C28   C     C_R   0.105529 0.420636 0.503552 0.339214
C29   C     C_R   0.945401 0.500977 0.498686 -0.060278
C30   C     C_R   0.054203 0.500647 0.499569 -0.035622
C31   C     C_R   0.402032 0.483368 0.771011 -0.088345
C32   C     C_R   0.597940 0.484959 0.228803 -0.091672
C33   C     C_R   0.266355 0.450875 0.911164 -0.177807
C34   C     C_R   0.732953 0.452040 0.088312 -0.177797
C35   C     C_R   0.297998 0.470119 0.819183 -0.184430
C36   C     C_R   0.701833 0.471335 0.180312 -0.187161
C37   C     C_R   0.473793 0.476092 0.815806 -0.194141
C38   C     C_R   0.525959 0.478942 0.184177 -0.187314
C39   C     C_R   0.444397 0.450479 0.906976 0.091443
C40   C     C_R   0.554453 0.452387 0.093349 0.090308
C41   C     C_R   0.338583 0.442269 0.955540 0.093645
C42   C     C_R   0.660274 0.443151 0.044405 0.092932
C43   C     C_R   0.516724 0.438093 0.952474 -0.105165
C44   C     C_R   0.481409 0.439709 0.048546 -0.098529
Cu1   Cu    Cu3+1 0.403570 0.500010 0.500000 0.937437
Cu2   Cu    Cu3+1 0.596430 0.499990 0.500000 0.931902
H1    H     H_    0.225568 0.414148 0.084508 0.147110
H2    H     H_    0.772981 0.413599 0.915186 0.149503
H3    H     H_    0.793037 0.415949 0.386283 0.158174
H4    H     H_    0.248083 0.639991 0.497630 0.160474
H5    H     H_    0.707579 0.585365 0.612070 0.149812
H6    H     H_    0.245410 0.360249 0.503180 0.155379
H7    H     H_    0.448291 0.498198 0.220825 0.208656
H8    H     H_    0.552041 0.493735 0.779190 0.195748
H9    H     H_    0.758921 0.475463 0.213385 0.146392
H10   H     H_    0.241103 0.474735 0.785929 0.155816
H11   H     H_    0.185329 0.442831 0.947701 0.131651
H12   H     H_    0.813864 0.443376 0.051571 0.130801
H13   H     H_    0.335620 0.939051 0.563103 0.127208
H14   H     H_    0.640767 0.060611 0.530718 0.127641
H15   H     H_    0.335432 0.778209 0.561128 0.145405
H16   H     H_    0.642542 0.221308 0.527449 0.156375
H17   H     H_    0.664662 0.777497 0.437992 0.148743
H18   H     H_    0.358292 0.221704 0.470799 0.147698
H19   H     H_    0.664786 0.938302 0.435009 0.127672
H20   H     H_    0.360010 0.061158 0.467030 0.128121
N1    N     N_R   0.741310 0.499980 0.500000 -0.214035
N2    N     N_R   0.258690 0.500020 0.500000 -0.209390
O1    O     O_R   0.418570 0.628550 0.499990 -0.592354
O2    O     O_R   0.581430 0.371450 0.500010 -0.582166
O3    O     O_R   0.581440 0.628540 0.499990 -0.577584
O4    O     O_R   0.418560 0.371460 0.500010 -0.597924
O5    O     O_R   0.372890 0.500010 0.629830 -0.569846
O6    O     O_R   0.627110 0.499990 0.370170 -0.584719
O7    O     O_R   0.535760 0.500000 0.629840 -0.585440
O8    O     O_R   0.464240 0.500000 0.370160 -0.570870
O9    O     O_3   0.988351 0.408322 0.362535 -0.582985
C45   C     C_3   0.048673 0.466448 0.294905 0.081508
H21   H     H_    0.109626 0.426239 0.246454 0.187895
H22   H     H_    0.089267 0.515669 0.322821 0.119845
C46   C     C_3   0.986616 0.511926 0.242123 -0.423373
H23   H     H_    0.951886 0.460954 0.210409 0.221102
H24   H     H_    0.924173 0.552520 0.288373 0.210097
C47   C     C_3   0.053666 0.573113 0.169112 -0.902889
H25   H     H_    0.090008 0.623933 0.199531 0.256913
H26   H     H_    0.005824 0.606998 0.134679 0.256707
H27   H     H_    0.113997 0.534998 0.117968 0.257143
O10   O     O_3   0.062270 0.661833 0.498753 -0.565758
C48   C     C_3   0.066843 0.685147 0.410461 0.044279
H28   H     H_    0.011047 0.645204 0.389938 0.145932
H29   H     H_    0.145392 0.675676 0.360769 0.122857
C49   C     C_3   0.037323 0.782271 0.409628 -0.300663
H30   H     H_    0.959854 0.793105 0.459909 0.229302
H31   H     H_    0.092890 0.823906 0.428797 0.217484
C50   C     C_3   0.036504 0.810170 0.316455 -0.943864
H32   H     H_    0.113601 0.801013 0.265190 0.258288
H33   H     H_    0.015037 0.880989 0.317956 0.259194
H34   H     H_    0.979848 0.770458 0.296824 0.259601
O11   O     O_3   0.893718 0.592756 0.632201 -0.567996
C51   C     C_3   0.826643 0.575948 0.720963 0.039005
H35   H     H_    0.873568 0.551844 0.761444 0.162280
H36   H     H_    0.768575 0.523689 0.725705 0.166017
C52   C     C_3   0.774092 0.662098 0.762864 -0.339970
H37   H     H_    0.833254 0.711011 0.764462 0.234238
H38   H     H_    0.730773 0.689667 0.720810 0.211028
C53   C     C_3   0.700656 0.647935 0.858775 -0.897907
H39   H     H_    0.636992 0.603933 0.857948 0.260953
H40   H     H_    0.667713 0.712360 0.888377 0.253532
H41   H     H_    0.741546 0.618406 0.901883 0.261298
O12   O     O_3   0.059603 0.339481 0.503742 -0.586455
C54   C     C_3   0.990986 0.320448 0.591201 0.075477
H42   H     H_    0.935077 0.271531 0.582993 0.173076
H43   H     H_    0.945843 0.379045 0.625622 0.125359
C55   C     C_3   0.047046 0.279277 0.650768 -0.375993
H44   H     H_    0.091593 0.220820 0.615981 0.225930
H45   H     H_    0.101001 0.328071 0.662704 0.209165
C56   C     C_3   0.971570 0.250884 0.741925 -0.919643
H46   H     H_    0.926263 0.308516 0.777822 0.253194
H47   H     H_    0.014158 0.222695 0.784247 0.257348
H48   H     H_    0.918677 0.199768 0.732342 0.258073
O13   O     O_3   0.337234 0.406358 0.186412 -0.637295
C57   C     C_3   0.336637 0.313907 0.198118 0.022920
H49   H     H_    0.416255 0.287308 0.173231 0.150858
H50   H     H_    0.290057 0.280983 0.161458 0.146128
C58   C     C_3   0.289155 0.293156 0.298665 -0.299014
H51   H     H_    0.337097 0.322648 0.335669 0.221617
H52   H     H_    0.211428 0.322908 0.324897 0.258227
C59   C     C_3   0.280572 0.193787 0.315707 -0.920065
H53   H     H_    0.234578 0.162721 0.277831 0.260875
H54   H     H_    0.241816 0.181169 0.388847 0.258826
H55   H     H_    0.357905 0.163190 0.294541 0.253098
O14   O     O_3   0.658321 0.396776 0.816249 -0.649590
C60   C     C_3   0.651722 0.304133 0.810384 0.050256
H56   H     H_    0.571133 0.281289 0.842008 0.147544
H57   H     H_    0.701313 0.271412 0.844281 0.147792
C61   C     C_3   0.688637 0.277581 0.710884 -0.317314
H58   H     H_    0.636320 0.305730 0.677406 0.229156
H59   H     H_    0.766142 0.305259 0.677373 0.210464
C62   C     C_3   0.692815 0.177323 0.699848 -0.949199
H60   H     H_    0.740999 0.147517 0.736396 0.254340
H61   H     H_    0.727006 0.160094 0.627253 0.251065
H62   H     H_    0.614451 0.149136 0.726378 0.264447

loop_
_geom_bond_atom_site_label_1
_geom_bond_atom_site_label_2
_ccdc_geom_bond_type
C27   C29   A    
C11   C13   A    
C54   H42   S    
C34   C42   A    
C47   H27   S    
C2    C12   S    
C59   H53   S    
C21   H3    S    
C46   H23   S    
C50   H34   S    
C4    O14   S    
C20   C30   A    
O9    C45   S    
C5    H1    S    
C27   O11   S    
C1    O3    A    
C6    H2    S    
Cu1   O8    S    
C9    H15   S    
C32   C36   A    
C19   C21   A    
C47   H26   S    
C56   H47   S    
C62   H62   S    
C45   H22   S    
C53   H39   S    
C15   H19   S    
Cu1   O5    S    
C19   O9    S    
O12   C54   S    
C49   H30   S    
C54   H43   S    
C50   H32   S    
O14   C60   S    
C7    C17   A    
C25   N1    A    
C60   C61   S    
C14   C16   A    
C32   C38   A    
C52   C53   S    
C22   H4    S    
C40   C42   A    
C21   N1    A    
Cu1   O4    S    
C10   H16   S    
C23   O5    A    
C61   C62   S    
C2    O4    A    
C7    H13   S    
Cu2   O7    S    
C46   H24   S    
C55   H44   S    
C3    C44   A    
Cu1   O1    S    
C47   H25   S    
C39   C41   A    
C56   H48   S    
C23   O7    A    
C45   H21   S    
C24   O8    A    
C39   C43   A    
C28   O12   S    
Cu1   Cu2   S    
C49   C50   S    
C1    O1    A    
C31   C37   A    
C23   C31   S    
C43   C44   A    
C24   C32   S    
C29   C30   S    
C26   H6    S    
C58   C59   S    
O11   C51   S    
C13   H17   S    
C14   H18   S    
Cu1   N2    S    
C51   H36   S    
C17   C18   S    
Cu2   O3    S    
C52   H38   S    
C16   C18   A    
C48   C49   S    
C58   H52   S    
C9    C11   A    
C22   N2    A    
O13   C57   S    
C10   C12   A    
C37   H8    S    
C4    C6    A    
C12   C14   A    
C13   C15   A    
C58   H51   S    
C31   C35   A    
C16   H20   S    
C57   H50   S    
C19   C29   A    
C59   H55   S    
Cu2   O6    S    
C46   C47   S    
C61   H59   S    
C60   H57   S    
C7    C9    A    
C5    C41   A    
C33   H11   S    
C35   H10   S    
C20   C22   A    
C61   H58   S    
C3    C5    A    
C59   H54   S    
C55   H45   S    
C62   H60   S    
C50   H33   S    
C15   C17   A    
C4    C43   A    
C25   C27   A    
C26   C28   A    
C25   H5    S    
C26   N2    A    
C57   C58   S    
C28   C30   A    
C48   H28   S    
C33   C41   A    
Cu2   N1    S    
C37   C39   A    
C36   H9    S    
C56   H46   S    
C8    H14   S    
C38   C40   A    
C62   H61   S    
C45   C46   S    
C24   O6    A    
C49   H31   S    
C60   H56   S    
C38   H7    S    
C53   H40   S    
C20   O10   S    
C51   H35   S    
C33   C35   A    
C54   C55   S    
C34   C36   A    
C51   C52   S    
C8    C18   A    
Cu2   O2    S    
C55   C56   S    
C40   C44   A    
O10   C48   S    
C8    C10   A    
C48   H29   S    
C6    C42   A    
C52   H37   S    
C34   H12   S    
C1    C11   S    
C57   H49   S    
C2    O2    A    
C3    O13   S    
C53   H41   S    
