data_mof_unit_44541.cif
_audit_creation_date              2013-03-05T16:10:38-0500
_audit_creation_method            fapswitch 2.2
_symmetry_space_group_name_H-M    P1
_symmetry_Int_Tables_number       1
_space_group_crystal_system       triclinic
_cell_length_a                    8.262447
_cell_length_b                    15.049345
_cell_length_c                    18.859681
_cell_angle_alpha                 101.531809
_cell_angle_beta                  90.699543
_cell_angle_gamma                 99.332688
_cell_volume                      2264.92630548

loop_
_atom_site_label
_atom_site_type_symbol
_atom_site_description
_atom_site_fract_x
_atom_site_fract_y
_atom_site_fract_z
_atom_type_partial_charge
P1    P     P_3+3 0.039430 0.410940 0.333230 0.453747
O1    O     O_2   0.871960 0.437280 0.322960 -0.368834
O2    O     O_3   0.121410 0.444460 0.412450 -0.402904
O3    O     O_3   0.661450 0.607570 0.372550 -0.361450
O4    O     O_2   0.770077 0.535480 0.248991 -0.370455
O5    O     O_3   0.000014 0.290615 0.309960 -0.577283
O6    O     O_3   0.743999 0.705330 0.263890 -0.476904
H1    H     H_    0.569571 0.771275 0.321949 0.038391
C1    C     C_3   0.727936 0.861706 0.266539 -0.078159
H2    H     H_    0.793639 0.893321 0.319642 0.128984
H3    H     H_    0.821427 0.854194 0.224793 0.176150
P2    P     P_3+3 0.676770 0.715000 0.563590 0.462916
P3    P     P_3+3 0.133671 0.772392 0.407362 0.542346
O7    O     O_2   0.852310 0.726980 0.542430 -0.309997
O8    O     O_3   0.084010 0.657370 0.410280 -0.338470
O9    O     O_2   0.007599 0.820670 0.453912 -0.334170
O10   O     O_3   0.678298 0.741659 0.658744 -0.692653
O11   O     O_3   0.090633 0.786478 0.319547 -0.511938
C2    C     C_3   0.150034 0.717909 0.269873 0.342959
H4    H     H_    0.082071 0.648926 0.273210 0.102544
H5    H     H_    0.283075 0.720005 0.280639 -0.047820
C3    C     C_3   0.122475 0.731797 0.192772 -0.120585
H6    H     H_    0.990040 0.729924 0.180749 0.169676
C4    C     C_3   0.310206 0.756450 0.663273 0.677966
H7    H     H_    0.391811 0.709714 0.637826 0.015587
C5    C     C_3   0.410150 0.832618 0.721986 -0.094305
H8    H     H_    0.481053 0.801116 0.757582 0.114076
H9    H     H_    0.500985 0.877302 0.695760 0.091617
Ba1   Ba    Ba6+2 0.853520 0.540910 0.466490 1.623966
C6    C     C_3   0.951951 0.254202 0.370356 0.391711
H10   H     H_    0.837885 0.278015 0.389543 0.100575
H11   H     H_    0.048968 0.274970 0.414404 0.129011
C7    C     C_3   0.920856 0.149662 0.347902 -0.893857
H12   H     H_    0.818139 0.126789 0.306365 0.306366
H13   H     H_    0.888707 0.118010 0.395137 0.205714
H14   H     H_    0.033070 0.125386 0.325155 0.256951
C8    C     C_3   0.826898 0.733623 0.691055 1.045904
H15   H     H_    0.873872 0.672720 0.661179 0.062963
C9    C     C_3   0.796987 0.719694 0.768222 -1.064148
H16   H     H_    0.752121 0.779962 0.801008 0.261639
H17   H     H_    0.912724 0.711189 0.794582 0.270799
H18   H     H_    0.703259 0.657515 0.767208 0.226388
P4    P     P_3+3 0.150290 0.589140 0.666780 0.551290
O12   O     O_2   0.317750 0.562750 0.677090 -0.335697
O13   O     O_3   0.068300 0.555620 0.587560 -0.372793
O14   O     O_3   0.528270 0.392500 0.627460 -0.399463
O15   O     O_3   0.179283 0.709602 0.694438 -0.540393
P5    P     P_3+3 0.059449 0.222537 0.582915 0.445569
O16   O     O_3   0.609290 0.386840 0.459690 -0.382945
O17   O     O_3   0.105700 0.342700 0.589730 -0.368741
O18   O     O_2   0.180800 0.176998 0.532019 -0.437943
O19   O     O_3   0.100021 0.191708 0.666088 -0.613259
Ba2   Ba    Ba6+2 0.336320 0.459170 0.533520 1.614704
P6    P     P_3+3 0.648197 0.599094 0.279598 0.510198
C10   C     C_3   0.631953 0.766711 0.269683 0.235455
H19   H     H_    0.539982 0.744349 0.223429 0.105273
O20   O     O_3   0.580430 0.613240 0.540320 -0.377490
C11   C     C_3   0.445985 0.304654 0.307787 0.401678
H20   H     H_    0.355193 0.339263 0.341034 0.013014
H21   H     H_    0.552438 0.357201 0.300958 0.070422
C12   C     C_3   0.362678 0.259279 0.233916 0.034388
H22   H     H_    0.245933 0.214539 0.241691 0.146350
H23   H     H_    0.334349 0.313187 0.205380 0.075505
P7    P     P_3+3 0.517830 0.271500 0.432944 0.438412
O21   O     O_2   0.337390 0.273050 0.457610 -0.386478
O22   O     O_3   0.501103 0.236744 0.338614 -0.531981
H24   H     H_    0.161468 0.674449 0.154038 0.063363
C13   C     C_3   0.070502 0.258960 0.725794 0.741171
H25   H     H_    0.143438 0.326918 0.723361 0.083395
C14   C     C_3   0.124482 0.232899 0.795747 -0.782386
H26   H     H_    0.256607 0.229781 0.796492 0.293213
H27   H     H_    0.100660 0.285036 0.843438 0.236445
H28   H     H_    0.057420 0.164186 0.800263 0.264679
P8    P     P_3+3 0.543795 0.399306 0.720261 0.546955
C15   C     C_3   0.478164 0.223623 0.663162 0.448644
H29   H     H_    0.589842 0.230331 0.632606 0.111263
O23   O     O_2   0.399133 0.445854 0.751610 -0.379658
O24   O     O_3   0.495793 0.284560 0.730929 -0.466096
H30   H     H_    0.379756 0.238104 0.630168 0.152075
H31   H     H_    0.545866 0.106324 0.700129 0.279941
C16   C     C_3   0.439980 0.124458 0.672663 -0.744394
H32   H     H_    0.414584 0.077565 0.618883 0.211933
H33   H     H_    0.330476 0.114191 0.705123 0.294621
C17   C     C_R   0.996415 0.457947 0.049836 0.011766
C18   C     C_R   0.895203 0.415007 0.097569 -0.046963
C19   C     C_R   0.728912 0.379663 0.076604 0.507649
C20   C     C_R   0.670078 0.382222 0.008063 -0.164426
C21   C     C_R   0.770603 0.420598 0.958162 -0.125537
C22   C     C_R   0.933526 0.460635 0.979600 -0.013539
C23   C     C_R   0.707726 0.418183 0.887671 0.381319
C24   C     C_R   0.805750 0.460299 0.836962 -0.167786
C25   C     C_R   0.971359 0.503245 0.859821 -0.095525
C26   C     C_R   0.033209 0.502727 0.931232 0.005880
C27   C     C_R   0.748667 0.460726 0.764500 0.316688
C28   C     C_R   0.857964 0.499508 0.717585 -0.441862
C29   C     C_R   0.021202 0.539735 0.737933 0.259244
C30   C     C_R   0.076255 0.547025 0.812012 -0.103478
C31   C     C_R   0.160535 0.496949 0.072026 0.006765
C32   C     C_R   0.221530 0.497665 0.143335 -0.065277
C33   C     C_R   0.117199 0.455812 0.191497 -0.019815
C34   C     C_R   0.961224 0.408360 0.164913 -0.100495
H34   H     H_    0.541109 0.355506 0.995632 0.214633
H35   H     H_    0.815018 0.496731 0.662625 0.165919
H36   H     H_    0.889295 0.366552 0.197084 0.182435
C35   C     C_R   0.230626 0.598701 0.841206 0.508845
C36   C     C_R   0.295192 0.589948 0.908712 0.001863
C37   C     C_R   0.196332 0.543250 0.954393 0.062668
C38   C     C_R   0.260951 0.538724 0.023930 0.025864
C39   C     C_R   0.459696 0.626803 0.930720 -0.116609
C40   C     C_R   0.523535 0.620786 0.997622 -0.124376
C41   C     C_R   0.426329 0.576459 0.045149 -0.014748
C42   C     C_R   0.386145 0.539472 0.165983 -0.126019
C43   C     C_R   0.491331 0.571765 0.113975 0.426740
C44   C     C_R   0.438148 0.546554 0.239753 0.208441
C45   C     C_R   0.328141 0.510866 0.287633 -0.559382
C46   C     C_R   0.170057 0.463552 0.265046 0.217469
H37   H     H_    0.542395 0.659376 0.895803 0.135709
H38   H     H_    0.649339 0.653520 0.011909 0.143724
H39   H     H_    0.368684 0.516980 0.343411 0.182973
C47   C     C_R   0.851418 0.171543 0.544055 0.284696
C48   C     C_R   0.784745 0.077635 0.538142 -0.057116
C49   C     C_R   0.647868 0.888752 0.525011 -0.035958
C50   C     C_R   0.797357 0.927065 0.563848 -0.111486
C51   C     C_R   0.866516 0.018541 0.568508 -0.120530
C52   C     C_R   0.581599 0.793885 0.516150 0.187047
H40   H     H_    0.866385 0.887166 0.589960 0.209493
H41   H     H_    0.984875 0.041496 0.596557 0.205922
C53   C     C_R   0.436428 0.759334 0.472909 -0.394958
C54   C     C_R   0.612154 0.193865 0.478019 0.181572
C55   C     C_R   0.544750 0.100266 0.470261 -0.050521
C56   C     C_R   0.630749 0.041867 0.500919 -0.002918
C57   C     C_R   0.393587 0.063523 0.432770 -0.005875
C58   C     C_R   0.326654 0.971883 0.426423 -0.076604
C59   C     C_R   0.410901 0.912131 0.454925 -0.011017
C60   C     C_R   0.563686 0.947240 0.493203 0.054499
C61   C     C_R   0.346020 0.818297 0.445817 0.212134
C62   C     C_R   0.762193 0.228729 0.516008 -0.492582
H42   H     H_    0.210028 0.948719 0.396670 0.173583
H43   H     H_    0.324118 0.104417 0.407338 0.167783
H44   H     H_    0.386086 0.686918 0.465364 0.176699
H45   H     H_    0.813653 0.300725 0.521104 0.183733
N1    N     N_R   0.304934 0.888327 0.766604 0.305676
O25   O     O_R   0.322447 0.976157 0.768424 -0.343344
O26   O     O_R   0.209859 0.853460 0.812121 -0.329079
O27   O     O_3   0.942076 0.813679 0.692865 -0.683007
H46   H     H_    0.890899 0.866754 0.716444 0.323702
N2    N     N_R   0.619322 0.921992 0.248598 0.259674
O28   O     O_R   0.507101 0.946208 0.292493 -0.376050
O29   O     O_R   0.641189 0.956779 0.190911 -0.284465
O30   O     O_3   0.465603 0.205961 0.192581 -0.600670
H47   H     H_    0.404196 0.177862 0.145802 0.373047
N3    N     N_R   0.897086 0.265871 0.726857 0.197447
O31   O     O_R   0.839624 0.308631 0.681798 -0.508153
O32   O     O_R   0.797976 0.226239 0.768727 -0.380157
O33   O     O_3   0.617397 0.343859 0.121535 -0.729750
H48   H     H_    0.642698 0.379244 0.171569 0.329124
N4    N     N_R   0.547286 0.366226 0.868542 0.247249
O34   O     O_R   0.421441 0.407357 0.883212 -0.441721
O35   O     O_R   0.527770 0.277911 0.865732 -0.328529
O36   O     O_3   0.313854 0.662260 0.805844 -0.728542
H49   H     H_    0.360024 0.717944 0.842399 0.319255
O37   O     O_3   0.657141 0.598326 0.130547 -0.727443
H50   H     H_    0.717891 0.575242 0.087720 0.299179
N5    N     N_R   0.215523 0.818859 0.182326 0.285168
O38   O     O_R   0.327373 0.819152 0.134387 -0.337802
O39   O     O_R   0.175168 0.896357 0.214853 -0.308089
N6    N     N_R   0.242351 0.794039 0.606876 0.190010
O40   O     O_R   0.154925 0.736237 0.555174 -0.357523
O41   O     O_R   0.252913 0.882064 0.610127 -0.428813

loop_
_geom_bond_atom_site_label_1
_geom_bond_atom_site_label_2
_geom_bond_distance
_ccdc_geom_bond_type
C10   H19   1.111387 S    
N4    O34   1.299287 A    
P2    Ba1   3.426129 S    
P8    C27   1.888279 S    
C28   C29   1.400906 A    
C33   C46   1.425664 A    
O6    C10   1.400629 S    
C15   H29   1.095336 S    
C40   H38   1.081550 S    
C42   C44   1.429308 A    
C16   H32   1.109681 S    
C39   H37   1.082712 S    
C50   C51   1.387314 A    
P5    C47   1.843112 S    
Ba1   O16   2.796772 S    
C18   C19   1.411616 A    
C57   H43   1.078949 S    
C5    H8    1.107414 S    
P3    O11   1.750627 S    
O1    Ba1   2.860444 S    
N5    O38   1.300828 A    
C2    H5    1.109639 S    
C4    C5    1.544408 S    
O37   H50   0.989596 S    
C56   C60   1.419657 A    
C53   C61   1.411877 A    
O27   H46   0.993303 S    
C6    H10   1.101654 S    
C35   O36   1.373131 S    
C36   C37   1.405851 A    
C11   H21   1.110627 S    
C45   C46   1.399294 A    
C7    H14   1.110882 S    
C31   C38   1.408409 A    
C12   H23   1.111612 S    
P1    O1    1.520314 D    
O2    Ba1   2.924121 S    
C40   C41   1.405838 A    
C25   C26   1.436564 A    
C48   C51   1.401582 A    
N2    O28   1.298303 A    
C43   O37   1.377076 S    
O12   Ba2   2.860969 S    
P4    Ba2   3.407154 S    
P5    O18   1.542635 D    
C2    H4    1.111288 S    
C28   H35   1.082106 S    
C13   H25   1.109399 S    
P8    O23   1.546662 D    
P2    O10   1.758272 S    
C52   C53   1.406563 A    
C37   C38   1.428280 A    
C14   H26   1.100300 S    
C1    C10   1.530866 S    
P1    C46   1.899794 S    
Ba2   O21   2.881010 S    
C12   O30   1.400772 S    
O3    Ba1   2.796786 S    
O19   C13   1.408159 S    
C30   C35   1.422945 A    
C21   C22   1.401736 A    
C11   C12   1.524738 S    
P5    O17   1.764792 S    
O13   Ba2   2.925027 S    
C58   H42   1.079164 S    
N4    O35   1.302848 A    
O16   P7    1.747468 S    
C22   C26   1.411349 A    
C12   H22   1.112466 S    
C48   C56   1.416510 A    
H1    C10   1.113038 S    
C42   C43   1.424075 A    
C16   H33   1.106006 S    
C11   O22   1.404252 S    
C25   C30   1.438637 A    
O8    Ba1   2.744446 S    
C9    H18   1.110493 S    
C3    H6    1.109483 S    
C3    H24   1.107311 S    
N2    O29   1.300860 A    
O17   Ba2   2.745177 S    
P1    O5    1.750772 S    
O4    P6    1.539393 D    
C2    C3    1.529308 S    
C17   C18   1.415292 A    
N6    O41   1.302365 A    
N6    O40   1.291946 A    
Ba2   O20   2.796191 S    
C19   C20   1.385422 A    
C57   C58   1.380999 A    
C50   H40   1.072759 S    
C59   C61   1.402231 A    
P2    C52   1.881087 S    
C11   H20   1.111228 S    
C1    N2    1.456837 S    
Ba1   O13   2.825497 S    
P1    O2    1.583869 S    
P7    O22   1.748180 S    
C55   C57   1.401340 A    
P4    O12   1.520690 D    
C8    H15   1.105624 S    
C13   N3    1.453431 S    
C20   H34   1.081379 S    
C3    N5    1.458352 S    
C32   C33   1.427105 A    
C29   C30   1.441471 A    
C4    N6    1.447248 S    
C14   H28   1.110912 S    
P1    Ba1   3.406604 S    
C7    H12   1.110696 S    
C41   C43   1.417843 A    
C19   O33   1.377652 S    
O10   C8    1.397437 S    
C4    H7    1.098352 S    
C1    H3    1.112168 S    
C51   H41   1.077158 S    
P2    O20   1.580779 S    
C13   C14   1.530529 S    
O5    C6    1.394796 S    
Ba1   O20   2.912442 S    
C34   H36   1.075812 S    
C45   H39   1.081645 S    
P3    O8    1.725120 S    
C58   C59   1.403306 A    
P3    C61   1.859321 S    
N1    O26   1.300848 A    
C17   C22   1.427483 A    
O7    Ba1   2.880719 S    
O14   P8    1.734562 S    
C18   C34   1.404380 A    
C47   C48   1.412867 A    
C54   C55   1.406024 A    
C1    H2    1.112001 S    
C62   H45   1.082561 S    
C21   C23   1.412911 A    
C6    C7    1.523264 S    
O3    P6    1.732860 S    
N1    O25   1.299590 A    
C4    O15   1.395199 S    
C15   C16   1.521310 S    
N3    O32   1.302141 A    
H31   C16   1.109545 S    
C44   C45   1.409123 A    
C59   C60   1.415212 A    
P7    C54   1.836148 S    
C35   C36   1.412817 A    
C5    H9    1.112883 S    
C38   C41   1.412050 A    
C17   C31   1.410053 A    
O36   H49   0.990943 S    
C23   N4    1.427652 S    
N5    O39   1.301076 A    
C55   C56   1.416787 A    
P2    O7    1.501160 D    
P4    O13   1.583896 S    
C39   C40   1.386850 A    
P7    O21   1.569567 D    
C24   C27   1.441818 A    
C6    H11   1.108624 S    
O2    Ba2   2.826146 S    
C23   C24   1.437739 A    
Ba1   Ba2   4.595053 S    
C49   C52   1.419462 A    
O16   Ba2   2.911604 S    
C32   C42   1.424446 A    
P6    C44   1.867467 S    
O14   Ba2   2.796262 S    
C33   C34   1.401693 A    
C7    H13   1.106994 S    
P4    C29   1.915160 S    
C53   H44   1.081888 S    
C27   C28   1.412116 A    
C15   O24   1.406835 S    
C49   C60   1.420537 A    
P4    O15   1.758974 S    
C9    H16   1.110314 S    
P5    O19   1.765422 S    
C54   C62   1.393726 A    
N3    O31   1.292109 A    
C9    H17   1.109744 S    
C20   C21   1.410653 A    
C8    C9    1.528727 S    
C31   C32   1.427821 A    
P8    O24   1.760268 S    
P3    O9    1.548044 D    
O33   H48   0.987869 S    
O11   C2    1.404408 S    
O30   H47   0.992432 S    
C14   H27   1.111577 S    
C47   C62   1.393624 A    
O6    P6    1.747884 S    
C8    O27   1.403293 S    
C49   C50   1.404488 A    
C5    N1    1.462496 S    
C15   H30   1.093225 S    
C26   C37   1.411318 A    
C24   C25   1.436407 A    
C36   C39   1.406067 A    
