data_mof_unit_63721.cif
_audit_creation_date              2012-10-26T18:04:00-0400
_audit_creation_method            fapswitch 2.2
_symmetry_space_group_name_H-M    P1
_symmetry_Int_Tables_number       1
_space_group_crystal_system       triclinic
_cell_length_a                    38.719827
_cell_length_b                    32.212874
_cell_length_c                    21.808519
_cell_angle_alpha                 89.993487
_cell_angle_beta                  56.283748
_cell_angle_gamma                 89.996309
_cell_volume                      22625.920129

loop_
_atom_site_label
_atom_site_type_symbol
_atom_type_description
_atom_site_fract_x
_atom_site_fract_y
_atom_site_fract_z
_atom_type_partial_charge
C1    C     C_R   0.920509 0.500004 0.582559 0.518880
C2    C     C_3   0.001742 0.500355 0.687776 -0.029341
C3    C     C_R   0.528818 0.228718 0.934553 -0.000053
C4    C     C_R   0.000064 0.706462 0.000067 0.051666
C5    C     C_R   0.500066 0.206462 0.000068 0.051662
C6    C     C_1   0.500027 0.338750 0.000010 -0.044592
C7    C     C_1   0.000026 0.838750 0.000009 -0.044595
C8    C     C_1   0.000031 0.661487 0.000048 0.072224
C9    C     C_1   0.500032 0.161487 0.000048 0.072219
C10   C     C_1   0.000009 0.624025 0.000030 0.047232
C11   C     C_1   0.500009 0.124025 0.000030 0.047229
C12   C     C_1   0.500007 0.623813 0.999982 -0.009836
C13   C     C_3   0.498267 0.000369 0.312227 -0.029480
C14   C     C_1   0.000007 0.123810 0.999983 -0.009793
C15   C     C_1   0.500016 0.376218 0.000000 -0.017527
C16   C     C_1   0.000015 0.876218 0.000000 -0.017532
C17   C     C_R   0.497316 0.727936 0.058625 0.120457
C18   C     C_R   0.502732 0.727953 0.941319 0.120328
C19   C     C_R   0.997919 0.227930 0.058087 0.120502
C20   C     C_R   0.002111 0.227947 0.941874 0.120385
C21   C     C_R   0.500020 0.706241 0.999972 0.039644
C22   C     C_R   0.000014 0.206236 0.999977 0.039648
C23   C     C_R   0.000010 0.293557 0.999996 0.032426
C24   C     C_3   0.501744 0.000353 0.687773 -0.029338
C25   C     C_R   0.500018 0.793562 0.999987 0.032434
C26   C     C_R   0.002983 0.271891 0.941096 0.117835
C27   C     C_R   0.997042 0.271873 0.058884 0.117738
C28   C     C_R   0.503596 0.771897 0.940567 0.117846
C29   C     C_R   0.496451 0.771880 0.059391 0.117747
C30   C     C_3   0.993903 0.546659 0.290813 -0.060580
C31   C     C_3   0.006495 0.546609 0.708787 -0.060422
C32   C     C_3   0.493924 0.046660 0.290791 -0.060574
C33   C     C_3   0.506487 0.046608 0.708797 -0.060414
C34   C     C_3   0.990899 0.547678 0.220906 0.072426
C35   C     C_3   0.999427 0.500717 0.189599 -0.059159
C36   C     C_3   0.009518 0.547608 0.778671 0.072691
C37   C     C_3   0.490922 0.047678 0.220883 0.072452
C38   C     C_3   0.509509 0.047606 0.778683 0.072726
C39   C     C_3   0.040512 0.481079 0.246780 -0.059142
C40   C     C_3   0.959336 0.481430 0.753378 -0.059485
C41   C     C_3   0.540501 0.981056 0.246793 -0.059131
C42   C     C_3   0.459343 0.981418 0.753370 -0.059474
C43   C     C_2   0.027230 0.575992 0.282500 0.263168
C44   C     C_2   0.973421 0.576239 0.716870 0.263412
C45   C     C_2   0.527266 0.075976 0.282463 0.263143
C46   C     C_3   0.000583 0.500724 0.810402 -0.059097
C47   C     C_2   0.473406 0.076231 0.716889 0.263397
C48   C     C_2   0.981474 0.423655 0.213936 0.223174
C49   C     C_2   0.017870 0.423515 0.786803 0.223292
C50   C     C_2   0.481434 0.923655 0.213988 0.223377
C51   C     C_2   0.517890 0.923509 0.786772 0.223530
C52   C     C_3   0.707505 0.401830 0.845008 -0.300166
C53   C     C_3   0.272048 0.413187 0.114628 -0.305808
C54   C     C_3   0.207516 0.901759 0.844730 -0.300171
C55   C     C_3   0.772046 0.913017 0.114917 -0.305818
C56   C     C_2   0.704161 0.561883 0.723329 0.244492
C57   C     C_3   0.499426 0.000712 0.189600 -0.059200
C58   C     C_2   0.295967 0.559014 0.280022 0.244287
C59   C     C_2   0.204163 0.061972 0.723491 0.244480
C60   C     C_2   0.795966 0.059103 0.279872 0.244276
C61   C     C_3   0.803001 0.599533 0.662191 -0.253448
C62   C     C_3   0.197863 0.598384 0.340614 -0.253254
C63   C     C_3   0.303000 0.099576 0.662454 -0.253455
C64   C     C_3   0.697852 0.098420 0.340395 -0.253253
C65   C     C_2   0.060265 0.708535 0.863264 0.217475
C66   C     C_2   0.939909 0.708540 0.136909 0.218462
C67   C     C_2   0.560270 0.208534 0.863267 0.217486
C68   C     C_3   0.500585 0.000718 0.810401 -0.059139
C69   C     C_2   0.439909 0.208539 0.136909 0.218486
C70   C     C_3   0.953277 0.308038 0.174573 -0.283571
C71   C     C_3   0.046736 0.308096 0.825430 -0.283494
C72   C     C_3   0.451975 0.808115 0.174776 -0.283499
C73   C     C_3   0.548090 0.808163 0.825210 -0.283428
C74   C     C_3   0.533479 0.691777 0.104073 -0.302155
C75   C     C_3   0.466590 0.691823 0.895812 -0.301590
C76   C     C_3   0.034978 0.191786 0.101776 -0.302186
C77   C     C_3   0.965056 0.191825 0.898165 -0.301619
C78   C     C_2   0.949041 0.564612 0.239837 0.208147
C79   C     C_3   0.043515 0.486229 0.172813 -0.098746
C80   C     C_2   0.051525 0.564212 0.759544 0.207905
C81   C     C_2   0.449072 0.064631 0.239802 0.208146
C82   C     C_2   0.551512 0.064218 0.759560 0.207902
C83   C     C_3   0.015901 0.621031 0.172987 -0.268252
C84   C     C_3   0.985123 0.621162 0.826021 -0.268656
C85   C     C_3   0.515957 0.121020 0.172930 -0.268253
C86   C     C_3   0.485100 0.121154 0.826050 -0.268663
C87   C     C_3   0.112352 0.468442 0.211935 -0.307608
C88   C     C_3   0.887398 0.469405 0.788321 -0.303952
C89   C     C_3   0.612333 0.968383 0.211959 -0.307585
C90   C     C_3   0.956373 0.486612 0.827302 -0.098964
C91   C     C_3   0.387408 0.969377 0.788308 -0.303939
C92   C     C_2   0.081352 0.511432 0.115838 0.286287
C93   C     C_2   0.918755 0.512140 0.884054 0.286345
C94   C     C_2   0.581356 0.011386 0.115835 0.286319
C95   C     C_2   0.418753 0.012115 0.884055 0.286372
C96   C     C_3   0.923938 0.403777 0.389060 -0.287403
C97   C     C_3   0.075245 0.403116 0.611877 -0.287002
C98   C     C_3   0.423885 0.903818 0.389126 -0.287381
C99   C     C_3   0.575273 0.903135 0.611836 -0.286980
C100  C     C_3   0.904614 0.498626 0.454445 -0.276213
C101  C     C_3   0.543507 0.986203 0.172823 -0.098757
C102  C     C_3   0.095364 0.497775 0.545599 -0.276154
C103  C     C_3   0.404611 0.998681 0.454446 -0.276214
C104  C     C_3   0.595367 0.997803 0.545598 -0.276155
C105  C     C_3   0.891926 0.440744 0.290343 -0.240093
C106  C     C_3   0.107557 0.439850 0.710278 -0.240175
C107  C     C_3   0.391892 0.940794 0.290386 -0.240136
C108  C     C_3   0.607576 0.939871 0.710250 -0.240224
C109  C     C_R   0.079491 0.500006 0.417455 0.518872
C110  C     C_3   0.456378 0.986597 0.827297 -0.098975
C111  C     C_3   0.965112 0.467031 0.247590 0.154986
C112  C     C_3   0.034606 0.466746 0.752748 0.154764
C113  C     C_3   0.465093 0.967043 0.247611 0.154863
C114  C     C_3   0.534615 0.966747 0.752736 0.154620
C115  C     C_R   0.728473 0.473158 0.809865 0.146982
C116  C     C_R   0.271652 0.472166 0.189740 0.157224
C117  C     C_R   0.228473 0.973107 0.809786 0.146984
C118  C     C_R   0.771652 0.972115 0.189821 0.157226
C119  C     C_R   0.706259 0.502468 0.796380 -0.024497
C120  C     C_R   0.420509 0.000004 0.582560 0.518881
C121  C     C_R   0.293684 0.500848 0.204975 -0.019642
C122  C     C_R   0.206260 0.002463 0.796381 -0.024497
C123  C     C_R   0.793684 0.000844 0.204978 -0.019652
C124  C     C_R   0.727943 0.531679 0.738253 0.027336
C125  C     C_R   0.272109 0.529679 0.263784 0.024965
C126  C     C_R   0.227943 0.031720 0.738334 0.027334
C127  C     C_R   0.772109 0.029719 0.263713 0.024968
C128  C     C_R   0.772066 0.531412 0.694661 0.163319
C129  C     C_R   0.228056 0.529967 0.306752 0.163122
C130  C     C_R   0.272067 0.031453 0.694741 0.163316
C131  C     C_R   0.579491 0.000006 0.417455 0.518868
C132  C     C_R   0.728056 0.030004 0.306685 0.163114
C133  C     C_R   0.793682 0.501641 0.708514 -0.019794
C134  C     C_R   0.206337 0.501178 0.291574 -0.016783
C135  C     C_R   0.293683 0.001639 0.708516 -0.019803
C136  C     C_R   0.706337 0.001174 0.291576 -0.016797
C137  C     C_R   0.998544 0.500079 0.381144 0.560743
C138  C     C_R   0.001470 0.500073 0.618846 0.560532
C139  C     C_R   0.498543 0.000079 0.381145 0.560755
C140  C     C_R   0.501471 0.000073 0.618844 0.560535
C141  C     C_R   0.771886 0.473069 0.765667 -0.102583
C142  C     C_3   0.959768 0.472643 0.325662 0.233003
C143  C     C_R   0.227914 0.472979 0.233692 -0.108675
C144  C     C_R   0.271886 0.973021 0.765590 -0.102595
C145  C     C_R   0.727914 0.972932 0.233768 -0.108677
C146  C     C_1   0.661240 0.501341 0.840546 -0.079702
C147  C     C_1   0.338743 0.500428 0.159960 -0.070844
C148  C     C_1   0.161241 0.001338 0.840546 -0.079708
C149  C     C_1   0.838743 0.000426 0.159962 -0.070877
C150  C     C_1   0.838513 0.500580 0.665144 -0.073834
C151  C     C_1   0.161484 0.500458 0.334885 -0.072825
C152  C     C_1   0.338513 0.000579 0.665145 -0.073845
C153  C     C_3   0.040001 0.472294 0.674620 0.233033
C154  C     C_1   0.661484 0.000455 0.334886 -0.072836
C155  C     C_1   0.875950 0.500124 0.627998 -0.048551
C156  C     C_1   0.124047 0.500117 0.372014 -0.048445
C157  C     C_1   0.375951 0.000123 0.627999 -0.048563
C158  C     C_1   0.624046 0.000116 0.372014 -0.048455
C159  C     C_1   0.623776 0.500578 0.877265 -0.027813
C160  C     C_1   0.376218 0.500155 0.122838 -0.023773
C161  C     C_1   0.123776 0.000577 0.877265 -0.027834
C162  C     C_1   0.876218 0.000154 0.122839 -0.023804
C163  C     C_1   0.500013 0.661269 0.999974 0.014860
C164  C     C_3   0.459751 0.972661 0.325681 0.232987
C165  C     C_1   0.000011 0.161265 0.999976 0.014900
C166  C     C_R   0.000001 0.579497 0.000004 0.515894
C167  C     C_R   0.500001 0.079498 0.000004 0.515925
C168  C     C_R   0.000060 0.499571 0.120112 0.572138
C169  C     C_R   0.999941 0.499590 0.879892 0.572466
C170  C     C_R   0.500059 0.999565 0.120112 0.572068
C171  C     C_R   0.499941 0.999584 0.879892 0.572397
C172  C     C_1   0.000005 0.338473 0.000009 0.026899
C173  C     C_1   0.500009 0.838478 0.000003 0.026913
C174  C     C_R   0.000000 0.420407 0.000014 0.633358
C175  C     C_3   0.540010 0.972301 0.674608 0.233021
C176  C     C_R   0.500000 0.920408 0.000013 0.633219
C177  C     C_1   0.000001 0.375894 0.000015 0.057536
C178  C     C_1   0.500003 0.875897 0.000013 0.057445
C179  C     C_R   0.500004 0.420818 1.000000 0.545647
C180  C     C_R   0.000004 0.920818 1.000000 0.545638
C181  C     C_R   0.579191 0.500013 0.921107 0.547499
C182  C     C_R   0.420808 0.499974 0.078899 0.547437
C183  C     C_R   0.079191 0.000013 0.921107 0.547461
C184  C     C_R   0.920808 0.999974 0.078899 0.547401
C185  C     C_R   0.500001 0.579238 0.999995 0.540743
C186  C     C_3   0.998269 0.500369 0.312224 -0.029484
C187  C     C_R   0.000001 0.079237 0.999995 0.540682
C188  C     C_R   0.528164 0.272305 0.935718 -0.137827
C189  C     C_R   0.471939 0.272307 0.064366 -0.137325
C190  C     C_R   0.028162 0.772305 0.935716 -0.137828
C191  C     C_R   0.971939 0.772307 0.064366 -0.137327
C192  C     C_R   0.500041 0.293978 0.000029 0.020876
C193  C     C_R   0.000040 0.793978 0.000029 0.020876
C194  C     C_R   0.971319 0.728719 0.065579 -0.000296
C195  C     C_R   0.028815 0.728718 0.934551 -0.000049
C196  C     C_R   0.471320 0.228719 0.065579 -0.000303
Cu1   Cu    Cu3+1 0.000000 0.540990 0.500000 1.050409
Cu2   Cu    Cu3+1 0.500030 0.500020 0.062450 0.962092
Cu3   Cu    Cu3+1 0.999970 0.000020 0.937550 0.966275
Cu4   Cu    Cu3+1 0.000030 0.000020 0.062450 0.962161
Cu5   Cu    Cu3+1 0.500000 0.040990 0.500000 1.050399
Cu6   Cu    Cu3+1 0.000000 0.458960 0.500000 0.906497
Cu7   Cu    Cu3+1 0.500000 0.958960 0.500000 0.906523
Cu8   Cu    Cu3+1 0.958960 0.499950 0.041020 1.040701
Cu9   Cu    Cu3+1 0.041040 0.499950 0.958980 1.039451
Cu10  Cu    Cu3+1 0.458960 0.999950 0.041020 1.040598
Cu11  Cu    Cu3+1 0.541040 0.999950 0.958980 1.039326
Cu12  Cu    Cu3+1 0.499970 0.500020 0.937550 0.966208
H1    H     H_    0.039579 0.447317 0.256793 0.121306
H2    H     H_    0.209998 0.451520 0.223851 0.112749
H3    H     H_    0.970181 0.172592 0.851555 0.149890
H4    H     H_    0.941011 0.562480 0.199651 0.160190
H5    H     H_    0.059540 0.562087 0.799749 0.160393
H6    H     H_    0.441041 0.062499 0.199617 0.160185
H7    H     H_    0.559528 0.062092 0.799764 0.160397
H8    H     H_    0.033606 0.568532 0.109924 0.262124
H9    H     H_    0.997966 0.631677 0.150093 0.179372
H10   H     H_    0.046536 0.636802 0.142499 0.144783
H11   H     H_    0.998822 0.630426 0.231693 0.226838
H12   H     H_    0.966985 0.568790 0.889492 0.261694
H13   H     H_    0.288773 0.950626 0.776456 0.128271
H14   H     H_    0.003148 0.631646 0.848828 0.179520
H15   H     H_    0.954619 0.637184 0.856394 0.144673
H16   H     H_    0.002275 0.630430 0.767243 0.226738
H17   H     H_    0.533640 0.068512 0.109891 0.262161
H18   H     H_    0.498023 0.131673 0.150036 0.179307
H19   H     H_    0.546599 0.136777 0.142429 0.144779
H20   H     H_    0.498885 0.130423 0.231631 0.226836
H21   H     H_    0.466971 0.068778 0.889508 0.261719
H22   H     H_    0.503126 0.131639 0.848854 0.179473
H23   H     H_    0.454593 0.137171 0.856432 0.144670
H24   H     H_    0.709998 0.951443 0.223980 0.112761
H25   H     H_    0.502248 0.130427 0.767275 0.226737
H26   H     H_    0.073307 0.513002 0.286277 0.266522
H27   H     H_    0.105308 0.443569 0.252612 0.141832
H28   H     H_    0.140346 0.485568 0.199961 0.151302
H29   H     H_    0.119190 0.454214 0.159937 0.182144
H30   H     H_    0.926815 0.513633 0.713600 0.266553
H31   H     H_    0.894234 0.444473 0.747858 0.142474
H32   H     H_    0.859553 0.486770 0.800141 0.154228
H33   H     H_    0.880440 0.455236 0.840443 0.184299
H34   H     H_    0.573312 0.012965 0.286272 0.266508
H35   H     H_    0.549867 0.289605 0.886145 0.102738
H36   H     H_    0.605276 0.943515 0.252651 0.141847
H37   H     H_    0.640335 0.985495 0.199975 0.151306
H38   H     H_    0.619164 0.954149 0.159969 0.182144
H39   H     H_    0.426814 0.013617 0.713603 0.266544
H40   H     H_    0.394250 0.944448 0.747836 0.142491
H41   H     H_    0.359559 0.986736 0.800133 0.154226
H42   H     H_    0.380453 0.955205 0.840425 0.184296
H43   H     H_    0.087393 0.541944 0.128379 0.146146
H44   H     H_    0.912975 0.542701 0.871244 0.146063
H45   H     H_    0.587411 0.041896 0.128360 0.146139
H46   H     H_    0.450235 0.289609 0.113927 0.103860
H47   H     H_    0.412967 0.042677 0.871254 0.146056
H48   H     H_    0.986454 0.416444 0.338542 0.230249
H49   H     H_    0.923837 0.383727 0.430563 0.133567
H50   H     H_    0.926981 0.383122 0.345743 0.116753
H51   H     H_    0.893888 0.420319 0.417924 0.172726
H52   H     H_    0.012836 0.416310 0.662265 0.230317
H53   H     H_    0.075163 0.383038 0.570591 0.133728
H54   H     H_    0.072043 0.382513 0.655390 0.116712
H55   H     H_    0.105434 0.419404 0.582824 0.173029
H56   H     H_    0.486407 0.916451 0.338597 0.230272
H57   H     H_    0.049862 0.789605 0.886143 0.102730
H58   H     H_    0.423770 0.883774 0.430648 0.133581
H59   H     H_    0.426919 0.883155 0.345824 0.116841
H60   H     H_    0.393844 0.920376 0.417971 0.172688
H61   H     H_    0.512861 0.916312 0.662234 0.230340
H62   H     H_    0.575198 0.883064 0.570536 0.133736
H63   H     H_    0.572074 0.882525 0.655339 0.116818
H64   H     H_    0.605457 0.919431 0.582797 0.172985
H65   H     H_    0.912022 0.518603 0.358481 0.276919
H66   H     H_    0.917281 0.527393 0.462633 0.158622
H67   H     H_    0.912240 0.471364 0.475530 0.198574
H68   H     H_    0.950237 0.789610 0.113929 0.103852
H69   H     H_    0.870294 0.501473 0.486801 0.129561
H70   H     H_    0.088149 0.517832 0.641363 0.277036
H71   H     H_    0.082998 0.526686 0.537142 0.157892
H72   H     H_    0.087440 0.470611 0.524785 0.199165
H73   H     H_    0.129710 0.500236 0.513207 0.129527
H74   H     H_    0.412030 0.018646 0.358468 0.276923
H75   H     H_    0.417298 0.027439 0.462614 0.158662
H76   H     H_    0.412218 0.971413 0.475551 0.198533
H77   H     H_    0.370293 0.001553 0.486800 0.129589
H78   H     H_    0.588148 0.017849 0.641370 0.277042
H79   H     H_    0.964788 0.558964 0.339517 0.194541
H80   H     H_    0.582987 0.026709 0.537156 0.157916
H81   H     H_    0.587456 0.970636 0.524769 0.199134
H82   H     H_    0.629712 0.000282 0.513207 0.129549
H83   H     H_    0.912372 0.500740 0.261898 0.246729
H84   H     H_    0.871761 0.446129 0.350549 0.138670
H85   H     H_    0.903960 0.408615 0.278181 0.165744
H86   H     H_    0.872121 0.444041 0.268477 0.140909
H87   H     H_    0.087620 0.500019 0.738146 0.246862
H88   H     H_    0.127754 0.445039 0.650018 0.139074
H89   H     H_    0.095254 0.407824 0.722769 0.165528
H90   H     H_    0.035710 0.558657 0.659956 0.194462
H91   H     H_    0.127403 0.443007 0.732084 0.140885
H92   H     H_    0.412373 0.000777 0.261890 0.246733
H93   H     H_    0.371727 0.946198 0.350586 0.138665
H94   H     H_    0.403907 0.908658 0.278259 0.165638
H95   H     H_    0.372092 0.944095 0.268512 0.140865
H96   H     H_    0.587619 0.000032 0.738155 0.246869
H97   H     H_    0.627773 0.945074 0.649994 0.139066
H98   H     H_    0.595283 0.907840 0.722714 0.165416
H99   H     H_    0.627418 0.943025 0.732063 0.140837
H100  H     H_    0.464815 0.058981 0.339486 0.194548
H101  H     H_    0.959981 0.447661 0.743661 0.121338
H102  H     H_    0.535699 0.058663 0.659970 0.194466
H103  H     H_    0.059474 0.572293 0.238325 0.134131
H104  H     H_    0.941145 0.572806 0.761059 0.134111
H105  H     H_    0.559508 0.072262 0.238290 0.134124
H106  H     H_    0.441130 0.072790 0.761077 0.134103
H107  H     H_    0.998707 0.404580 0.228850 0.072636
H108  H     H_    0.000470 0.404584 0.772071 0.073156
H109  H     H_    0.498669 0.904583 0.228899 0.072817
H110  H     H_    0.500480 0.904587 0.772050 0.073347
H111  H     H_    0.679165 0.452986 0.913017 0.264329
H112  H     H_    0.539549 0.947295 0.256826 0.121304
H113  H     H_    0.692406 0.380876 0.893616 0.148370
H114  H     H_    0.739721 0.390665 0.805553 0.151508
H115  H     H_    0.689873 0.400516 0.818613 0.150292
H116  H     H_    0.321564 0.432286 0.120960 0.259895
H117  H     H_    0.294654 0.394738 0.065218 0.149380
H118  H     H_    0.251075 0.429172 0.102478 0.155805
H119  H     H_    0.254195 0.391648 0.162023 0.139400
H120  H     H_    0.179161 0.952863 0.912876 0.264322
H121  H     H_    0.192414 0.880763 0.893280 0.148366
H122  H     H_    0.239734 0.890608 0.805255 0.151503
H123  H     H_    0.459996 0.947649 0.743643 0.121332
H124  H     H_    0.189890 0.900493 0.818318 0.150290
H125  H     H_    0.821574 0.932225 0.121130 0.259897
H126  H     H_    0.794650 0.894520 0.065577 0.149361
H127  H     H_    0.751069 0.928941 0.102712 0.155788
H128  H     H_    0.754197 0.891531 0.162398 0.139416
H129  H     H_    0.671467 0.567383 0.764227 0.103835
H130  H     H_    0.328713 0.564510 0.239536 0.103805
H131  H     H_    0.171470 0.067466 0.764408 0.103780
H132  H     H_    0.828712 0.064590 0.239370 0.103760
H133  H     H_    0.820445 0.549923 0.590258 0.249747
H134  H     H_    0.050569 0.454939 0.147064 0.142176
H135  H     H_    0.824094 0.593447 0.680730 0.134575
H136  H     H_    0.773667 0.613543 0.708158 0.168374
H137  H     H_    0.818167 0.622061 0.615890 0.163952
H138  H     H_    0.179621 0.548097 0.411398 0.249525
H139  H     H_    0.176890 0.593187 0.321543 0.134735
H140  H     H_    0.227432 0.612339 0.295214 0.168543
H141  H     H_    0.182802 0.620558 0.387459 0.164091
H142  H     H_    0.320447 0.050033 0.590389 0.249768
H143  H     H_    0.324092 0.093444 0.680980 0.134567
H144  H     H_    0.273665 0.113566 0.708457 0.168353
H145  H     H_    0.949047 0.455384 0.853327 0.142621
H146  H     H_    0.318167 0.122143 0.616213 0.163937
H147  H     H_    0.679623 0.048190 0.411293 0.249546
H148  H     H_    0.676876 0.093175 0.321345 0.134734
H149  H     H_    0.727417 0.112362 0.294958 0.168534
H150  H     H_    0.682791 0.120628 0.387189 0.164085
H151  H     H_    0.079771 0.727637 0.814832 0.115060
H152  H     H_    0.920211 0.727667 0.185207 0.115826
H153  H     H_    0.579771 0.227636 0.814831 0.115068
H154  H     H_    0.420216 0.227666 0.185210 0.115834
H155  H     H_    0.010567 0.281615 0.137860 0.252498
H156  H     H_    0.550545 0.954909 0.147091 0.142090
H157  H     H_    0.932839 0.280789 0.202708 0.125505
H158  H     H_    0.939731 0.327671 0.151155 0.178497
H159  H     H_    0.954655 0.326735 0.215943 0.156238
H160  H     H_    0.989456 0.281657 0.862123 0.252721
H161  H     H_    0.067184 0.280857 0.797272 0.125583
H162  H     H_    0.060276 0.327719 0.848864 0.178059
H163  H     H_    0.045350 0.326808 0.784078 0.156068
H164  H     H_    0.509011 0.781606 0.139625 0.252488
H165  H     H_    0.431422 0.780899 0.202615 0.125580
H166  H     H_    0.438830 0.827738 0.150637 0.178014
H167  H     H_    0.449060 0.955367 0.853313 0.142534
H168  H     H_    0.452944 0.826846 0.216542 0.156222
H169  H     H_    0.491069 0.781646 0.860291 0.252712
H170  H     H_    0.568657 0.780954 0.797394 0.125684
H171  H     H_    0.561210 0.827794 0.849380 0.177573
H172  H     H_    0.547137 0.826892 0.783419 0.155947
H173  H     H_    0.474849 0.718185 0.169175 0.255686
H174  H     H_    0.552661 0.719034 0.098271 0.134149
H175  H     H_    0.550782 0.672679 0.053195 0.163106
H176  H     H_    0.527895 0.672534 0.151004 0.149554
H177  H     H_    0.525226 0.718226 0.830756 0.255747
H178  H     H_    0.788773 0.450708 0.776593 0.128262
H179  H     H_    0.447418 0.719087 0.901597 0.134584
H180  H     H_    0.449273 0.672719 0.946687 0.163496
H181  H     H_    0.472186 0.672591 0.848869 0.149918
H182  H     H_    0.976425 0.218168 0.168204 0.255657
H183  H     H_    0.054288 0.219050 0.095394 0.134220
H184  H     H_    0.051917 0.172699 0.050845 0.163028
H185  H     H_    0.029856 0.172536 0.148376 0.149518
H186  H     H_    0.023608 0.218215 0.831753 0.255720
H187  H     H_    0.945744 0.219093 0.904563 0.134656
H188  H     H_    0.948119 0.172725 0.949086 0.163412
N1    N     N_2   0.707720 0.443777 0.868412 -0.511324
N2    N     N_2   0.005352 0.294624 0.882711 -0.506799
N3    N     N_2   0.493512 0.794597 0.118288 -0.507216
N4    N     N_2   0.506551 0.794631 0.881663 -0.506526
N5    N     N_2   0.494136 0.705214 0.117700 -0.515515
N6    N     N_2   0.505927 0.705247 0.882225 -0.515662
N7    N     N_2   0.995359 0.205207 0.116619 -0.515502
N8    N     N_2   0.004674 0.205241 0.883332 -0.515640
N9    N     N_2   0.022141 0.576282 0.163725 -0.567535
N10   N     N_2   0.978518 0.576465 0.835628 -0.567533
N11   N     N_2   0.522177 0.076268 0.163688 -0.567525
N12   N     N_2   0.294111 0.443280 0.129912 -0.503209
N13   N     N_2   0.478502 0.076456 0.835646 -0.567525
N14   N     N_2   0.077581 0.496832 0.241881 -0.541304
N15   N     N_2   0.922406 0.497500 0.758132 -0.542802
N16   N     N_2   0.577578 0.996791 0.241886 -0.541301
N17   N     N_2   0.422409 0.997480 0.758129 -0.542800
N18   N     N_2   0.959040 0.431915 0.358024 -0.482351
N19   N     N_2   0.040380 0.431546 0.642656 -0.482368
N20   N     N_2   0.459002 0.931937 0.358070 -0.482345
N21   N     N_2   0.540400 0.931556 0.642629 -0.482354
N22   N     N_2   0.920100 0.493888 0.377427 -0.510649
N23   N     N_2   0.207719 0.943678 0.868251 -0.511326
N24   N     N_2   0.079850 0.493185 0.622655 -0.510602
N25   N     N_2   0.420095 0.993929 0.377431 -0.510647
N26   N     N_2   0.579854 0.993204 0.622652 -0.510599
N27   N     N_2   0.924623 0.471759 0.255721 -0.444644
N28   N     N_2   0.075122 0.471139 0.744613 -0.444763
N29   N     N_2   0.424607 0.971789 0.255738 -0.444626
N30   N     N_2   0.575131 0.971149 0.744604 -0.444746
N31   N     N_2   0.794110 0.943180 0.130075 -0.503207
N32   N     N_2   0.794544 0.561425 0.637763 -0.446289
N33   N     N_2   0.205742 0.559654 0.364322 -0.446262
N34   N     N_2   0.294545 0.061508 0.637923 -0.446285
N35   N     N_2   0.705740 0.059727 0.364188 -0.446253
N36   N     N_2   0.994667 0.294588 0.117282 -0.507454
O1    O     O_R   0.940150 0.534620 0.559830 -0.498718
O2    O     O_R   0.440170 0.499950 0.007050 -0.499692
O3    O     O_R   0.059830 0.999950 0.992950 -0.503987
O4    O     O_R   0.940170 0.999950 0.007050 -0.499699
O5    O     O_R   0.500010 0.559860 0.947320 -0.501174
O6    O     O_R   0.499990 0.559860 0.052680 -0.501386
O7    O     O_R   0.000010 0.059860 0.947320 -0.501116
O8    O     O_R   0.999990 0.059860 0.052680 -0.501327
O9    O     O_R   0.940110 0.465340 0.559870 -0.516957
O10   O     O_R   0.059890 0.465340 0.440130 -0.517444
O11   O     O_R   0.440110 0.965340 0.559870 -0.516934
O12   O     O_R   0.059850 0.534620 0.440170 -0.497905
O13   O     O_R   0.559890 0.965340 0.440130 -0.517435
O14   O     O_R   0.999990 0.534620 0.408860 -0.486503
O15   O     O_R   0.000010 0.534620 0.591140 -0.486500
O16   O     O_R   0.499990 0.034620 0.408860 -0.486505
O17   O     O_R   0.500010 0.034620 0.591140 -0.486502
O18   O     O_R   0.999950 0.465340 0.408890 -0.502670
O19   O     O_R   0.000050 0.465340 0.591110 -0.502539
O20   O     O_R   0.499950 0.965340 0.408890 -0.502677
O21   O     O_R   0.500050 0.965340 0.591110 -0.502541
O22   O     O_R   0.965330 0.559800 0.034660 -0.514453
O23   O     O_R   0.440150 0.034620 0.559830 -0.498736
O24   O     O_R   0.034670 0.559800 0.965340 -0.514486
O25   O     O_R   0.465330 0.059800 0.034660 -0.514436
O26   O     O_R   0.534670 0.059800 0.965340 -0.514472
O27   O     O_R   0.965350 0.499950 0.125800 -0.504263
O28   O     O_R   0.034650 0.499950 0.874200 -0.504984
O29   O     O_R   0.465350 0.999950 0.125800 -0.504241
O30   O     O_R   0.534650 0.999950 0.874200 -0.504990
O31   O     O_R   0.034620 0.500000 0.056540 -0.484266
O32   O     O_R   0.965380 0.500000 0.943460 -0.483782
O33   O     O_R   0.534620 0.000000 0.056540 -0.484302
O34   O     O_R   0.559850 0.034620 0.440170 -0.497902
O35   O     O_R   0.465380 0.000000 0.943460 -0.483808
O36   O     O_R   0.965350 0.440100 0.034640 -0.481903
O37   O     O_R   0.034650 0.440100 0.965360 -0.482504
O38   O     O_R   0.465350 0.940100 0.034640 -0.481970
O39   O     O_R   0.534650 0.940100 0.965360 -0.482580
O40   O     O_R   0.499940 0.440170 0.947210 -0.501173
O41   O     O_R   0.500060 0.440170 0.052790 -0.501285
O42   O     O_R   0.999940 0.940170 0.947210 -0.501175
O43   O     O_R   0.000060 0.940170 0.052790 -0.501288
O44   O     O_2   0.017804 0.605184 0.324750 -0.493391
O45   O     O_R   0.559820 0.500010 0.887440 -0.499103
O46   O     O_2   0.983100 0.605369 0.674401 -0.493649
O47   O     O_2   0.517855 0.105172 0.324700 -0.493391
O48   O     O_2   0.483078 0.105363 0.674427 -0.493650
O49   O     O_2   0.978201 0.410852 0.164657 -0.514486
O50   O     O_2   0.021035 0.410694 0.836198 -0.514302
O51   O     O_2   0.478138 0.910838 0.164742 -0.514099
O52   O     O_2   0.521076 0.910671 0.836134 -0.513880
O53   O     O_2   0.720360 0.580490 0.664869 -0.462528
O54   O     O_2   0.279760 0.576870 0.339176 -0.462038
O55   O     O_2   0.220360 0.080627 0.665077 -0.462516
O56   O     O_R   0.440180 0.500010 0.112560 -0.500382
O57   O     O_2   0.779760 0.077012 0.338978 -0.462031
O58   O     O_2   0.065332 0.671004 0.857107 -0.508280
O59   O     O_2   0.935120 0.670981 0.143275 -0.507853
O60   O     O_2   0.565345 0.171004 0.857117 -0.508245
O61   O     O_2   0.435115 0.170981 0.143270 -0.507799
O62   O     O_2   0.925925 0.584669 0.295720 -0.523510
O63   O     O_2   0.074812 0.584030 0.703434 -0.524136
O64   O     O_2   0.425967 0.084704 0.295671 -0.523490
O65   O     O_2   0.574795 0.084043 0.703456 -0.524130
O66   O     O_2   0.106976 0.496588 0.055575 -0.500152
O67   O     O_R   0.059820 0.000010 0.887440 -0.499103
O68   O     O_2   0.893004 0.497518 0.944449 -0.498707
O69   O     O_2   0.606973 0.996528 0.055581 -0.500175
O70   O     O_2   0.393006 0.997486 0.944444 -0.498735
O71   O     O_R   0.940180 0.000010 0.112560 -0.500384
O72   O     O_R   0.559830 0.499950 0.992950 -0.503984

loop_
_geom_bond_atom_site_label_1
_geom_bond_atom_site_label_2
_ccdc_geom_bond_type
C172  C177  T    
C17   N5    S    
C140  O21   A    
C115  C141  A    
H74   N25   S    
C21   C163  S    
C46   C112  S    
C18   C21   A    
C60   H132  S    
C32   C45   S    
C44   H104  S    
C74   H175  S    
C102  H73   S    
Cu6   O9    S    
C62   H139  S    
C72   H168  S    
Cu11  O39   S    
C176  O39   A    
C24   C140  S    
C59   C126  S    
C4    C194  A    
H138  N33   S    
C86   H23   S    
C13   C139  S    
C185  O6    A    
C98   N20   S    
C154  C158  T    
Cu7   O21   S    
Cu2   O41   S    
C65   H151  S    
C120  O11   A    
C99   H64   S    
C87   H27   S    
C139  O20   A    
C39   H1    S    
C48   H107  S    
C34   C35   S    
H160  N2    S    
C137  O18   A    
C111  C142  S    
C134  C143  A    
C152  C157  T    
C77   H187  S    
C96   H49   S    
C69   H154  S    
C75   H181  S    
C122  C148  S    
C109  O10   A    
C70   H158  S    
C97   H53   S    
C66   O59   D    
C108  H98   S    
Cu3   Cu4   S    
Cu12  O5    S    
C169  O28   A    
C11   C167  S    
C37   C81   S    
C92   O66   D    
C66   C194  S    
C25   C29   A    
C86   H25   S    
C116  C121  A    
C100  H67   S    
C137  O14   A    
H133  N32   S    
C105  H86   S    
H78   N26   S    
C36   C80   S    
C88   H33   S    
Cu4   O43   S    
Cu10  Cu11  S    
C38   N13   S    
C88   H31   S    
Cu7   O11   S    
C25   C28   A    
C84   N10   S    
C131  C158  S    
H116  N12   S    
Cu11  O30   S    
C180  O42   A    
C77   N8    S    
C76   H184  S    
C181  O72   A    
C85   H20   S    
C68   C110  S    
C159  C181  S    
C174  C177  S    
C107  H95   S    
C174  O36   A    
C80   O63   D    
C145  H24   S    
C125  C129  A    
C30   H79   S    
C33   C47   S    
Cu2   O56   S    
C30   C43   S    
Cu5   O16   S    
C29   N3    S    
C78   H4    S    
C90   C93   S    
C79   C92   S    
C137  C186  S    
C91   H40   S    
C70   H159  S    
C99   H62   S    
Cu4   O3    S    
C99   N21   S    
C1    O1    A    
Cu10  O35   S    
C76   N7    S    
C84   H15   S    
C89   N16   S    
C100  N22   S    
C40   N15   S    
H61   N21   S    
Cu5   O17   S    
C138  O19   A    
C90   H145  S    
C33   C38   S    
C41   N16   S    
C191  C194  A    
H48   N18   S    
Cu12  O40   S    
C12   C163  T    
C14   C187  S    
C189  C196  A    
C96   H51   S    
C134  C151  S    
C55   N31   S    
C89   H37   S    
C190  H57   S    
C97   H55   S    
C82   H7    S    
C66   H152  S    
C8    C10   T    
C31   C36   S    
C188  H35   S    
C113  N29   S    
C149  C162  T    
Cu12  O45   S    
C37   C57   S    
C82   O65   D    
C91   H42   S    
C88   H32   S    
C141  H178  S    
C61   H136  S    
C15   C179  S    
C100  H69   S    
C54   H121  S    
C55   H127  S    
C13   C32   S    
C102  H71   S    
C47   O48   D    
C129  N33   S    
C168  O31   A    
C52   H114  S    
C61   N32   S    
C119  C146  S    
C121  C125  A    
C183  O67   A    
H34   N16   S    
C128  N32   S    
C68   C171  S    
C176  O38   A    
C12   C185  S    
C135  C152  S    
Cu3   O7    S    
Cu4   O8    S    
C63   N34   S    
C109  C156  S    
C103  H77   S    
C107  H93   S    
H92   N29   S    
C182  O2    A    
C98   H60   S    
C18   N6    S    
C142  N22   S    
H83   N27   S    
C36   C46   S    
H21   N13   S    
C176  C178  S    
C109  O12   A    
C48   O49   D    
Cu5   Cu7   S    
Cu1   O12   S    
C147  C160  T    
C167  O25   A    
C166  O24   A    
C91   N17   S    
C51   C114  S    
C30   C34   S    
C104  N26   S    
Cu10  O25   S    
C64   H148  S    
C117  C144  A    
C18   C28   A    
C73   H170  S    
C57   C113  S    
C41   H112  S    
C26   N2    S    
C69   O61   D    
C79   H134  S    
C130  N34   S    
C100  H66   S    
C83   N9    S    
C27   N36   S    
C72   N3    S    
C96   N18   S    
C117  C122  A    
C5    C9    S    
C2    C40   S    
C83   H11   S    
C123  C127  A    
C132  C136  A    
C53   H117  S    
C169  O32   A    
C121  C147  S    
C35   C168  S    
C42   H123  S    
Cu1   Cu6   S    
C32   C37   S    
C117  N23   S    
C45   H105  S    
C144  H13   S    
C190  C195  A    
C104  H80   S    
C5    C196  A    
H142  N34   S    
C115  C119  A    
C150  C155  T    
C58   H130  S    
C95   O70   D    
C187  O8    A    
C164  N20   S    
C112  N28   S    
C103  H76   S    
C57   C170  S    
C104  H81   S    
C164  N25   S    
C118  C145  A    
C74   H176  S    
C133  C150  S    
Cu6   O10   S    
C62   H140  S    
C72   H165  S    
C53   N12   S    
C168  O27   A    
C80   H5    S    
C28   N4    S    
C10   C166  S    
C57   C101  S    
H8    N9    S    
C188  C192  A    
Cu1   O15   S    
C185  O5    A    
C42   C110  S    
C78   O62   D    
C84   H14   S    
Cu3   O42   S    
C173  C178  T    
C98   H58   S    
C99   H63   S    
H120  N23   S    
C63   H143  S    
C131  O13   A    
C64   H149  S    
H65   N22   S    
C153  N24   S    
C181  O45   A    
Cu8   Cu9   S    
C71   H162  S    
C96   H50   S    
C139  O16   A    
C67   H153  S    
C65   C195  S    
C16   C180  S    
C132  N35   S    
C175  N21   S    
C153  N19   S    
C166  O22   A    
C87   H29   S    
C95   H47   S    
C17   C29   A    
C130  C135  A    
C73   H172  S    
C131  O34   A    
C13   C41   S    
C71   H163  S    
C64   N35   S    
C71   N2    S    
C54   H124  S    
C56   C124  S    
C182  O56   A    
C70   H157  S    
C105  H85   S    
C83   H9    S    
C167  O26   A    
C42   N17   S    
C111  N27   S    
H155  N36   S    
C126  C130  A    
C53   H119  S    
Cu5   O34   S    
C116  N12   S    
C23   C26   A    
C114  N30   S    
C190  C193  A    
C39   C186  S    
C60   O57   D    
C93   O68   D    
Cu3   O4    S    
C85   H19   S    
C1    O9    A    
C106  H91   S    
C93   H44   S    
C124  C128  A    
C174  O37   A    
C38   C82   S    
C47   H106  S    
H12   N10   S    
H169  N4    S    
C36   N10   S    
C74   H174  S    
C170  O33   A    
C118  N31   S    
C143  H2    S    
C94   O69   D    
C87   N14   S    
C86   H22   S    
Cu9   O28   S    
C40   H101  S    
C84   H16   S    
C94   H45   S    
Cu2   O72   S    
C51   O52   D    
C49   O50   D    
C119  C124  A    
C70   N36   S    
C75   H179  S    
C87   H28   S    
C2    C138  S    
C161  C183  S    
C191  C193  A    
C162  C184  S    
C31   H90   S    
H70   N24   S    
C138  O15   A    
C77   H188  S    
H125  N31   S    
C59   O55   D    
C89   H36   S    
C56   H129  S    
C76   H185  S    
C49   H108  S    
C97   H54   S    
C61   H137  S    
C49   C112  S    
C97   N19   S    
C114  C175  S    
C20   C22   A    
C108  H97   S    
C63   H146  S    
C184  O4    A    
C120  C157  S    
C120  O23   A    
C71   H161  S    
C13   C164  S    
C91   H41   S    
C83   H10   S    
C32   H100  S    
C61   H135  S    
C54   H122  S    
C60   C127  S    
Cu8   O32   S    
C102  H72   S    
C3    C5    A    
C95   C110  S    
C106  H88   S    
C179  O40   A    
Cu6   O18   S    
C46   C90   S    
C140  O17   A    
C133  C141  A    
C24   C33   S    
C50   C113  S    
Cu10  O38   S    
C51   H110  S    
C183  O3    A    
C142  N18   S    
C85   N11   S    
C184  O71   A    
C76   H183  S    
C41   C101  S    
C118  C123  A    
Cu9   O31   S    
C25   C173  S    
C106  H89   S    
C17   C21   A    
C67   O60   D    
Cu8   O27   S    
C52   H113  S    
C39   N14   S    
C129  C134  A    
C88   N15   S    
C65   O58   D    
H147  N35   S    
C170  O29   A    
C6    C192  S    
H30   N15   S    
C40   C90   S    
C24   C175  S    
C63   H144  S    
C179  O41   A    
C39   C79   S    
H26   N14   S    
C4    C195  A    
C123  C149  S    
C58   O54   D    
C4    C8    S    
C3    C188  A    
Cu8   O36   S    
C115  N1    S    
C24   C42   S    
C89   H38   S    
C171  O30   A    
H182  N7    S    
C52   H115  S    
C148  C161  T    
C30   C186  S    
C43   H103  S    
C37   N11   S    
C103  N25   S    
H52   N19   S    
C44   O46   D    
H164  N3    S    
H87   N28   S    
C136  C154  S    
C75   H180  S    
C1    C155  S    
C107  N29   S    
C35   C79   S    
C33   H102  S    
C175  N26   S    
C127  C132  A    
C6    C15   T    
C22   C165  S    
C34   N9    S    
C23   C172  S    
C43   O44   D    
C94   C101  S    
H186  N8    S    
Cu7   O20   S    
Cu12  O2    S    
C110  H167  S    
C189  H46   S    
C23   C27   A    
C7    C193  S    
C19   C27   A    
C52   N1    S    
C81   O64   D    
H39   N17   S    
Cu11  O26   S    
H17   N11   S    
C187  O7    A    
C55   H128  S    
C160  C182  S    
C56   O53   D    
C104  H82   S    
C142  C186  S    
Cu10  O29   S    
C31   C44   S    
Cu2   Cu12  S    
C19   C22   A    
C108  H99   S    
C102  N24   S    
C62   H141  S    
C72   H166  S    
Cu11  O33   S    
C50   H109  S    
C180  O43   A    
Cu8   O22   S    
C146  C159  T    
C151  C156  T    
C69   C196  S    
C2    C31   S    
C73   N4    S    
Cu1   O14   S    
C122  C126  A    
C189  C192  A    
C107  H94   S    
C108  N30   S    
C116  C143  A    
C74   N5    S    
C81   H6    S    
C98   H59   S    
H111  N1    S    
Cu3   O67   S    
C103  H75   S    
C171  O35   A    
C14   C165  T    
C64   H150  S    
C9    C11   T    
H177  N6    S    
H96   N30   S    
C135  C144  A    
Cu6   O19   S    
C59   H131  S    
C2    C153  S    
C112  C153  S    
Cu9   O24   S    
Cu5   O23   S    
C191  H68   S    
C35   C111  S    
C92   H43   S    
C7    C16   T    
C106  N28   S    
C86   N13   S    
C3    C67   S    
C136  C145  A    
C38   C68   S    
C73   H171  S    
C20   N8    S    
C54   N23   S    
C46   C169  S    
C101  H156  S    
C105  H84   S    
Cu9   O37   S    
H173  N5    S    
C128  C133  A    
C34   C78   S    
C113  C164  S    
C50   O51   D    
C20   C26   A    
C53   H118  S    
Cu4   O71   S    
Cu7   O13   S    
C77   H3    S    
C45   O47   D    
C105  N27   S    
C48   C111  S    
C58   C125  S    
C55   H126  S    
C75   N6    S    
C85   H18   S    
Cu1   O1    S    
C62   N33   S    
Cu2   O6    S    
C19   N7    S    
C68   C114  S    
H56   N20   S    
