data_mof_unit_35435.cif
_audit_creation_date              2012-10-26T20:36:03-0400
_audit_creation_method            fapswitch 2.2
_symmetry_space_group_name_H-M    P1
_symmetry_Int_Tables_number       1
_space_group_crystal_system       triclinic
_cell_length_a                    10.78577
_cell_length_b                    15.882156
_cell_length_c                    17.071646
_cell_angle_alpha                 96.753083
_cell_angle_beta                  91.398939
_cell_angle_gamma                 92.99265
_cell_volume                      2898.76860517

loop_
_atom_site_label
_atom_site_type_symbol
_atom_type_description
_atom_site_fract_x
_atom_site_fract_y
_atom_site_fract_z
_atom_type_partial_charge
C1    C     C_R   0.497773 0.489361 0.348541 0.528574
C2    C     C_R   0.469940 0.525552 0.901599 0.219372
C3    C     C_R   0.440487 0.401155 0.135335 0.283660
C4    C     C_R   0.457544 0.598535 0.863347 0.282275
C5    C     C_R   0.456901 0.405640 0.217140 -0.137600
C6    C     C_R   0.472674 0.594182 0.781985 -0.137647
C7    C     C_R   0.431358 0.750719 0.466059 0.013339
C8    C     C_R   0.567551 0.249458 0.534880 0.014419
C9    C     C_R   0.434946 0.840053 0.467217 -0.118994
C10   C     C_R   0.564071 0.160140 0.533831 -0.118517
C11   C     C_R   0.526717 0.891457 0.513481 0.182963
C12   C     C_R   0.500086 0.510632 0.651456 0.528061
C13   C     C_R   0.473580 0.108564 0.486659 0.182771
C14   C     C_R   0.611408 0.850829 0.556523 -0.092762
C15   C     C_R   0.390076 0.148976 0.442572 -0.091030
C16   C     C_R   0.262848 0.499840 0.500047 0.528902
C17   C     C_R   0.737180 0.500150 0.499905 0.529437
C18   C     C_R   0.605673 0.761793 0.554961 0.139677
C19   C     C_R   0.395576 0.238021 0.444036 0.144824
C20   C     C_R   0.136271 0.521619 0.645840 -0.088025
C21   C     C_R   0.863817 0.477079 0.354094 -0.083828
C22   C     C_R   0.075111 0.532181 0.716999 -0.119369
C23   C     C_R   0.489850 0.483425 0.262319 -0.051062
C24   C     C_R   0.925052 0.466147 0.282940 -0.111141
C25   C     C_R   0.946300 0.532923 0.716949 -0.106700
C26   C     C_R   0.053965 0.466645 0.283008 -0.112975
C27   C     C_R   0.878113 0.522591 0.645733 -0.085764
C28   C     C_R   0.122110 0.477570 0.354221 -0.089530
C29   C     C_R   0.938350 0.511532 0.572681 0.014044
C30   C     C_R   0.061780 0.488406 0.427261 0.014628
C31   C     C_R   0.068903 0.511064 0.572738 0.016229
C32   C     C_R   0.931191 0.488512 0.427202 0.014788
C33   C     C_R   0.870964 0.500362 0.499911 -0.007650
C34   C     C_R   0.493147 0.516469 0.737483 -0.050921
C35   C     C_R   0.129119 0.499577 0.500027 -0.007198
C36   C     C_2   0.699825 0.725359 0.604102 0.255863
C37   C     C_2   0.302472 0.274200 0.393768 0.243321
C38   C     C_3   0.276093 0.318945 0.076283 0.007906
C39   C     C_3   0.206360 0.281372 0.142549 -0.269576
C40   C     C_3   0.067197 0.269587 0.123315 -0.463542
C41   C     C_3   0.308421 0.680684 0.920339 0.013729
C42   C     C_3   0.242699 0.721414 0.854825 -0.279241
C43   C     C_3   0.105479 0.731148 0.871410 -0.466095
C44   C     C_R   0.510588 0.556489 0.224789 -0.181110
C45   C     C_R   0.502159 0.443320 0.775359 -0.178715
C46   C     C_R   0.499560 0.551897 0.143201 -0.142392
C47   C     C_R   0.491792 0.447713 0.856610 -0.140645
C48   C     C_R   0.464927 0.473973 0.097452 0.219840
Cu1   Cu    Cu3+1 0.493970 0.415220 0.496180 0.928670
Cu2   Cu    Cu3+1 0.506030 0.584780 0.503820 0.925280
H1    H     H_    0.101438 0.458829 0.227699 0.105399
H2    H     H_    0.872242 0.457580 0.227558 0.118491
H3    H     H_    0.778080 0.522964 0.648625 0.106658
H4    H     H_    0.222170 0.477751 0.351326 0.102967
H5    H     H_    0.518419 0.382607 0.742310 0.146701
H6    H     H_    0.536614 0.617269 0.258398 0.151063
H7    H     H_    0.502413 0.390297 0.884011 0.159247
H8    H     H_    0.519477 0.609278 0.116210 0.159736
H9    H     H_    0.440768 0.348514 0.245226 0.138481
H10   H     H_    0.465567 0.651352 0.753629 0.144135
H11   H     H_    0.636838 0.288097 0.571778 0.134978
H12   H     H_    0.898934 0.541190 0.772285 0.115857
H13   H     H_    0.361099 0.712229 0.429846 0.137504
H14   H     H_    0.685562 0.663963 0.623675 0.159896
H15   H     H_    0.314027 0.337122 0.377328 0.155379
H16   H     H_    0.257823 0.275887 0.020595 0.163243
H17   H     H_    0.238778 0.381134 0.065898 0.125175
H18   H     H_    0.243074 0.218912 0.151222 0.194714
H19   H     H_    0.220702 0.324226 0.198622 0.160354
H20   H     H_    0.028384 0.331528 0.115225 0.142575
H21   H     H_    0.019432 0.243209 0.172689 0.182038
H22   H     H_    0.049212 0.224861 0.068660 0.153148
H23   H     H_    0.631242 0.132280 0.569706 0.133305
H24   H     H_    0.299503 0.721705 0.977065 0.162465
H25   H     H_    0.260814 0.618083 0.927847 0.124476
H26   H     H_    0.288186 0.784965 0.850088 0.185639
H27   H     H_    0.250121 0.681475 0.797419 0.157654
H28   H     H_    0.057923 0.668160 0.875627 0.145833
H29   H     H_    0.060392 0.759950 0.822602 0.179732
H30   H     H_    0.095013 0.773020 0.927452 0.154641
H31   H     H_    0.366807 0.868061 0.432163 0.133656
H32   H     H_    0.681926 0.889621 0.592552 0.161066
H33   H     H_    0.320592 0.109938 0.405901 0.162015
H34   H     H_    0.236451 0.521465 0.648799 0.124882
H35   H     H_    0.763554 0.476655 0.351128 0.129031
H36   H     H_    0.127903 0.539509 0.772357 0.106586
N1    N     N_2   0.460011 0.465311 0.013736 -0.235544
N2    N     N_2   0.466574 0.534076 0.985164 -0.236919
N3    N     N_R   0.515100 0.712130 0.509560 -0.252451
N4    N     N_R   0.484900 0.287870 0.490440 -0.250576
N5    N     N_2   0.539320 0.982765 0.519567 -0.231450
N6    N     N_2   0.460991 0.017266 0.480690 -0.231927
O1    O     O_R   0.494360 0.420530 0.382500 -0.534561
O2    O     O_2   0.208818 0.232262 0.368404 -0.543368
O3    O     O_3   0.405990 0.323913 0.092186 -0.555887
O4    O     O_3   0.436815 0.675856 0.905921 -0.555719
O5    O     O_R   0.505640 0.579470 0.617500 -0.537890
O6    O     O_R   0.504550 0.563720 0.388950 -0.497256
O7    O     O_R   0.495450 0.436280 0.611050 -0.497134
O8    O     O_R   0.314560 0.428400 0.496770 -0.513374
O9    O     O_R   0.685440 0.571600 0.503230 -0.512026
O10   O     O_R   0.324750 0.571590 0.503220 -0.500929
O11   O     O_R   0.675250 0.428410 0.496780 -0.498931
O12   O     O_2   0.797224 0.765368 0.624904 -0.533327

loop_
_geom_bond_atom_site_label_1
_geom_bond_atom_site_label_2
_ccdc_geom_bond_type
C24   H2    S    
N1    N2    D    
C40   H21   S    
C27   C29   A    
C41   C42   S    
C14   C18   A    
Cu1   N4    S    
C43   H28   S    
C15   C19   A    
C40   H20   S    
C30   C35   A    
C24   C26   A    
C16   C35   S    
C38   C39   S    
C10   H23   S    
C41   O4    S    
Cu1   O7    S    
C43   H29   S    
C7    N3    A    
C29   C33   A    
C3    C48   A    
C39   H18   S    
C17   O9    A    
C12   O7    A    
C19   C37   S    
C41   H24   S    
C4    O4    S    
C38   H16   S    
C22   C25   A    
C37   H15   S    
C38   O3    S    
C2    N2    S    
C8    H11   S    
C46   H8    S    
C17   C33   S    
C44   C46   A    
C46   C48   A    
C45   C47   A    
C21   C32   A    
C21   H35   S    
Cu2   O6    S    
C5    H9    S    
C6    H10   S    
C4    C6    A    
N5    N6    D    
C28   H4    S    
C16   O8    A    
C15   H33   S    
C43   H30   S    
C1    O1    A    
C23   C44   A    
C6    C34   A    
C2    C4    A    
C41   H25   S    
C44   H6    S    
Cu2   N3    S    
C5    C23   A    
C39   H19   S    
C48   N1    S    
C34   C45   A    
C9    C11   A    
C7    H13   S    
C12   O5    A    
C42   H27   S    
C16   O10   A    
C20   C22   A    
Cu2   O10   S    
C13   C15   A    
C13   N6    S    
C31   C35   A    
C8    N4    A    
C42   C43   S    
C14   H32   S    
C12   C34   S    
C39   C40   S    
C7    C9    A    
Cu2   O5    S    
C40   H22   S    
C18   N3    A    
C26   C28   A    
C3    C5    A    
C10   C13   A    
C1    O6    A    
Cu1   O11   S    
C27   H3    S    
C1    C23   S    
C2    C47   A    
C25   C27   A    
C42   H26   S    
C36   O12   D    
C32   C33   A    
C20   H34   S    
C17   O11   A    
C29   C31   A    
C19   N4    A    
C26   H1    S    
Cu1   O8    S    
C30   C32   A    
C28   C30   A    
C11   C14   A    
C37   O2    D    
C25   H12   S    
C22   H36   S    
C11   N5    S    
C38   H17   S    
C45   H5    S    
Cu2   O9    S    
C8    C10   A    
Cu1   Cu2   S    
C21   C24   A    
C47   H7    S    
C3    O3    S    
Cu1   O1    S    
C36   H14   S    
C18   C36   S    
C9    H31   S    
C20   C31   A    
