data_mof_unit_30354.cif
_audit_creation_date              2012-10-26T20:44:01-0400
_audit_creation_method            fapswitch 2.2
_symmetry_space_group_name_H-M    P1
_symmetry_Int_Tables_number       1
_space_group_crystal_system       triclinic
_cell_length_a                    10.841206
_cell_length_b                    9.515862
_cell_length_c                    19.404261
_cell_angle_alpha                 89.980289
_cell_angle_beta                  90.987292
_cell_angle_gamma                 90.455507
_cell_volume                      2001.44945116

loop_
_atom_site_label
_atom_site_type_symbol
_atom_type_description
_atom_site_fract_x
_atom_site_fract_y
_atom_site_fract_z
_atom_type_partial_charge
C1    C     C_R   0.871559 0.503777 0.499286 -0.063680
C2    C     C_R   0.737489 0.500862 0.498479 0.587932
C3    C     C_R   0.499120 0.499846 0.367877 0.572831
C4    C     C_R   0.497277 0.499841 0.632081 0.574682
C5    C     C_R   0.065330 0.429131 0.551879 0.008944
C6    C     C_R   0.934916 0.571567 0.445485 0.009106
C7    C     C_R   0.936240 0.435247 0.553207 0.016360
C8    C     C_R   0.064328 0.572717 0.446513 0.016338
C9    C     C_R   0.567790 0.420143 0.747636 -0.091526
C10   C     C_R   0.571514 0.579500 0.253956 -0.112414
C11   C     C_R   0.397092 0.419442 0.259910 -0.095482
C12   C     C_R   0.128602 0.498037 0.498549 -0.066278
C13   C     C_R   0.391723 0.574633 0.737755 -0.089201
C14   C     C_R   0.559663 0.423696 0.819082 -0.064951
C15   C     C_R   0.563870 0.575866 0.182246 -0.063417
C16   C     C_R   0.383757 0.423827 0.188439 -0.056245
C17   C     C_R   0.378257 0.570273 0.809060 -0.043329
C18   C     C_R   0.464001 0.497439 0.850455 0.075102
C19   C     C_R   0.468716 0.499623 0.148847 0.078494
C20   C     C_R   0.422555 0.073766 0.456921 0.050546
C21   C     C_R   0.577431 0.926245 0.543086 0.042219
C22   C     C_R   0.577400 0.075109 0.543108 0.033976
C23   C     C_R   0.455406 0.627581 0.963035 0.024705
C24   C     C_R   0.422617 0.924906 0.456889 0.042826
C25   C     C_R   0.486394 0.499185 0.706858 0.029849
C26   C     C_R   0.489973 0.498923 0.292880 0.022616
C27   C     C_2   0.134492 0.362814 0.609944 0.621573
C28   C     C_2   0.868308 0.631040 0.384544 0.600695
C29   C     C_2   0.869149 0.374651 0.612441 0.608922
C30   C     C_2   0.131882 0.654512 0.393521 0.625529
C31   C     C_2   0.459515 0.762969 0.924725 0.616663
C32   C     C_2   0.464876 0.234330 0.074372 0.617135
C33   C     C_2   0.446352 0.762962 0.074208 0.616203
C34   C     C_R   0.457906 0.369623 0.036073 0.023925
C35   C     C_2   0.443267 0.234013 0.924824 0.614475
C36   C     C_R   0.453206 0.627748 0.035832 0.023371
C37   C     C_R   0.451754 0.369372 0.963286 0.023486
C38   C     C_R   0.458843 0.498891 0.072373 -0.060436
C39   C     C_R   0.455112 0.498324 0.926767 -0.060103
C40   C     C_R   0.262514 0.499445 0.499765 0.579012
Cu1   Cu    Cu3+1 0.500000 0.640660 0.500000 1.035467
Cu2   Cu    Cu3+1 0.500000 0.359340 0.500000 1.023853
H1    H     H_    0.360539 0.129380 0.422416 0.131218
H2    H     H_    0.631068 0.634105 0.152764 0.140837
H3    H     H_    0.308265 0.366571 0.163923 0.145790
H4    H     H_    0.302250 0.625363 0.832055 0.147469
H5    H     H_    0.240601 0.202395 0.642916 0.344226
H6    H     H_    0.855951 0.640110 0.280622 0.340324
H7    H     H_    0.839660 0.207705 0.674200 0.333164
H8    H     H_    0.261209 0.657011 0.320493 0.341296
H9    H     H_    0.545962 0.883306 0.854578 0.355189
H10   H     H_    0.555495 0.116523 0.144957 0.358383
H11   H     H_    0.363267 0.875115 0.148133 0.356413
H12   H     H_    0.639465 0.870644 0.577579 0.135466
H13   H     H_    0.357151 0.120552 0.850267 0.355440
H14   H     H_    0.639357 0.131793 0.577648 0.134648
H15   H     H_    0.360753 0.868244 0.422309 0.145666
H16   H     H_    0.638717 0.357497 0.724502 0.159815
H17   H     H_    0.641920 0.643115 0.279091 0.148488
H18   H     H_    0.332474 0.357929 0.289668 0.155502
H19   H     H_    0.326531 0.633706 0.706530 0.147035
H20   H     H_    0.627142 0.367335 0.849976 0.142742
N1    N     N_R   0.500000 0.852070 0.500000 -0.233822
N2    N     N_R   0.500000 0.147930 0.500000 -0.233081
O1    O     O_R   0.319640 0.618740 0.500000 -0.501531
O2    O     O_R   0.196583 0.236620 0.599624 -0.641390
O3    O     O_2   0.792449 0.724032 0.391527 -0.482049
O4    O     O_R   0.898889 0.585066 0.318594 -0.665138
O5    O     O_2   0.795921 0.447102 0.643384 -0.534092
O6    O     O_R   0.890980 0.236260 0.633237 -0.662209
O7    O     O_2   0.106091 0.777703 0.383096 -0.487434
O8    O     O_R   0.223409 0.590420 0.355201 -0.698484
O9    O     O_2   0.379792 0.851045 0.933598 -0.441742
O10   O     O_R   0.553940 0.788549 0.878062 -0.662628
O11   O     O_2   0.385353 0.144068 0.065181 -0.441486
O12   O     O_R   0.680360 0.381260 0.500000 -0.497111
O13   O     O_R   0.561638 0.211487 0.121513 -0.660352
O14   O     O_2   0.519331 0.858177 0.062217 -0.440190
O15   O     O_R   0.357732 0.779700 0.125005 -0.664904
O16   O     O_2   0.516718 0.140058 0.937221 -0.442706
O17   O     O_R   0.352620 0.215847 0.873395 -0.658923
O18   O     O_R   0.680360 0.618740 0.500000 -0.457363
O19   O     O_R   0.319640 0.381260 0.500000 -0.466531
O20   O     O_R   0.500020 0.618830 0.400190 -0.482535
O21   O     O_R   0.499980 0.381170 0.599810 -0.498273
O22   O     O_R   0.499980 0.618830 0.599810 -0.506504
O23   O     O_R   0.500020 0.381170 0.400190 -0.506437
O24   O     O_2   0.135046 0.417808 0.666884 -0.501968

loop_
_geom_bond_atom_site_label_1
_geom_bond_atom_site_label_2
_ccdc_geom_bond_type
C12   C40   S    
C7    C29   S    
C34   C37   A    
Cu1   Cu2   S    
C14   C18   A    
H9    O10   S    
C9    C14   A    
C32   O11   D    
C30   O7    D    
C35   O17   S    
C9    C25   A    
C15   C19   A    
Cu1   O22   S    
C6    C8    A    
C28   O4    S    
C15   H2    S    
C9    H16   S    
C10   C15   A    
C21   H12   S    
C33   O14   D    
C31   O9    D    
C4    O22   A    
C14   H20   S    
C35   O16   D    
C33   C36   S    
H11   O15   S    
C1    C2    S    
H8    O8    S    
C32   O13   S    
C5    C27   S    
C6    C28   S    
C20   C24   A    
C24   H15   S    
H13   O17   S    
H5    O2    S    
C10   C26   A    
C1    C7    A    
C21   C22   A    
C40   O19   A    
C13   C25   A    
C4    C25   S    
C29   O5    D    
C3    O23   A    
C1    C6    A    
C28   O3    D    
C17   H4    S    
C5    C12   A    
C5    C7    A    
C33   O15   S    
C31   O10   S    
C22   H14   S    
C4    O21   A    
C11   C26   A    
Cu1   O20   S    
C23   C31   S    
C20   N2    A    
C18   C39   S    
C19   C38   S    
C11   C16   A    
C8    C12   A    
C17   C18   A    
Cu2   O21   S    
H6    O4    S    
C24   N1    A    
C40   O1    A    
C2    O18   A    
Cu1   N1    S    
C11   H18   S    
Cu2   N2    S    
C20   H1    S    
C2    O12   A    
C29   O6    S    
C35   C37   S    
C34   C38   A    
C3    C26   S    
Cu2   O19   S    
C16   H3    S    
C30   O8    S    
Cu2   O12   S    
C13   C17   A    
H7    O6    S    
C8    C30   S    
C36   C38   A    
C10   H17   S    
C37   C39   A    
C27   O2    S    
C16   C19   A    
C23   C39   A    
Cu1   O18   S    
Cu1   O1    S    
C27   O24   D    
C21   N1    A    
C22   N2    A    
C13   H19   S    
C23   C36   A    
C3    O20   A    
Cu2   O23   S    
H10   O13   S    
C32   C34   S    
