data_mof_unit_17246.cif
_audit_creation_date              2013-03-05T15:51:31-0500
_audit_creation_method            fapswitch 2.2
_symmetry_space_group_name_H-M    P1
_symmetry_Int_Tables_number       1
_space_group_crystal_system       triclinic
_cell_length_a                    15.885356
_cell_length_b                    10.884474
_cell_length_c                    9.662571
_cell_angle_alpha                 90.910761
_cell_angle_beta                  88.995365
_cell_angle_gamma                 93.449817
_cell_volume                      1667.22652343

loop_
_atom_site_label
_atom_site_type_symbol
_atom_site_description
_atom_site_fract_x
_atom_site_fract_y
_atom_site_fract_z
_atom_type_partial_charge
O1    O     O_R   0.499990 0.319640 0.618810 -0.599054
O2    O     O_R   0.500000 0.319660 0.381240 -0.547153
C1    C     C_R   0.507052 0.263077 0.499007 0.798638
O3    O     O_R   0.379430 0.499990 0.618840 -0.573203
O4    O     O_R   0.379440 0.500020 0.381260 -0.584753
C2    C     C_R   0.340566 0.499463 0.500990 0.811458
Cu1   Cu    Cu3+1 0.499990 0.499990 0.640660 0.945879
Cu2   Cu    Cu3+1 0.500010 0.500010 0.359340 0.981191
O5    O     O_R   0.500000 0.680340 0.618760 -0.621975
O6    O     O_R   0.500010 0.680360 0.381190 -0.570737
O7    O     O_R   0.620560 0.499980 0.618740 -0.588190
O8    O     O_R   0.620570 0.500010 0.381160 -0.586621
C3    C     C_R   0.493506 0.736642 0.501489 0.837012
C4    C     C_R   0.659314 0.499472 0.499025 0.849346
C5    C     C_3   0.044316 0.437041 0.625334 -0.436843
C6    C     C_3   0.049731 0.420035 0.358333 -0.046747
C7    C     C_3   0.947061 0.409065 0.367514 -0.095307
H1    H     H_    0.917932 0.353315 0.645939 0.223266
C8    C     C_1   0.748652 0.499711 0.496657 -0.117458
C9    C     C_3   0.083105 0.494658 0.490822 0.044276
C10   C     C_3   0.947315 0.447290 0.631110 -0.138180
C11   C     C_3   0.916763 0.500294 0.489720 -0.059297
C12   C     C_3   0.958243 0.637012 0.472617 -0.074000
C13   C     C_3   0.056525 0.630149 0.486411 -0.288693
C14   C     C_1   0.824028 0.500124 0.493988 -0.159942
C15   C     C_1   0.175601 0.497090 0.498892 -0.122720
C16   C     C_1   0.251045 0.498510 0.502117 -0.151702
H2    H     H_    0.074723 0.483018 0.717105 0.187540
C17   C     C_R   0.545443 0.120823 0.748861 -0.124973
C18   C     C_R   0.525863 0.066607 0.874904 -0.178169
C19   C     C_R   0.476802 0.956451 0.880008 -0.138235
C20   C     C_R   0.459238 0.891200 0.757495 -0.135335
H3    H     H_    0.423253 0.804064 0.765086 0.163993
C21   C     C_R   0.486990 0.940168 0.628720 0.078228
C22   C     C_R   0.516213 0.064771 0.624970 0.080962
C23   C     C_R   0.515461 0.128217 0.498208 -0.143856
C24   C     C_R   0.508543 0.058769 0.373686 0.008502
C25   C     C_R   0.496000 0.931778 0.377880 -0.232457
C26   C     C_R   0.487520 0.870706 0.503945 -0.113929
C27   C     C_R   0.594117 0.696775 0.136295 0.027076
C28   C     C_R   0.614657 0.802268 0.059020 -0.244510
C29   C     C_R   0.624114 0.790347 0.917820 -0.222151
H4    H     H_    0.655795 0.863843 0.858896 0.193718
C30   C     C_R   0.596477 0.681975 0.852808 -0.113322
C31   C     C_R   0.547243 0.590577 0.924159 0.197347
C32   C     C_R   0.547333 0.593064 0.073362 0.103406
N1    N     N_R   0.500800 0.501210 0.147910 -0.192895
C33   C     C_R   0.455585 0.412820 0.073488 -0.006506
C34   C     C_R   0.455308 0.413214 0.926189 -0.056884
N2    N     N_R   0.500820 0.501290 0.852040 -0.201494
C35   C     C_2   0.920600 0.515829 0.760783 0.414539
H5    H     H_    0.959384 0.593396 0.800943 0.109556
O9    O     O_2   0.855114 0.484405 0.822069 -0.504455
C36   C     C_2   0.933859 0.694954 0.337871 0.502900
H6    H     H_    0.869154 0.683917 0.303777 0.036451
O10   O     O_2   0.982566 0.765393 0.274171 -0.453018
C37   C     C_2   0.518363 0.113144 0.236042 0.370648
H7    H     H_    0.470391 0.091504 0.159675 0.023835
O11   O     O_2   0.580940 0.178933 0.206624 -0.529582
H8    H     H_    0.584810 0.205413 0.749645 0.177351
H9    H     H_    0.548760 0.112007 0.967085 0.187235
H10   H     H_    0.457453 0.917404 0.978712 0.141889
H11   H     H_    0.494819 0.880328 0.280900 0.163699
H12   H     H_    0.418837 0.341261 0.127756 0.128113
H13   H     H_    0.058806 0.338682 0.631349 0.208114
C38   C     C_2   0.661449 0.683958 0.235614 0.466011
H14   H     H_    0.705026 0.611814 0.218824 0.058491
O12   O     O_2   0.673622 0.758982 0.329700 -0.572095
H15   H     H_    0.643367 0.884776 0.107483 0.208700
H16   H     H_    0.614290 0.674923 0.746593 0.210937
H17   H     H_    0.418325 0.341844 0.871571 0.145331
C39   C     C_2   0.089074 0.485440 0.230250 0.446612
H18   H     H_    0.152791 0.466063 0.197175 0.064017
O13   O     O_2   0.054035 0.563323 0.167014 -0.504569
C40   C     C_2   0.086567 0.293459 0.350185 0.399983
H19   H     H_    0.124279 0.261149 0.433193 0.088421
O14   O     O_2   0.073946 0.225819 0.249517 -0.468520
C41   C     C_2   0.908300 0.278244 0.398102 0.452655
H20   H     H_    0.844863 0.251826 0.363542 0.089796
O15   O     O_2   0.943410 0.204075 0.467193 -0.515232
C42   C     C_2   0.907493 0.434136 0.228393 0.417577
H21   H     H_    0.855182 0.492740 0.221217 0.048955
O16   O     O_2   0.928512 0.378428 0.123732 -0.451364
H22   H     H_    0.078783 0.677105 0.583509 0.194298
H23   H     H_    0.092133 0.680635 0.402950 0.220589
C43   C     C_2   0.925226 0.726669 0.580660 0.338850
H24   H     H_    0.862813 0.710789 0.626728 0.098468
O17   O     O_2   0.965321 0.822688 0.609814 -0.479733

loop_
_geom_bond_atom_site_label_1
_geom_bond_atom_site_label_2
_geom_bond_distance
_ccdc_geom_bond_type
C38   O12   1.222406 D    
H1    C10   1.108828 S    
C28   C29   1.374913 A    
C22   C23   1.416224 A    
C6    C39   1.541556 S    
C42   H21   1.081405 S    
C37   H7    1.083186 S    
Cu1   Cu2   2.718271 S    
C31   C32   1.441531 A    
Cu1   O7    1.923286 S    
C15   C16   1.198574 T    
C17   C18   1.384097 A    
C31   N2    1.372643 A    
C23   C24   1.413117 A    
O4    C2    1.301738 A    
O7    C4    1.300899 A    
C41   O15   1.221822 D    
C33   H12   1.081635 S    
C6    C40   1.529268 S    
C21   C22   1.407617 A    
O5    C3    1.305364 A    
O1    Cu1   1.970996 S    
C36   H6    1.084077 S    
C9    C13   1.559667 S    
C6    C7    1.629095 S    
C12   C43   1.525551 S    
C12   C13   1.575580 S    
C30   H16   1.062636 S    
C13   H23   1.110390 S    
C7    C42   1.529230 S    
C6    C9    1.587003 S    
C38   H14   1.086076 S    
C27   C38   1.463783 S    
C10   C11   1.586463 S    
C19   H10   1.082396 S    
C29   C30   1.379324 A    
O3    Cu1   1.930378 S    
C42   O16   1.222660 D    
C5    C9    1.553565 S    
C36   O10   1.221565 D    
C35   H5    1.085510 S    
N1    C33   1.368050 A    
C25   C26   1.397511 A    
O3    C2    1.304570 A    
C41   H20   1.087928 S    
C11   C14   1.472880 S    
C21   C26   1.413046 A    
C35   O9    1.221409 D    
C20   C21   1.414321 A    
C27   C32   1.445492 A    
C40   H19   1.084915 S    
C24   C25   1.385728 A    
C2    C16   1.421339 S    
C17   H8    1.081439 S    
Cu2   O8    1.930380 S    
C40   O14   1.222576 D    
C39   O13   1.219414 D    
C33   C34   1.423447 A    
O8    C4    1.304268 A    
C29   H4    1.083226 S    
C10   C35   1.515348 S    
C30   C31   1.409229 A    
C12   C36   1.521893 S    
C28   H15   1.085638 S    
C25   H11   1.083856 S    
Cu1   O5    1.977719 S    
C32   N1    1.407167 A    
C27   C28   1.398593 A    
C43   H24   1.085049 S    
C4    C8    1.418794 S    
C19   C20   1.394503 A    
O2    Cu2   1.977719 S    
Cu1   N2    2.042568 S    
C39   H18   1.087804 S    
O6    C3    1.310681 A    
O4    Cu2   1.923285 S    
C17   C22   1.408210 A    
C7    C11   1.616267 S    
C20   H3    1.080350 S    
O2    C1    1.312175 A    
C13   H22   1.114067 S    
Cu2   N1    2.043020 S    
C5    H2    1.114395 S    
C18   C19   1.391210 A    
C9    C15   1.471385 S    
C1    C23   1.481806 S    
C7    C41   1.547736 S    
C43   O17   1.222346 D    
C8    C14   1.196928 T    
C3    C26   1.467803 S    
C37   O11   1.221721 D    
C5    C10   1.551587 S    
Cu2   O6    1.970995 S    
C34   N2    1.369414 A    
C34   H17   1.081680 S    
C18   H9    1.070313 S    
C11   C12   1.600601 S    
O1    C1    1.308733 A    
C24   C37   1.466339 S    
C5    H13   1.111139 S    
