data_mof_unit_19452.cif
_audit_creation_date              2013-03-05T15:45:08-0500
_audit_creation_method            fapswitch 2.2
_symmetry_space_group_name_H-M    P1
_symmetry_Int_Tables_number       1
_space_group_crystal_system       triclinic
_cell_length_a                    19.106101
_cell_length_b                    10.710856
_cell_length_c                    10.078204
_cell_angle_alpha                 90.966482
_cell_angle_beta                  89.331824
_cell_angle_gamma                 92.399161
_cell_volume                      2060.20594794

loop_
_atom_site_label
_atom_site_type_symbol
_atom_site_description
_atom_site_fract_x
_atom_site_fract_y
_atom_site_fract_z
_atom_type_partial_charge
O1    O     O_R   0.499990 0.319060 0.613040 -0.580155
O2    O     O_R   0.500010 0.319100 0.386900 -0.657414
C1    C     C_R   0.498149 0.262724 0.498470 0.828252
O3    O     O_R   0.398130 0.499970 0.613110 -0.509571
O4    O     O_R   0.398150 0.500010 0.386970 -0.639950
C2    C     C_R   0.365559 0.503706 0.500635 0.954886
Zn1   Zn    Zn3+2 0.499990 0.499970 0.650990 1.093760
Zn2   Zn    Zn3+2 0.500010 0.500030 0.349010 1.008647
O5    O     O_R   0.499990 0.680900 0.613100 -0.602919
O6    O     O_R   0.500010 0.680940 0.386960 -0.559609
O7    O     O_R   0.601850 0.499990 0.613030 -0.608864
O8    O     O_R   0.601870 0.500030 0.386890 -0.592713
C3    C     C_R   0.505808 0.737247 0.500831 0.987974
C4    C     C_R   0.634635 0.496858 0.498650 0.848833
C5    C     C_R   0.247031 0.473173 0.600878 0.467914
C6    C     C_R   0.177268 0.504455 0.609560 -0.320387
H1    H     H_    0.144582 0.461988 0.686467 0.195696
C7    C     C_R   0.148715 0.581913 0.515927 -0.138641
C8    C     C_R   0.191586 0.636675 0.416707 0.418405
C9    C     C_R   0.262645 0.608287 0.408751 0.152987
C10   C     C_R   0.290689 0.527279 0.502399 -0.331140
N1    N     N_R   0.038616 0.601328 0.399707 -0.110314
N2    N     N_R   0.969255 0.589631 0.396692 -0.184161
C11   C     C_R   0.931789 0.567989 0.509634 0.291188
N3    N     N_R   0.965913 0.563391 0.626440 -0.182122
N4    N     N_R   0.035266 0.575227 0.629466 -0.179849
C12   C     C_R   0.072847 0.592837 0.515922 0.357203
C13   C     C_R   0.819110 0.503620 0.618355 -0.171336
H2    H     H_    0.845270 0.492659 0.711943 0.161702
C14   C     C_R   0.747282 0.480203 0.613208 -0.281377
H3    H     H_    0.719744 0.449549 0.701979 0.168050
C15   C     C_R   0.711280 0.497516 0.495224 -0.145305
C16   C     C_R   0.749614 0.521285 0.376666 0.498708
C17   C     C_R   0.821362 0.547679 0.383160 -0.253379
H4    H     H_    0.849520 0.572110 0.292725 0.163144
C18   C     C_R   0.856250 0.541652 0.504234 0.031040
C19   C     C_2   0.532929 0.935289 0.394117 0.587894
C20   C     C_2   0.518882 0.869620 0.504069 -0.315042
H5    H     H_    0.514963 0.915044 0.601006 0.139471
C21   C     C_2   0.534861 0.071066 0.409446 -0.449921
C22   C     C_2   0.490333 0.130309 0.490675 0.142227
H6    H     H_    0.576231 0.123776 0.357076 0.150864
C23   C     C_2   0.545690 0.566431 0.924687 0.522122
N5    N     N_2   0.500750 0.501330 0.852150 -0.017771
C24   C     C_2   0.537662 0.578524 0.075161 -0.036133
N6    N     N_2   0.500770 0.501360 0.147810 0.048023
H7    H     H_    0.562937 0.658006 0.124663 0.132735
O9    O     O_3   0.272731 0.392405 0.692274 -0.559546
C25   C     C_3   0.250976 0.268220 0.658172 0.085886
H8    H     H_    0.285781 0.232784 0.577887 0.165824
H9    H     H_    0.195612 0.260060 0.623910 0.112258
C26   C     C_3   0.256437 0.186902 0.780451 -0.251754
H10   H     H_    0.311027 0.192637 0.816792 0.285075
H11   H     H_    0.221738 0.222708 0.860475 0.212566
C27   C     C_3   0.235317 0.050455 0.750257 -0.905720
H12   H     H_    0.179399 0.041726 0.721280 0.255744
H13   H     H_    0.242406 0.994045 0.840194 0.272007
H14   H     H_    0.268366 0.012777 0.668817 0.311303
N7    N     N_R   0.428965 0.070921 0.549990 0.180909
O10   O     O_R   0.410565 0.101200 0.670504 -0.429844
O11   O     O_R   0.386456 0.000674 0.478169 -0.416210
O12   O     O_3   0.595907 0.640802 0.858871 -0.649220
C28   C     C_3   0.663585 0.631524 0.912875 0.029904
H15   H     H_    0.699709 0.615666 0.828514 0.188747
H16   H     H_    0.668625 0.551544 0.980502 0.128897
C29   C     C_3   0.688238 0.754351 0.981047 -0.349997
H17   H     H_    0.674616 0.834523 0.919069 0.230915
H18   H     H_    0.662382 0.763790 0.079298 0.234444
C30   C     C_3   0.767292 0.759488 0.002645 -0.894763
H19   H     H_    0.782258 0.681155 0.065747 0.283720
H20   H     H_    0.783172 0.848948 0.053258 0.263647
H21   H     H_    0.795719 0.754038 0.906063 0.257848
N8    N     N_R   0.431055 0.504096 0.893944 0.281608
O13   O     O_R   0.405390 0.607300 0.939679 -0.397500
O14   O     O_R   0.387743 0.414686 0.854878 -0.341838
O15   O     O_3   0.487267 0.387589 0.091393 -0.605504
C31   C     C_3   0.419655 0.344303 0.133267 0.275264
H22   H     H_    0.378773 0.408098 0.102207 0.194370
H23   H     H_    0.414598 0.336715 0.240536 0.179684
C32   C     C_3   0.404539 0.213046 0.077282 -0.405243
H24   H     H_    0.410334 0.212032 0.967673 0.273177
H25   H     H_    0.443504 0.150926 0.118104 0.223806
C33   C     C_3   0.331194 0.163340 0.116102 -0.952395
H26   H     H_    0.326422 0.155708 0.225689 0.276866
H27   H     H_    0.321276 0.069183 0.070726 0.283243
H28   H     H_    0.291067 0.226477 0.080364 0.273259
O16   O     O_3   0.163016 0.712432 0.323063 -0.604244
C34   C     C_3   0.182455 0.839631 0.348636 0.156105
H29   H     H_    0.192976 0.884285 0.251273 0.191971
H30   H     H_    0.231229 0.854606 0.407787 0.160134
C35   C     C_3   0.122460 0.905237 0.418851 -0.384453
H31   H     H_    0.072634 0.883497 0.365771 0.253610
H32   H     H_    0.116771 0.870565 0.521903 0.219538
C36   C     C_3   0.136265 0.046648 0.423099 -0.962078
H33   H     H_    0.187889 0.070423 0.468348 0.266349
H34   H     H_    0.094801 0.091293 0.483125 0.270854
H35   H     H_    0.135939 0.084434 0.321142 0.273995
N9    N     N_R   0.306188 0.666051 0.308377 0.219554
O17   O     O_R   0.356274 0.745506 0.342768 -0.405651
O18   O     O_R   0.289164 0.654712 0.184012 -0.337452
O19   O     O_3   0.717559 0.525062 0.254513 -0.648778
C37   C     C_3   0.707646 0.401777 0.202468 0.109545
H36   H     H_    0.657955 0.397640 0.146164 0.180331
H37   H     H_    0.701052 0.328841 0.280166 0.116389
C38   C     C_3   0.767969 0.370006 0.107974 -0.404057
H38   H     H_    0.776142 0.445054 0.033955 0.223880
H39   H     H_    0.816956 0.363453 0.165279 0.226744
C39   C     C_3   0.752777 0.246078 0.034846 -0.942583
H40   H     H_    0.745036 0.169092 0.106750 0.267376
H41   H     H_    0.797654 0.224956 0.968371 0.271353
H42   H     H_    0.705056 0.251581 0.973604 0.260572
O20   O     O_3   0.557958 0.875528 0.279980 -0.640752
C40   C     C_3   0.535460 0.929371 0.161168 0.014647
H43   H     H_    0.571190 0.898727 0.080787 0.163960
H44   H     H_    0.540573 0.032898 0.161095 0.134688
C41   C     C_3   0.460727 0.882868 0.126700 -0.305003
H45   H     H_    0.453416 0.782372 0.150489 0.293125
H46   H     H_    0.422606 0.935325 0.187459 0.255144
C42   C     C_3   0.445787 0.898343 0.979313 -0.817657
H47   H     H_    0.457645 0.995792 0.948202 0.253854
H48   H     H_    0.389729 0.874133 0.959864 0.301250
H49   H     H_    0.478470 0.835297 0.918485 0.282651

loop_
_geom_bond_atom_site_label_1
_geom_bond_atom_site_label_2
_geom_bond_distance
_ccdc_geom_bond_type
C29   H18   1.106408 S    
O16   C34   1.417235 S    
C28   H16   1.111649 S    
C21   C22   1.344637 D    
O19   C37   1.418696 S    
N8    O13   1.302975 A    
C8    C9    1.404750 A    
C27   H12   1.110592 S    
N6    O15   1.352226 S    
C24   N6    1.294447 D    
C41   H45   1.109496 S    
Zn1   O7    1.979001 S    
C38   H39   1.110841 S    
N4    C12   1.355498 A    
C11   C18   1.460404 S    
C16   O19   1.383348 S    
O4    C2    1.298251 A    
C13   H2    1.082988 S    
C17   H4    1.083239 S    
C19   C21   1.458848 S    
C8    O16   1.386354 S    
C32   C33   1.527106 S    
C14   H3    1.081436 S    
O7    C4    1.306119 A    
C31   C32   1.523578 S    
C29   C30   1.527095 S    
C5    C6    1.389313 A    
C39   H40   1.111035 S    
C37   C38   1.532109 S    
C7    C8    1.405468 A    
C30   H20   1.110478 S    
O5    C3    1.292795 A    
C19   O20   1.396254 S    
C39   H41   1.110364 S    
C6    H1    1.083735 S    
C25   H9    1.116030 S    
N2    C11   1.355639 A    
C26   C27   1.526371 S    
C40   C41   1.534171 S    
C34   H29   1.111386 S    
C24   H7    1.078757 S    
C29   H17   1.111703 S    
C28   C29   1.532922 S    
N7    O10   1.300088 A    
N8    O14   1.298248 A    
C37   H36   1.110642 S    
C5    O9    1.382374 S    
O3    Zn1   1.987602 S    
O20   C40   1.416760 S    
C26   H11   1.111509 S    
C42   H48   1.110296 S    
C38   C39   1.526135 S    
N7    O11   1.301474 A    
C11   N3    1.354921 A    
C22   N7    1.439018 S    
C32   H25   1.106366 S    
C35   H31   1.111665 S    
C36   H35   1.110892 S    
N3    N4    1.326478 A    
C31   H22   1.110224 S    
C2    C10   1.462803 S    
O1    C1    1.293922 A    
C30   H21   1.110978 S    
C37   H37   1.117782 S    
C23   N5    1.305829 D    
C19   C20   1.340986 D    
C35   H32   1.111469 S    
C33   H26   1.111242 S    
C34   C35   1.529782 S    
Zn2   O8    1.987602 S    
C25   C26   1.528075 S    
O12   C28   1.416735 S    
C16   C17   1.390096 A    
C31   H23   1.088368 S    
C36   H33   1.109604 S    
Zn1   N5    2.027355 S    
O15   C31   1.416169 S    
C36   H34   1.110414 S    
C23   C24   1.526335 S    
C3    C20   1.429221 S    
O3    C2    1.301489 A    
O9    C25   1.414826 S    
C33   H27   1.110219 S    
C34   H30   1.116569 S    
C25   H8    1.113189 S    
N9    O18   1.300994 A    
N1    C12   1.354357 A    
C27   H13   1.110470 S    
C26   H10   1.108398 S    
C40   H43   1.107653 S    
C42   H49   1.110918 S    
N5    N8    1.393287 S    
Zn1   O5    1.981489 S    
C1    C22   1.420837 S    
O1    Zn1   1.968747 S    
Zn2   O6    1.968747 S    
O2    Zn2   1.981489 S    
C7    C12   1.459123 S    
C4    C15   1.464116 S    
C32   H24   1.108825 S    
O6    C3    1.291138 A    
O4    Zn2   1.979004 S    
C42   H47   1.108453 S    
C41   C42   1.528892 S    
C38   H38   1.110859 S    
C39   H42   1.111129 S    
C15   C16   1.415324 A    
C13   C14   1.386123 A    
O2    C1    1.284674 A    
O8    C4    1.296612 A    
C35   C36   1.526479 S    
C14   C15   1.399501 A    
C20   H5    1.087226 S    
C21   H6    1.088594 S    
C41   H46   1.110587 S    
C17   C18   1.400939 A    
C30   H19   1.110176 S    
Zn2   N6    2.027904 S    
C28   H15   1.104236 S    
C5    C10   1.405805 A    
C33   H28   1.110346 S    
C9    N9    1.434090 S    
C9    C10   1.417414 A    
C13   C18   1.401732 A    
C6    C7    1.397403 A    
N9    O17   1.299899 A    
C27   H14   1.110552 S    
N1    N2    1.326542 A    
C23   O12   1.390695 S    
C40   H44   1.109091 S    
