data_mof_unit_14734.cif
_audit_creation_date              2012-12-10T20:28:38-0500
_audit_creation_method            fapswitch 2.2
_symmetry_space_group_name_H-M    P1
_symmetry_Int_Tables_number       1
_space_group_crystal_system       triclinic
_cell_length_a                    10.717581
_cell_length_b                    10.779119
_cell_length_c                    9.845191
_cell_angle_alpha                 89.056054
_cell_angle_beta                  90.230595
_cell_angle_gamma                 90.362488
_cell_volume                      1137.1904794

loop_
_atom_site_label
_atom_site_type_symbol
_atom_type_description
_atom_site_fract_x
_atom_site_fract_y
_atom_site_fract_z
_atom_type_partial_charge
C1    C     C_R   0.499999 0.260186 0.500666 0.889881
C2    C     C_R   0.063388 0.535361 0.627408 0.103165
C3    C     C_R   0.128138 0.534450 0.502591 -0.113026
C4    C     C_R   0.063339 0.528388 0.379799 -0.218117
C5    C     C_R   0.936375 0.512731 0.381088 -0.196362
C6    C     C_R   0.874731 0.490766 0.504180 -0.111061
C7    C     C_R   0.509079 0.058740 0.618363 0.017645
C8    C     C_R   0.502063 0.128645 0.499383 -0.109194
C9    C     C_R   0.498465 0.066258 0.374434 -0.181122
C10   C     C_R   0.499353 0.937346 0.373016 -0.215709
C11   C     C_R   0.504436 0.870312 0.496490 -0.091782
C12   C     C_R   0.260938 0.514942 0.500199 0.884841
C13   C     C_R   0.510716 0.934625 0.616454 0.128209
C14   C     C_3   0.516165 0.918961 0.767317 -0.289839
C15   C     C_3   0.510764 0.061904 0.770187 -0.246450
C16   C     C_R   0.393818 0.471066 0.071551 0.187287
C17   C     C_R   0.600229 0.542508 0.071640 -0.051702
C18   C     C_R   0.600124 0.542730 0.927556 -0.075798
C19   C     C_R   0.393789 0.471099 0.928812 0.187351
C20   C     C_3   0.324642 0.351023 0.926131 -0.463867
C21   C     C_3   0.323325 0.351838 0.080128 -0.468771
C22   C     C_R   0.501466 0.739432 0.498928 0.886049
C23   C     C_R   0.740506 0.492392 0.501080 0.873724
C24   C     C_R   0.116970 0.574886 0.750892 -0.120741
C25   C     C_R   0.062730 0.541380 0.874484 -0.282439
C26   C     C_R   0.956143 0.466383 0.876524 0.031902
C27   C     C_R   0.893376 0.443302 0.753887 -0.157910
C28   C     C_R   0.941530 0.489421 0.628836 0.051272
H1    H     H_    0.110668 0.533957 0.282802 0.155599
H2    H     H_    0.605844 0.877755 0.802504 0.112147
H3    H     H_    0.422249 0.096909 0.811948 0.193325
H4    H     H_    0.682014 0.574673 0.125568 0.137688
H5    H     H_    0.681521 0.575612 0.873101 0.144878
H6    H     H_    0.230743 0.358472 0.879423 0.209340
H7    H     H_    0.382826 0.277237 0.884517 0.236251
H8    H     H_    0.228428 0.364093 0.122844 0.185801
H9    H     H_    0.378521 0.275556 0.127557 0.230497
H10   H     H_    0.201724 0.629846 0.753052 0.188758
H11   H     H_    0.108911 0.566805 0.968209 0.137680
H12   H     H_    0.811076 0.384790 0.756588 0.201786
H13   H     H_    0.886659 0.516361 0.285324 0.166475
H14   H     H_    0.493967 0.116049 0.278114 0.183620
H15   H     H_    0.494987 0.891123 0.276208 0.170757
N1    N     N_R   0.499160 0.499140 0.142800 -0.105679
N2    N     N_R   0.499160 0.499180 0.857150 -0.104985
O1    O     O_R   0.500020 0.316790 0.614690 -0.608317
O2    O     O_R   0.500000 0.316760 0.385350 -0.613057
O3    O     O_R   0.316770 0.500020 0.614690 -0.632454
O4    O     O_R   0.316760 0.499980 0.385350 -0.623305
O5    O     O_R   0.500000 0.683240 0.614650 -0.633844
O6    O     O_R   0.499980 0.683210 0.385310 -0.635010
O7    O     O_R   0.683240 0.500020 0.614650 -0.637303
O8    O     O_R   0.683230 0.499980 0.385310 -0.616391
Zn1   Zn    Zn3+2 0.500010 0.500020 0.653130 0.958853
Zn2   Zn    Zn3+2 0.499990 0.499980 0.346870 0.963615
C29   C     C_2   0.626858 0.121274 0.825665 0.438227
H16   H     H_    0.717735 0.098406 0.785008 0.071093
O9    O     O_2   0.619543 0.195595 0.917311 -0.525494
C30   C     C_2   0.914382 0.410857 0.006699 0.354454
H17   H     H_    0.970493 0.423292 0.097266 0.044568
O10   O     O_2   0.819233 0.348446 0.014075 -0.522985
C31   C     C_2   0.402727 0.855181 0.826679 0.473769
H18   H     H_    0.414489 0.786729 0.907671 0.034208
O11   O     O_2   0.297793 0.879808 0.785933 -0.581999

loop_
_geom_bond_atom_site_label_1
_geom_bond_atom_site_label_2
_ccdc_geom_bond_type
C24   H10   S    
C19   N2    A    
C30   H17   S    
C12   O4    A    
C16   C21   S    
C29   O9    D    
C1    C8    S    
C2    C28   A    
C9    C10   A    
C16   N1    A    
C11   C22   S    
O6    Zn2   S    
C19   C20   S    
C12   O3    A    
C27   H12   S    
C22   O5    A    
C20   H6    S    
C15   C29   S    
O1    Zn1   S    
C7    C15   S    
C17   C18   A    
C9    H14   S    
C17   N1    A    
C7    C8    A    
C20   C21   S    
C21   H8    S    
O5    Zn1   S    
C13   C14   S    
C25   H11   S    
O3    Zn1   S    
C4    C5    A    
C11   C13   A    
N1    Zn2   S    
C23   O7    A    
C31   H18   S    
C14   H2    S    
C16   C19   A    
C6    C23   S    
C1    O2    A    
O7    Zn1   S    
N2    Zn1   S    
C23   O8    A    
C2    C3    A    
O8    Zn2   S    
C26   C27   A    
C5    C6    A    
C18   H5    S    
C1    O1    A    
C30   O10   D    
C2    C24   A    
C10   C11   A    
C3    C4    A    
C14   C31   S    
C18   N2    A    
C7    C13   A    
C21   H9    S    
C24   C25   A    
O2    Zn2   S    
C26   C30   S    
C27   C28   A    
C29   H16   S    
C17   H4    S    
C5    H13   S    
C14   C15   S    
C22   O6    A    
C31   O11   D    
C3    C12   S    
C25   C26   A    
O4    Zn2   S    
C20   H7    S    
C15   H3    S    
C6    C28   A    
C4    H1    S    
C10   H15   S    
C8    C9    A    
