data_mof_unit_51150.cif
_audit_creation_date              2013-03-05T15:49:33-0500
_audit_creation_method            fapswitch 2.2
_symmetry_space_group_name_H-M    P1
_symmetry_Int_Tables_number       1
_space_group_crystal_system       triclinic
_cell_length_a                    25.131689
_cell_length_b                    7.254114
_cell_length_c                    21.932017
_cell_angle_alpha                 90.041563
_cell_angle_beta                  110.300698
_cell_angle_gamma                 89.935286
_cell_volume                      3750.02166959

loop_
_atom_site_label
_atom_site_type_symbol
_atom_site_description
_atom_site_fract_x
_atom_site_fract_y
_atom_site_fract_z
_atom_type_partial_charge
O1    O     O_R   0.554350 0.505270 0.581390 -0.579480
O2    O     O_R   0.445650 0.005270 0.418610 -0.579016
O3    O     O_R   0.553380 0.177580 0.454800 -0.593361
O4    O     O_R   0.446620 0.677580 0.545200 -0.591445
C1    C     C_R   0.565750 0.344397 0.438319 0.934783
C2    C     C_R   0.434096 0.844645 0.561410 0.931670
O5    O     O_R   0.560970 0.175640 0.583140 -0.581039
O6    O     O_R   0.439030 0.675640 0.416860 -0.580930
O7    O     O_R   0.453290 0.004120 0.547860 -0.590617
O8    O     O_R   0.546710 0.504120 0.452140 -0.593891
C3    C     C_R   0.576030 0.343833 0.607521 0.897318
C4    C     C_R   0.423969 0.843880 0.392491 0.896956
O9    O     O_3   0.464660 0.338800 0.488280 -0.279727
O10   O     O_3   0.535340 0.838800 0.511720 -0.282414
V1    V     V_3+5 0.506560 0.064420 0.502170 1.165870
V2    V     V_3+5 0.493440 0.564420 0.497830 1.165974
C5    C     C_R   0.148352 0.982015 0.288836 -0.155050
C6    C     C_R   0.851403 0.485297 0.711297 -0.165423
H1    H     H_    0.063031 0.009978 0.222401 0.158220
H2    H     H_    0.936714 0.513073 0.777698 0.155559
H3    H     H_    0.233949 0.979093 0.401128 0.156986
H4    H     H_    0.765719 0.484285 0.599098 0.151901
H5    H     H_    0.136041 0.011422 0.330563 0.140966
H6    H     H_    0.863615 0.516239 0.669628 0.135960
C7    C     C_R   0.120742 0.942479 0.172393 -0.106239
C8    C     C_R   0.879208 0.442790 0.827622 -0.107721
C9    C     C_R   0.396641 0.813203 0.273894 -0.156010
C10   C     C_R   0.603489 0.310902 0.726054 -0.157521
C11   C     C_R   0.357209 0.810162 0.211109 -0.084959
C12   C     C_R   0.642968 0.306974 0.788807 -0.088309
C13   C     C_R   0.299892 0.841938 0.199905 -0.169313
C14   C     C_R   0.700224 0.339686 0.800042 -0.171667
C15   C     C_R   0.280249 0.878388 0.251852 0.088810
C16   C     C_R   0.719751 0.378056 0.748165 0.088696
C17   C     C_R   0.321260 0.883120 0.316458 0.097994
C18   C     C_R   0.678678 0.383899 0.683605 0.097927
C19   C     C_R   0.221380 0.910027 0.241831 0.089257
C20   C     C_R   0.778568 0.410475 0.758207 0.091621
C21   C     C_R   0.205343 0.947466 0.296712 0.161579
C22   C     C_R   0.794479 0.449902 0.703400 0.167640
C23   C     C_R   0.246168 0.951070 0.359233 -0.196762
C24   C     C_R   0.753593 0.454690 0.640932 -0.204835
C25   C     C_R   0.303084 0.919049 0.369056 -0.203261
C26   C     C_R   0.696736 0.421835 0.631084 -0.202982
C27   C     C_R   0.177663 0.906763 0.179488 -0.229432
C28   C     C_R   0.822352 0.406131 0.820498 -0.238418
C29   C     C_R   0.106608 0.980785 0.227277 -0.137363
C30   C     C_R   0.893203 0.483057 0.772808 -0.135797
C31   C     C_R   0.379663 0.849896 0.326996 -0.162083
C32   C     C_R   0.620343 0.349608 0.673024 -0.161447
H7    H     H_    0.186348 0.879365 0.135555 0.110874
H8    H     H_    0.813756 0.377341 0.864377 0.107475
H9    H     H_    0.440860 0.786341 0.281181 0.109801
H10   H     H_    0.559331 0.283103 0.718733 0.105620
H11   H     H_    0.272063 0.836830 0.149945 0.122410
H12   H     H_    0.728102 0.333723 0.849969 0.119356
H13   H     H_    0.371187 0.781983 0.170564 0.123389
H14   H     H_    0.629081 0.277268 0.829295 0.120929
H15   H     H_    0.332880 0.923096 0.418460 0.121024
H16   H     H_    0.666891 0.426826 0.581718 0.120942
C33   C     C_R   0.122980 0.761861 0.881885 0.402440
C34   C     C_R   0.886252 0.267576 0.129861 0.388389
C35   C     C_R   0.158575 0.755924 0.844824 -0.268481
C36   C     C_R   0.853396 0.267305 0.170180 -0.242491
H17   H     H_    0.170722 0.622515 0.831615 0.143104
H18   H     H_    0.847616 0.138530 0.192110 0.162050
C37   C     C_R   0.177960 0.918021 0.824572 0.083194
C38   C     C_R   0.825449 0.426710 0.179238 0.060779
C39   C     C_R   0.161205 0.087842 0.842926 -0.131051
C40   C     C_R   0.831386 0.588942 0.147451 -0.114716
H19   H     H_    0.175388 0.216139 0.828502 0.137655
H20   H     H_    0.809825 0.714067 0.152722 0.141061
C41   C     C_R   0.125776 0.094646 0.880176 -0.141107
C42   C     C_R   0.865715 0.592193 0.108896 -0.117424
H21   H     H_    0.113975 0.227106 0.893123 0.233759
H22   H     H_    0.868861 0.718691 0.085045 0.222568
C43   C     C_R   0.105483 0.933351 0.900137 -0.305770
C44   C     C_R   0.894631 0.433970 0.099973 -0.316026
N1    N     N_R   0.230172 0.062911 0.759325 -0.065145
N2    N     N_R   0.745974 0.542784 0.211286 -0.060427
N3    N     N_R   0.262430 0.052362 0.722235 -0.043476
N4    N     N_R   0.711075 0.527933 0.245099 -0.047144
C45   C     C_R   0.280692 0.886564 0.708066 0.189057
C46   C     C_R   0.717181 0.388781 0.288622 0.203996
N5    N     N_R   0.266271 0.732367 0.733805 -0.040217
N6    N     N_R   0.760822 0.268734 0.298080 -0.017086
N7    N     N_R   0.233977 0.742861 0.770740 -0.063189
N8    N     N_R   0.795406 0.282539 0.264010 -0.051537
C47   C     C_R   0.214969 0.908150 0.784176 0.130639
C48   C     C_R   0.788551 0.418984 0.219536 0.130125
C49   C     C_R   0.317070 0.718988 0.627774 0.369298
C50   C     C_R   0.669824 0.201845 0.354664 0.389353
C51   C     C_R   0.356338 0.709062 0.595019 -0.274877
C52   C     C_R   0.634266 0.196137 0.392079 -0.273444
H23   H     H_    0.355829 0.589937 0.565009 0.180781
H24   H     H_    0.628933 0.066395 0.413696 0.173791
C53   C     C_R   0.394001 0.854538 0.597874 -0.179925
C54   C     C_R   0.604666 0.353359 0.400237 -0.176406
C55   C     C_R   0.392273 0.011081 0.634861 -0.126348
C56   C     C_R   0.611491 0.518298 0.370242 -0.141942
H25   H     H_    0.420729 0.125732 0.638226 0.135166
H26   H     H_    0.589050 0.642148 0.374790 0.144382
C57   C     C_R   0.354816 0.020279 0.669353 -0.096848
C58   C     C_R   0.646949 0.526013 0.333297 -0.102074
H27   H     H_    0.356050 0.140838 0.698974 0.152024
H28   H     H_    0.650864 0.655727 0.311047 0.201386
C59   C     C_R   0.317189 0.874924 0.667099 -0.063359
C60   C     C_R   0.677355 0.370200 0.325549 -0.080377
O11   O     O_R   0.953220 0.285790 0.047790 -0.548007
O12   O     O_R   0.046780 0.785790 0.952210 -0.537236
O13   O     O_R   0.939020 0.617570 0.916840 -0.586121
O14   O     O_R   0.060980 0.117570 0.083160 -0.587719
C61   C     C_R   0.924018 0.448793 0.892494 0.935170
C62   C     C_R   0.075957 0.948750 0.107514 0.925343
O15   O     O_R   0.946600 0.615450 0.045180 -0.567957
O16   O     O_R   0.053400 0.115450 0.954820 -0.567815
O17   O     O_R   0.054370 0.786770 0.081410 -0.578287
O18   O     O_R   0.945630 0.286770 0.918590 -0.580421
C63   C     C_R   0.933834 0.446155 0.061382 0.920546
C64   C     C_R   0.065999 0.946115 0.938403 0.927377
O19   O     O_3   0.035300 0.454160 0.011680 -0.245851
O20   O     O_3   0.964700 0.954160 0.988320 -0.254500
V3    V     V_3+5 0.993450 0.728620 0.997830 1.269024
V4    V     V_3+5 0.006550 0.228620 0.002170 1.266916
N9    N     N_R   0.275646 0.574910 0.617465 0.231959
O21   O     O_R   0.288916 0.405861 0.608866 -0.415638
O22   O     O_R   0.222497 0.616363 0.604807 -0.367973
N10   N     N_R   0.695473 0.033429 0.344413 0.220363
O23   O     O_R   0.717653 0.920293 0.392615 -0.415660
O24   O     O_R   0.687911 0.978296 0.285517 -0.429670
N11   N     N_R   0.105172 0.590836 0.900300 0.219153
O25   O     O_R   0.057691 0.516984 0.863611 -0.447196
O26   O     O_R   0.132401 0.522126 0.957449 -0.427852
N12   N     N_R   0.907139 0.094512 0.116520 0.224705
O27   O     O_R   0.936283 0.988405 0.164251 -0.443723
O28   O     O_R   0.886153 0.026441 0.058147 -0.424036

loop_
_geom_bond_atom_site_label_1
_geom_bond_atom_site_label_2
_geom_bond_distance
_ccdc_geom_bond_type
C55   C57   1.398841 A    
C35   H17   1.083517 S    
C51   C53   1.405183 A    
C9    C11   1.389897 A    
C23   C25   1.389938 A    
O1    C3    1.334021 A    
C37   C47   1.492211 S    
C43   C64   1.508360 S    
O2    C4    1.334003 A    
N10   O23   1.301237 A    
C2    O7    1.326849 A    
C58   H28   1.080470 S    
C4    C31   1.481629 S    
C33   N11   1.424772 S    
O3    V1    1.997349 S    
C21   C23   1.399054 A    
O5    C3    1.333213 A    
C5    H5    1.083881 S    
C42   H22   1.073074 S    
C6    H6    1.083884 S    
C36   C38   1.401642 A    
C20   C22   1.421552 A    
C46   N6    1.358136 A    
O14   V4    1.997212 S    
H1    C29   1.083475 S    
C27   H7    1.077542 S    
C28   H8    1.077539 S    
C56   C58   1.398184 A    
C33   C35   1.402561 A    
C5    C21   1.404163 A    
C39   H19   1.082915 S    
C6    C22   1.404071 A    
O19   V4    1.771995 S    
C34   C36   1.403699 A    
N3    C45   1.360482 A    
C10   C32   1.397677 A    
C50   C60   1.421479 A    
O13   C61   1.336652 A    
C33   C43   1.421732 A    
C40   C42   1.402231 A    
C38   C48   1.487635 S    
C13   C15   1.414628 A    
C39   C41   1.402600 A    
C17   C25   1.404366 A    
C7    C29   1.395816 A    
C16   C18   1.434563 A    
C8    C30   1.395853 A    
O5    V1    1.997443 S    
O6    V2    1.997236 S    
C11   C13   1.393634 A    
C41   H21   1.072030 S    
C24   C26   1.389882 A    
C50   N10   1.434222 S    
O14   C62   1.336834 A    
C53   C55   1.404446 A    
N5    N7    1.332914 A    
C35   C37   1.403393 A    
O15   V3    1.997644 S    
O13   V3    1.997419 S    
C2    C53   1.489638 S    
C49   C59   1.421354 A    
N2    N4    1.335097 A    
O12   C64   1.334490 A    
N1    N3    1.334983 A    
C10   H10   1.083908 S    
N12   O28   1.300815 A    
N11   O26   1.301048 A    
C15   C19   1.436496 A    
O16   C64   1.347740 A    
N10   O24   1.301414 A    
C37   C39   1.404512 A    
C36   H18   1.083746 S    
O4    V2    1.995636 S    
C17   C31   1.424682 A    
O12   V3    1.975289 S    
C49   C51   1.409565 A    
O6    C4    1.333380 A    
C56   H26   1.083037 S    
C57   H27   1.083110 S    
O1    V2    1.984686 S    
O18   V4    1.983533 S    
C52   H24   1.083299 S    
O2    V1    1.984860 S    
H2    C30   1.083427 S    
H3    C23   1.084094 S    
O4    C2    1.330544 A    
C45   N5    1.358312 A    
C11   H13   1.082705 S    
O15   C63   1.348337 A    
N7    C47   1.359619 A    
N9    O21   1.301145 A    
C18   C26   1.404298 A    
C19   C27   1.426464 A    
N11   O25   1.301138 A    
C7    C27   1.408021 A    
C58   C60   1.406494 A    
C18   C32   1.424692 A    
O11   C63   1.333602 A    
C41   C43   1.406330 A    
O16   V4    1.995931 S    
C55   H25   1.083144 S    
C16   C20   1.436529 A    
C34   C44   1.424256 A    
C5    C29   1.393079 A    
N8    C48   1.358366 A    
O3    C1    1.330837 A    
C6    C30   1.392983 A    
C57   C59   1.406493 A    
C9    H9    1.083903 S    
O11   V4    1.974348 S    
N12   O27   1.301019 A    
C25   H15   1.082894 S    
N4    C46   1.361271 A    
C49   N9    1.437391 S    
C34   N12   1.428931 S    
C10   C12   1.389913 A    
C44   C63   1.507920 S    
O17   V3    1.983701 S    
C8    C61   1.477371 S    
C1    O8    1.327476 A    
C19   C21   1.421575 A    
C3    C32   1.481795 S    
O8    V2    1.979071 S    
C7    C62   1.477246 S    
C12   C14   1.393632 A    
C50   C52   1.408058 A    
H4    C24   1.084078 S    
C26   H16   1.082870 S    
C12   H14   1.082705 S    
C22   C24   1.398997 A    
C15   C17   1.434511 A    
C45   C59   1.492397 S    
N6    N8    1.332196 A    
N2    C48   1.359375 A    
C54   C56   1.404885 A    
C20   C28   1.426550 A    
C62   O17   1.337051 A    
C8    C28   1.408103 A    
C61   O18   1.337092 A    
C46   C60   1.496259 S    
C1    C54   1.491761 S    
C51   H23   1.083280 S    
C42   C44   1.407214 A    
O9    V2    1.772786 S    
N9    O22   1.301368 A    
C38   C40   1.402507 A    
C52   C54   1.405820 A    
O10   V1    1.771558 S    
N1    C47   1.360056 A    
C40   H20   1.083070 S    
C13   H11   1.076753 S    
O20   V3    1.770767 S    
C14   H12   1.076754 S    
C9    C31   1.397630 A    
O7    V1    1.980058 S    
C14   C16   1.414587 A    
