data_mof_unit_37522.cif
_audit_creation_date              2012-12-11T14:07:40-0500
_audit_creation_method            fapswitch 2.2
_symmetry_space_group_name_H-M    P1
_symmetry_Int_Tables_number       1
_space_group_crystal_system       triclinic
_cell_length_a                    19.794194
_cell_length_b                    17.001713
_cell_length_c                    15.391169
_cell_angle_alpha                 89.363289
_cell_angle_beta                  53.225733
_cell_angle_gamma                 88.595536
_cell_volume                      4147.63012844

loop_
_atom_site_label
_atom_site_type_symbol
_atom_type_description
_atom_site_fract_x
_atom_site_fract_y
_atom_site_fract_z
_atom_type_partial_charge
C1    C     C_R   0.339564 0.176142 0.049618 -0.168681
C2    C     C_R   0.647174 0.812930 0.079184 0.108852
C3    C     C_3   0.675631 0.773682 0.216104 -1.107994
C4    C     C_3   0.828828 0.235999 0.817096 -1.080124
C5    C     C_3   0.640574 0.627219 0.070988 -1.085594
C6    C     C_3   0.328829 0.735999 0.817096 -1.080123
C7    C     C_3   0.140574 0.127219 0.070988 -1.085595
C8    C     C_R   0.190284 0.661088 0.015819 0.137211
C9    C     C_R   0.147175 0.312930 0.079184 0.108852
C10   C     C_R   0.694532 0.864818 0.678803 0.030994
C11   C     C_R   0.625124 0.178635 0.687453 0.021288
C12   C     C_R   0.194532 0.364818 0.678803 0.030994
C13   C     C_R   0.125124 0.678635 0.687453 0.021289
C14   C     C_3   0.247027 0.206625 0.475872 0.159867
C15   C     C_3   0.188182 0.869136 0.522244 0.144976
C16   C     C_3   0.747027 0.706625 0.475872 0.159866
C17   C     C_R   0.378213 0.802607 0.994992 -0.151961
C18   C     C_3   0.688183 0.369136 0.522244 0.144976
C19   C     C_3   0.194941 0.260839 0.574594 -0.510855
C20   C     C_3   0.130170 0.813061 0.618589 -0.517123
C21   C     C_3   0.694941 0.760839 0.574594 -0.510855
C22   C     C_3   0.630171 0.313061 0.618590 -0.517123
C23   C     C_3   0.378152 0.228364 0.465558 -0.487494
C24   C     C_3   0.312240 0.773809 0.438161 -0.459841
C25   C     C_3   0.878152 0.728364 0.465558 -0.487495
C26   C     C_3   0.812240 0.273808 0.438160 -0.459838
C27   C     C_3   0.844128 0.823051 0.370458 -0.438061
C28   C     C_R   0.839564 0.676142 0.049618 -0.168681
C29   C     C_3   0.699102 0.256209 0.408198 -0.440750
C30   C     C_3   0.344128 0.323051 0.370458 -0.438061
C31   C     C_3   0.199103 0.756208 0.408197 -0.440751
C32   C     C_3   0.340191 0.235183 0.401285 0.311528
C33   C     C_3   0.251332 0.817502 0.419393 0.317292
C34   C     C_3   0.840191 0.735183 0.401285 0.311529
C35   C     C_3   0.751332 0.317503 0.419394 0.317291
C36   C     C_3   0.752032 0.820649 0.576792 0.308737
C37   C     C_3   0.669364 0.227715 0.589622 0.295403
C38   C     C_3   0.252032 0.320649 0.576792 0.308737
C39   C     C_R   0.878213 0.302607 0.994992 -0.151960
C40   C     C_3   0.169364 0.727715 0.589622 0.295404
C41   C     C_3   0.822097 0.774402 0.573374 -0.397517
C42   C     C_3   0.762331 0.231594 0.546996 -0.386607
C43   C     C_3   0.322097 0.274402 0.573374 -0.397518
C44   C     C_3   0.262331 0.731594 0.546996 -0.386608
C45   C     C_R   0.350152 0.830214 0.217091 -0.133970
C46   C     C_R   0.398008 0.199540 0.208444 -0.133149
C47   C     C_R   0.850152 0.330214 0.217091 -0.133970
C48   C     C_R   0.898008 0.699540 0.208444 -0.133149
C49   C     C_3   0.793505 0.874457 0.473536 0.165246
C50   C     C_R   0.630629 0.892817 0.108571 -0.135818
C51   C     C_3   0.665932 0.193691 0.497263 0.181115
C52   C     C_3   0.293505 0.374457 0.473536 0.165245
C53   C     C_3   0.165933 0.693690 0.497262 0.181115
C54   C     C_2   0.243605 0.711767 0.021031 0.228986
C55   C     C_2   0.173292 0.251602 0.123394 0.241872
C56   C     C_2   0.743604 0.211768 0.021032 0.228984
C57   C     C_2   0.673292 0.751602 0.123394 0.241872
C58   C     C_2   0.801874 0.252942 0.930452 0.203118
C59   C     C_2   0.698198 0.678591 0.078140 0.239809
C60   C     C_2   0.301874 0.752941 0.930451 0.203118
C61   C     C_R   0.657406 0.090706 0.071827 -0.155365
C62   C     C_2   0.198198 0.178591 0.078140 0.239809
C63   C     C_R   0.363243 0.889306 0.900353 -0.166622
C64   C     C_R   0.327301 0.086072 0.957380 -0.138965
C65   C     C_R   0.863243 0.389306 0.900353 -0.166623
C66   C     C_R   0.827301 0.586072 0.957380 -0.138965
C67   C     C_R   0.405030 0.106647 0.305177 -0.162427
C68   C     C_R   0.356032 0.923153 0.313839 -0.158005
C69   C     C_R   0.905030 0.606647 0.305177 -0.162427
C70   C     C_R   0.856032 0.423153 0.313839 -0.158006
C71   C     C_R   0.284211 0.147888 0.031358 0.105916
C72   C     C_R   0.130630 0.392817 0.108571 -0.135818
C73   C     C_R   0.344456 0.814004 0.941430 0.143727
C74   C     C_R   0.784211 0.647888 0.031358 0.105916
C75   C     C_R   0.844456 0.314004 0.941430 0.143727
C76   C     C_R   0.306908 0.863329 0.319717 0.046225
C77   C     C_R   0.386970 0.184777 0.304490 0.040704
C78   C     C_R   0.806908 0.363330 0.319717 0.046225
C79   C     C_R   0.886970 0.684777 0.304490 0.040704
C80   C     C_R   0.646684 0.188218 0.977562 -0.153852
C81   C     C_R   0.624342 0.799310 0.011739 -0.187430
C82   C     C_R   0.146685 0.688218 0.977562 -0.153854
C83   C     C_R   0.157407 0.590706 0.071827 -0.155364
C84   C     C_R   0.124342 0.299310 0.011739 -0.187429
C85   C     C_R   0.652823 0.830545 0.781111 -0.133297
C86   C     C_R   0.612661 0.195361 0.784173 -0.131472
C87   C     C_R   0.152823 0.330545 0.781111 -0.133297
C88   C     C_R   0.112661 0.695361 0.784173 -0.131473
C89   C     C_R   0.595406 0.105035 0.694931 -0.164963
C90   C     C_R   0.642637 0.924515 0.686500 -0.155065
C91   C     C_R   0.095406 0.605035 0.694931 -0.164963
C92   C     C_R   0.142637 0.424515 0.686500 -0.155065
C93   C     C_3   0.203382 0.199319 0.420426 -1.038778
C94   C     C_R   0.690284 0.161089 0.015820 0.137211
C95   C     C_3   0.136477 0.930485 0.508801 -1.027590
C96   C     C_3   0.703382 0.699319 0.420426 -1.038777
C97   C     C_3   0.636478 0.430486 0.508803 -1.027589
C98   C     C_3   0.848038 0.939900 0.469123 -1.033487
C99   C     C_3   0.716770 0.114953 0.444873 -1.043508
C100  C     C_3   0.348039 0.439900 0.469123 -1.033488
C101  C     C_3   0.216772 0.614952 0.444874 -1.043510
C102  C     C_3   0.215618 0.729412 0.135252 -1.094162
C103  C     C_3   0.175631 0.273682 0.216104 -1.107995
C104  C     C_3   0.715617 0.229413 0.135253 -1.094161
H1    H     H_    0.330931 0.225342 0.098683 0.125962
H2    H     H_    0.122237 0.836525 0.691359 0.153036
H3    H     H_    0.759002 0.199604 0.148743 0.245199
H4    H     H_    0.711748 0.293712 0.149993 0.266803
H5    H     H_    0.612643 0.797091 0.284293 0.263943
H6    H     H_    0.689672 0.721448 0.247035 0.274262
H7    H     H_    0.722987 0.819683 0.190543 0.246682
H8    H     H_    0.898534 0.239377 0.758031 0.260840
H9    H     H_    0.811977 0.176122 0.809131 0.265209
H10   H     H_    0.799820 0.280497 0.794623 0.248126
H11   H     H_    0.636518 0.568960 0.106985 0.266334
H12   H     H_    0.575388 0.652438 0.117669 0.257476
H13   H     H_    0.661163 0.723614 0.648765 0.156947
H14   H     H_    0.666044 0.618158 0.984959 0.242103
H15   H     H_    0.398535 0.739374 0.758031 0.260840
H16   H     H_    0.311975 0.676123 0.809130 0.265208
H17   H     H_    0.299824 0.780499 0.794621 0.248126
H18   H     H_    0.136519 0.068960 0.106985 0.266334
H19   H     H_    0.075388 0.152438 0.117669 0.257477
H20   H     H_    0.166044 0.118158 0.984959 0.242103
H21   H     H_    0.649668 0.244899 0.942947 0.110444
H22   H     H_    0.619480 0.743819 0.983286 0.121527
H23   H     H_    0.149669 0.744899 0.942946 0.110446
H24   H     H_    0.622238 0.336525 0.691359 0.153035
H25   H     H_    0.119480 0.243819 0.983286 0.121527
H26   H     H_    0.382683 0.166237 0.484862 0.151312
H27   H     H_    0.354830 0.815379 0.438154 0.157003
H28   H     H_    0.882683 0.666237 0.484862 0.151313
H29   H     H_    0.854831 0.315378 0.438153 0.157002
H30   H     H_    0.793692 0.731867 0.641525 0.149119
H31   H     H_    0.766801 0.264291 0.605659 0.154747
H32   H     H_    0.293691 0.231867 0.641525 0.149120
H33   H     H_    0.390371 0.746893 0.018375 0.102774
H34   H     H_    0.266800 0.764292 0.605660 0.154747
H35   H     H_    0.911261 0.840800 0.315134 0.175397
H36   H     H_    0.734269 0.226319 0.328796 0.170567
H37   H     H_    0.411261 0.340800 0.315135 0.175397
H38   H     H_    0.234271 0.726318 0.328796 0.170567
H39   H     H_    0.817303 0.832630 0.325060 0.135466
H40   H     H_    0.645344 0.285792 0.415459 0.147292
H41   H     H_    0.317303 0.332630 0.325060 0.135466
H42   H     H_    0.145345 0.785790 0.415457 0.147292
H43   H     H_    0.743424 0.904001 0.472318 0.108479
H44   H     H_    0.830931 0.725342 0.098683 0.125961
H45   H     H_    0.598865 0.183326 0.531757 0.093176
H46   H     H_    0.243424 0.404001 0.472318 0.108479
H47   H     H_    0.098866 0.683325 0.531756 0.093177
H48   H     H_    0.443177 0.251717 0.416087 0.180482
H49   H     H_    0.353816 0.731059 0.371380 0.185566
H50   H     H_    0.943177 0.751718 0.416087 0.180482
H51   H     H_    0.853815 0.231058 0.371379 0.185566
H52   H     H_    0.860824 0.814603 0.582659 0.173436
H53   H     H_    0.790481 0.171894 0.537254 0.185029
H54   H     H_    0.360824 0.314603 0.582659 0.173436
H55   H     H_    0.890371 0.246893 0.018376 0.102774
H56   H     H_    0.290481 0.671895 0.537255 0.185029
H57   H     H_    0.355924 0.914918 0.841715 0.102958
H58   H     H_    0.304095 0.049220 0.924145 0.110930
H59   H     H_    0.855923 0.414918 0.841716 0.102959
H60   H     H_    0.804095 0.549220 0.924145 0.110930
H61   H     H_    0.409055 0.075670 0.363620 0.082848
H62   H     H_    0.344364 0.957687 0.380173 0.091984
H63   H     H_    0.909055 0.575670 0.363620 0.082848
H64   H     H_    0.844364 0.457687 0.380173 0.091985
H65   H     H_    0.672476 0.778981 0.802877 0.091631
H66   H     H_    0.645220 0.793584 0.575033 0.183120
H67   H     H_    0.621376 0.250747 0.809657 0.085476
H68   H     H_    0.172476 0.278981 0.802877 0.091631
H69   H     H_    0.121376 0.750747 0.809657 0.085476
H70   H     H_    0.581871 0.078291 0.643732 0.110417
H71   H     H_    0.651251 0.960647 0.622996 0.098442
H72   H     H_    0.081871 0.578291 0.643731 0.110417
H73   H     H_    0.151251 0.460647 0.622996 0.098442
H74   H     H_    0.631054 0.919608 0.171626 0.105685
H75   H     H_    0.671876 0.060372 0.121179 0.108587
H76   H     H_    0.131054 0.419608 0.171626 0.105685
H77   H     H_    0.566130 0.311586 0.638363 0.179939
H78   H     H_    0.171877 0.560371 0.121178 0.108586
H79   H     H_    0.247417 0.146562 0.505494 0.125185
H80   H     H_    0.224892 0.902896 0.542100 0.118466
H81   H     H_    0.747417 0.646562 0.505494 0.125185
H82   H     H_    0.724894 0.402896 0.542100 0.118465
H83   H     H_    0.234840 0.153485 0.356107 0.265113
H84   H     H_    0.137106 0.181042 0.480744 0.262254
H85   H     H_    0.202590 0.256431 0.385582 0.264903
H86   H     H_    0.096645 0.966382 0.584032 0.257710
H87   H     H_    0.178715 0.971104 0.441047 0.259242
H88   H     H_    0.145220 0.293584 0.575033 0.183120
H89   H     H_    0.094260 0.902641 0.493814 0.256702
H90   H     H_    0.734840 0.653485 0.356107 0.265113
H91   H     H_    0.637106 0.681042 0.480745 0.262254
H92   H     H_    0.702589 0.756431 0.385583 0.264903
H93   H     H_    0.596647 0.466383 0.584034 0.257710
H94   H     H_    0.678716 0.471105 0.441048 0.259242
H95   H     H_    0.594260 0.402643 0.493816 0.256701
H96   H     H_    0.811681 0.975915 0.544395 0.255099
H97   H     H_    0.905284 0.915066 0.457610 0.264456
H98   H     H_    0.868574 0.979680 0.399993 0.257014
H99   H     H_    0.066130 0.811585 0.638363 0.179939
H100  H     H_    0.783524 0.124927 0.375782 0.260361
H101  H     H_    0.719557 0.076591 0.501080 0.253981
H102  H     H_    0.688073 0.081566 0.413301 0.244106
H103  H     H_    0.311681 0.475915 0.544395 0.255100
H104  H     H_    0.405284 0.415065 0.457610 0.264456
H105  H     H_    0.368574 0.479680 0.399993 0.257014
H106  H     H_    0.283526 0.624927 0.375783 0.260361
H107  H     H_    0.219558 0.576590 0.501080 0.253982
H108  H     H_    0.188076 0.581565 0.413300 0.244107
H109  H     H_    0.335271 0.779399 0.191555 0.097018
H110  H     H_    0.161163 0.223614 0.648765 0.156947
H111  H     H_    0.396626 0.255981 0.176597 0.089959
H112  H     H_    0.835272 0.279398 0.191556 0.097018
H113  H     H_    0.896626 0.755981 0.176597 0.089959
H114  H     H_    0.151512 0.707103 0.198139 0.257469
H115  H     H_    0.259003 0.699603 0.148742 0.245199
H116  H     H_    0.211748 0.793711 0.149993 0.266804
H117  H     H_    0.112643 0.297091 0.284293 0.263943
H118  H     H_    0.189672 0.221448 0.247035 0.274262
H119  H     H_    0.222986 0.319683 0.190543 0.246682
H120  H     H_    0.651511 0.207104 0.198139 0.257469
N1    N     N_R   0.408680 0.130160 0.995800 -0.039508
N2    N     N_R   0.403730 0.078230 0.935950 -0.041939
N3    N     N_R   0.903730 0.421770 0.935950 -0.040148
N4    N     N_R   0.903730 0.578230 0.935950 -0.041939
N5    N     N_R   0.426630 0.075970 0.212960 -0.030664
N6    N     N_R   0.426630 0.924030 0.212960 -0.035415
N7    N     N_R   0.926630 0.575970 0.212960 -0.030664
N8    N     N_R   0.926630 0.424030 0.212960 -0.035415
N9    N     N_R   0.591320 0.134600 0.004200 -0.042106
N10   N     N_R   0.591320 0.865400 0.004200 -0.037685
N11   N     N_R   0.091320 0.634600 0.004200 -0.042105
N12   N     N_R   0.408680 0.869840 0.995800 -0.038837
N13   N     N_R   0.091320 0.365400 0.004200 -0.037686
N14   N     N_R   0.578320 0.867660 0.846880 -0.037102
N15   N     N_R   0.578320 0.132340 0.846880 -0.033050
N16   N     N_R   0.078320 0.367660 0.846880 -0.037102
N17   N     N_R   0.078320 0.632340 0.846880 -0.033050
N18   N     N_R   0.573370 0.074390 0.787040 -0.032724
N19   N     N_R   0.573370 0.925610 0.787040 -0.035519
N20   N     N_R   0.073370 0.574390 0.787040 -0.032724
N21   N     N_R   0.073370 0.425610 0.787040 -0.035519
N22   N     N_R   0.596270 0.927870 0.064040 -0.039828
N23   N     N_R   0.908680 0.630160 0.995800 -0.039508
N24   N     N_R   0.596270 0.072130 0.064040 -0.039653
N25   N     N_R   0.096270 0.427870 0.064040 -0.039828
N26   N     N_R   0.096270 0.572130 0.064040 -0.039653
N27   N     N_R   0.908680 0.369840 0.995800 -0.038837
N28   N     N_R   0.421680 0.867580 0.153120 -0.037833
N29   N     N_R   0.421680 0.132420 0.153120 -0.036688
N30   N     N_R   0.921680 0.367580 0.153120 -0.037833
N31   N     N_R   0.921680 0.632420 0.153120 -0.036688
N32   N     N_R   0.403730 0.921770 0.935950 -0.040148
Ni1   Ni    Ni4+2 0.500000 0.131190 0.000000 0.209187
Ni2   Ni    Ni4+2 0.500000 0.868810 0.000000 0.206728
Ni3   Ni    Ni4+2 0.000000 0.631190 0.000000 0.209187
Ni4   Ni    Ni4+2 1.000000 0.368810 0.000000 0.206728
Ni5   Ni    Ni4+2 0.488650 0.000000 0.862740 0.206046
Ni6   Ni    Ni4+2 0.988650 0.500000 0.862740 0.206046
Ni7   Ni    Ni4+2 0.511350 0.000000 0.137260 0.208602
Ni8   Ni    Ni4+2 0.011350 0.500000 0.137260 0.208602

loop_
_geom_bond_atom_site_label_1
_geom_bond_atom_site_label_2
_ccdc_geom_bond_type
N7    Ni8   S    
C10   C85   A    
N17   Ni3   S    
C16   C21   S    
C80   N9    A    
C99   H100  S    
C70   C78   A    
C8    C83   A    
C97   H95   S    
C98   H97   S    
C84   N13   A    
C67   C77   A    
C9    C72   A    
C7    H20   S    
C23   H48   S    
C43   H54   S    
C28   C74   A    
C64   N2    A    
C14   H79   S    
C100  H104  S    
C2    C57   S    
N28   Ni2   S    
C21   C36   S    
C54   C60   D    
C101  H107  S    
C61   N24   A    
C56   C94   S    
C65   N3    A    
C1    C71   A    
C30   H37   S    
C99   H101  S    
C45   C76   A    
C8    C82   A    
C48   C79   A    
C4    H10   S    
C50   H74   S    
C22   H77   S    
C16   H81   S    
C69   N7    A    
C103  H118  S    
C15   C95   S    
N27   Ni4   S    
C57   C59   D    
C38   C52   S    
C80   H21   S    
N21   Ni6   S    
C3    H6    S    
C21   H66   S    
C66   C74   A    
C55   C62   D    
C55   C103  S    
C84   H25   S    
C23   C43   S    
C49   H43   S    
N10   Ni2   S    
C85   N14   A    
C64   C71   A    
C37   C42   S    
C11   C37   S    
C11   C89   A    
C91   N20   A    
C13   C40   S    
C21   H13   S    
C2    C50   A    
C95   H86   S    
C16   C34   S    
C32   C77   S    
C31   H42   S    
C22   H24   S    
C39   N27   A    
C96   H91   S    
C53   C101  S    
C91   H72   S    
C45   H109  S    
C31   C33   S    
C9    C55   S    
C18   C97   S    
C39   C75   A    
C72   N25   A    
N7    N31   A    
C18   C35   S    
C14   C93   S    
C102  H116  S    
C19   H88   S    
C23   H26   S    
N24   Ni7   S    
C103  H119  S    
C67   H61   S    
C96   H90   S    
C49   C98   S    
C95   H89   S    
C54   C102  S    
C90   N19   A    
C5    H11   S    
C51   H45   S    
C17   C73   A    
C6    C60   S    
N13   N25   A    
C36   C41   S    
C89   H70   S    
N6    N28   A    
C60   C73   S    
C14   C19   S    
C6    H16   S    
C41   H30   S    
C100  H103  S    
N4    Ni6   S    
C58   C75   S    
C86   N15   A    
C20   H2    S    
C48   H113  S    
N5    Ni7   S    
C27   C34   S    
C51   C99   S    
C15   C20   S    
N31   Ni3   S    
C28   H44   S    
C16   C96   S    
C5    C59   S    
C99   H102  S    
C86   H67   S    
C97   H93   S    
C26   H51   S    
N8    N30   A    
C56   C104  S    
C47   N30   A    
C64   H58   S    
C25   C41   S    
C88   N17   A    
N4    N23   A    
C61   C94   A    
N9    Ni1   S    
C63   C73   A    
C29   H40   S    
N14   N19   A    
C18   H82   S    
C46   N29   A    
C85   H65   S    
C88   H69   S    
C83   H78   S    
C42   H31   S    
C10   C36   S    
C28   N23   A    
C96   H92   S    
C69   H63   S    
C7    C62   S    
C98   H98   S    
C89   N18   A    
C19   C38   S    
C70   H64   S    
C34   C79   S    
N22   Ni7   S    
N16   Ni4   S    
C4    H9    S    
C33   C76   S    
C27   H39   S    
C63   N32   A    
N2    Ni5   S    
C20   C40   S    
N30   Ni4   S    
N26   Ni8   S    
C47   H112  S    
C65   H59   S    
N13   Ni4   S    
N1    N2    A    
C47   C78   A    
C66   H60   S    
C46   H111  S    
C100  H105  S    
N12   N32   A    
C48   N31   A    
C59   C74   S    
C67   N5    A    
C102  H115  S    
C93   H83   S    
N11   Ni3   S    
C13   C91   A    
C61   H75   S    
C83   N26   A    
N16   N21   A    
C24   C44   S    
C31   C53   S    
C42   H53   S    
N20   Ni6   S    
C72   H76   S    
C7    H18   S    
C8    C54   S    
N32   Ni5   S    
C12   C38   S    
C3    C57   S    
C6    H15   S    
C104  H4    S    
C24   H49   S    
C26   C42   S    
C30   H41   S    
N3    N27   A    
C29   C51   S    
C17   N12   A    
C1    N1    A    
C63   H57   S    
C29   H36   S    
C30   C52   S    
N6    Ni7   S    
C44   H34   S    
C87   N16   A    
N8    Ni8   S    
C12   C87   A    
C39   H55   S    
C25   H50   S    
C18   C22   S    
C97   H94   S    
N15   Ni1   S    
C20   H99   S    
C7    H19   S    
C15   C33   S    
C65   C75   A    
C101  H108  S    
C46   C77   A    
N23   Ni3   S    
C92   N21   A    
N9    N24   A    
C4    C58   S    
C93   H85   S    
C101  H106  S    
C68   C76   A    
N19   Ni5   S    
C29   C35   S    
C25   C34   S    
C35   C78   S    
N12   Ni2   S    
C24   C33   S    
N11   N26   A    
C98   H96   S    
C5    H14   S    
N17   N20   A    
C23   C32   S    
C41   H52   S    
C31   H38   S    
N1    Ni1   S    
C38   C43   S    
C45   N28   A    
C26   H29   S    
C15   H80   S    
C103  H117  S    
C30   C32   S    
C22   C37   S    
C24   H27   S    
C3    H5    S    
C44   H56   S    
C87   H68   S    
C90   H71   S    
C13   C88   A    
C37   C51   S    
N18   Ni5   S    
C56   C58   D    
C62   C71   S    
N14   Ni2   S    
N15   N18   A    
N25   Ni8   S    
C4    H8    S    
C43   H32   S    
C27   H35   S    
C82   H23   S    
C19   H110  S    
C69   C79   A    
C92   H73   S    
C102  H114  S    
C9    C84   A    
C3    H7    S    
C95   H87   S    
C93   H84   S    
N29   Ni1   S    
C26   C35   S    
C40   C44   S    
C12   C92   A    
C14   C32   S    
N5    N29   A    
C10   C90   A    
C82   N11   A    
C52   H46   S    
C40   C53   S    
C66   N4    A    
C53   H47   S    
C52   C100  S    
C81   H22   S    
C81   N10   A    
C2    C81   A    
C17   H33   S    
C11   C86   A    
C6    H17   S    
C50   N22   A    
C25   H28   S    
C80   C94   A    
C5    H12   S    
C104  H120  S    
C104  H3    S    
N10   N22   A    
C36   C49   S    
C27   C49   S    
N3    Ni6   S    
C1    H1    S    
C68   N6    A    
C70   N8    A    
C68   H62   S    
