data_mof_unit_54271.cif
_audit_creation_date              2012-10-26T20:38:02-0400
_audit_creation_method            fapswitch 2.2
_symmetry_space_group_name_H-M    P1
_symmetry_Int_Tables_number       1
_space_group_crystal_system       triclinic
_cell_length_a                    10.280495
_cell_length_b                    11.034734
_cell_length_c                    12.961285
_cell_angle_alpha                 87.271219
_cell_angle_beta                  74.739068
_cell_angle_gamma                 113.479493
_cell_volume                      1281.6003913

loop_
_atom_site_label
_atom_site_type_symbol
_atom_type_description
_atom_site_fract_x
_atom_site_fract_y
_atom_site_fract_z
_atom_type_partial_charge
C1    C     C_R   0.437456 0.253371 0.505693 0.528780
C2    C     C_R   0.667329 0.652020 0.006755 -0.139430
C3    C     C_R   0.334498 0.388919 0.888581 -0.147752
C4    C     C_R   0.658875 0.626014 0.114198 -0.142896
C5    C     C_R   0.567548 0.589857 0.854264 0.016408
C6    C     C_R   0.438174 0.415335 0.143205 0.022604
C7    C     C_R   0.559670 0.563967 0.964700 0.053064
C8    C     C_R   0.440882 0.446713 0.035006 0.061188
C9    C     C_2   0.399321 0.109042 0.518742 -0.117033
C10   C     C_2   0.599877 0.890126 0.488656 -0.116670
C11   C     C_2   0.502035 0.061851 0.475080 0.042930
C12   C     C_R   0.562218 0.746228 0.496130 0.526898
C13   C     C_2   0.494849 0.934945 0.531250 0.046438
C14   C     C_3   0.328322 0.279117 0.213936 -0.274588
C15   C     C_3   0.361448 0.165011 0.169663 -0.460232
C16   C     C_3   0.685836 0.719749 0.778810 -0.264139
C17   C     C_3   0.839074 0.718026 0.737519 -0.409843
C18   C     C_3   0.376317 0.861332 0.640797 -0.257884
C19   C     C_3   0.407879 0.940952 0.731802 -0.449509
C20   C     C_3   0.618286 0.132758 0.364015 -0.253759
C21   C     C_3   0.592537 0.045637 0.276229 -0.450089
C22   C     C_3   0.977496 0.673917 0.372505 -0.112004
C23   C     C_2   0.084737 0.512322 0.489121 0.182582
C24   C     C_3   0.930419 0.774323 0.326546 -0.362049
C25   C     C_3   0.022625 0.326320 0.627784 -0.111706
C26   C     C_3   0.069766 0.225996 0.673896 -0.361416
C27   C     C_2   0.915098 0.487283 0.510685 0.167686
C28   C     C_R   0.473201 0.499237 0.701556 0.540684
C29   C     C_R   0.527402 0.502597 0.298251 0.535981
C30   C     C_R   0.544792 0.510684 0.182797 0.026102
C31   C     C_R   0.456681 0.496053 0.816758 0.023224
C32   C     C_R   0.325678 0.365159 0.996186 -0.136872
Cu1   Cu    Cu3+1 0.647370 0.522180 0.481340 0.944132
Cu2   Cu    Cu3+1 0.352630 0.477820 0.518660 0.947982
H1    H     H_    0.739380 0.699618 0.144963 0.103018
H2    H     H_    0.334066 0.272650 0.297931 0.170503
H3    H     H_    0.211656 0.261133 0.221869 0.140640
H4    H     H_    0.876924 0.693808 0.804985 0.142964
H5    H     H_    0.836796 0.643160 0.683382 0.207973
H6    H     H_    0.922229 0.818171 0.690393 0.116757
H7    H     H_    0.652572 0.740707 0.707562 0.149390
H8    H     H_    0.694550 0.806759 0.820794 0.120654
H9    H     H_    0.518886 0.956809 0.738491 0.162704
H10   H     H_    0.405830 0.039912 0.717896 0.174076
H11   H     H_    0.321988 0.883612 0.810168 0.133862
H12   H     H_    0.247932 0.319020 0.860330 0.106496
H13   H     H_    0.263167 0.839383 0.635863 0.141293
H14   H     H_    0.373872 0.763178 0.667004 0.172307
H15   H     H_    0.622801 0.960926 0.285187 0.162759
H16   H     H_    0.473775 0.004482 0.279078 0.174978
H17   H     H_    0.662650 0.107439 0.195005 0.130006
H18   H     H_    0.613152 0.226134 0.334155 0.169436
H19   H     H_    0.732671 0.162669 0.369376 0.148532
H20   H     H_    0.835694 0.729600 0.295375 0.191710
H21   H     H_    0.915657 0.842387 0.384327 0.148733
H22   H     H_    0.024619 0.841791 0.255193 0.079398
H23   H     H_    0.228074 0.280446 0.047485 0.111007
H24   H     H_    0.054977 0.739374 0.412987 0.140653
H25   H     H_    0.025501 0.637988 0.299951 0.157528
H26   H     H_    0.084392 0.157724 0.616274 0.147941
H27   H     H_    0.164592 0.270606 0.704965 0.190921
H28   H     H_    0.975606 0.158685 0.745333 0.080825
H29   H     H_    0.974453 0.362448 0.700156 0.153225
H30   H     H_    0.945227 0.260584 0.587407 0.146149
H31   H     H_    0.757518 0.744130 0.958874 0.111868
H32   H     H_    0.705925 0.955765 0.430082 0.074918
H33   H     H_    0.296398 0.046866 0.581813 0.072695
H34   H     H_    0.480109 0.187543 0.157980 0.157957
H35   H     H_    0.289825 0.070064 0.228368 0.137363
H36   H     H_    0.339360 0.149675 0.091046 0.157076
I1    I     I_    0.732367 0.337302 0.646151 -0.437472
I2    I     I_    0.267219 0.661719 0.353389 -0.426445
N1    N     N_2   0.131210 0.444490 0.546730 -0.213966
N2    N     N_2   0.868790 0.555510 0.453270 -0.216507
O1    O     O_R   0.578710 0.332530 0.490040 -0.450839
O2    O     O_R   0.421290 0.667470 0.509960 -0.454056
O3    O     O_R   0.329810 0.295070 0.521560 -0.516472
O4    O     O_R   0.670190 0.704930 0.478440 -0.515290
O5    O     O_R   0.604230 0.515670 0.637800 -0.458581
O6    O     O_R   0.395770 0.484330 0.362200 -0.456683
O7    O     O_R   0.355330 0.478200 0.669330 -0.522700
O8    O     O_R   0.644670 0.521800 0.330670 -0.518112

loop_
_geom_bond_atom_site_label_1
_geom_bond_atom_site_label_2
_ccdc_geom_bond_type
C1    O3    A    
C2    C7    A    
C2    H31   S    
C18   H13   S    
C21   H15   S    
C7    C8    A    
C24   H21   S    
C13   C18   S    
C26   H27   S    
Cu2   O3    S    
C17   H5    S    
Cu1   O4    S    
C24   H20   S    
C18   C19   S    
C25   H29   S    
C28   O5    A    
C5    C16   S    
Cu2   O6    S    
Cu1   O1    S    
C16   C17   S    
C12   O4    A    
Cu2   O7    S    
C23   C27   S    
C27   N2    D    
Cu1   O8    S    
C4    H1    S    
C32   H23   S    
C23   N1    D    
C21   H16   S    
C19   H9    S    
C10   H32   S    
C15   H35   S    
C11   C20   S    
C1    O1    A    
C1    C9    S    
C22   H25   S    
C5    C7    A    
Cu1   O5    S    
C6    C8    A    
C25   C26   S    
C25   H30   S    
C8    C32   A    
C2    C4    A    
C9    H33   S    
C29   C30   S    
C6    C14   S    
Cu1   Cu2   S    
C3    C31   A    
C9    C11   D    
C10   C12   S    
C6    C30   A    
C12   O2    A    
C22   C24   S    
C22   N2    S    
C16   H8    S    
C21   H17   S    
C27   I1    S    
C19   H10   S    
C15   H36   S    
C28   O7    A    
C23   I2    S    
C28   C31   S    
C20   H19   S    
C10   C13   D    
C18   H14   S    
C22   H24   S    
C19   H11   S    
C24   H22   S    
C3    H12   S    
C26   H28   S    
C29   O8    A    
C20   H18   S    
C14   H3    S    
C14   H2    S    
C11   C13   S    
C29   O6    A    
C15   H34   S    
C25   N1    S    
C17   H4    S    
C3    C32   A    
Cu2   N1    S    
Cu1   N2    S    
C20   C21   S    
C14   C15   S    
C26   H26   S    
C16   H7    S    
C17   H6    S    
C4    C30   A    
Cu2   O2    S    
C5    C31   A    
