data_mof_unit_51375.cif
_audit_creation_date              2012-12-10T18:21:25-0500
_audit_creation_method            fapswitch 2.2
_symmetry_space_group_name_H-M    P1
_symmetry_Int_Tables_number       1
_space_group_crystal_system       triclinic
_cell_length_a                    15.007661
_cell_length_b                    14.175193
_cell_length_c                    10.712539
_cell_angle_alpha                 89.440858
_cell_angle_beta                  87.457567
_cell_angle_gamma                 89.116313
_cell_volume                      2276.33993958

loop_
_atom_site_label
_atom_site_type_symbol
_atom_type_description
_atom_site_fract_x
_atom_site_fract_y
_atom_site_fract_z
_atom_type_partial_charge
Br1   Br    Br    0.638031 0.730640 0.308557 -0.574277
Br2   Br    Br    0.645175 0.267414 0.318914 -0.564888
Br3   Br    Br    0.314701 0.893430 0.804570 -0.459867
Br4   Br    Br    0.268477 0.111019 0.732187 -0.461238
C1    C     C_R   0.327009 0.500650 0.501416 0.862213
C2    C     C_R   0.051229 0.347436 0.625027 -0.186734
C3    C     C_R   0.095092 0.424429 0.571465 0.060293
C4    C     C_R   0.494968 0.500261 0.258423 0.916789
C5    C     C_R   0.046843 0.501661 0.524512 0.070883
C6    C     C_R   0.092171 0.580526 0.472351 0.136498
C7    C     C_R   0.044704 0.657759 0.426214 -0.202089
C8    C     C_R   0.952390 0.656222 0.428882 -0.184318
C9    C     C_R   0.187251 0.424803 0.563322 -0.228355
C10   C     C_R   0.231463 0.501864 0.509397 -0.057345
C11   C     C_R   0.184549 0.580130 0.465461 -0.256566
C12   C     C_3   0.594011 0.518979 0.924943 0.205017
C13   C     C_R   0.559119 0.798746 0.423027 0.321118
C14   C     C_R   0.557970 0.200531 0.421150 0.307603
C15   C     C_R   0.437926 0.798809 0.573980 0.167713
C16   C     C_R   0.443006 0.201603 0.581158 0.179463
C17   C     C_R   0.438965 0.899274 0.581961 -0.102523
C18   C     C_R   0.436133 0.101479 0.577005 -0.102320
C19   C     C_R   0.673227 0.498854 0.504844 0.933670
C20   C     C_R   0.498360 0.949501 0.501070 -0.012756
C21   C     C_R   0.497328 0.050445 0.499261 -0.012663
C22   C     C_R   0.559139 0.898957 0.421557 0.008205
C23   C     C_R   0.815785 0.575151 0.473635 -0.264591
C24   C     C_R   0.558207 0.100251 0.419942 0.006951
C25   C     C_R   0.379722 0.951430 0.663795 0.260737
C26   C     C_R   0.373242 0.050534 0.653443 0.262903
C27   C     C_R   0.618080 0.048345 0.341584 -0.161485
C28   C     C_R   0.618472 0.950057 0.342277 -0.157321
C29   C     C_R   0.498480 0.499973 0.742187 0.861965
C30   C     C_3   0.433271 0.587035 0.073290 0.194165
C31   C     C_3   0.454669 0.402751 0.073147 0.226935
C32   C     C_3   0.431067 0.579316 0.928752 -0.466284
C33   C     C_3   0.460593 0.405265 0.929074 -0.542859
C34   C     C_R   0.769239 0.496275 0.516370 -0.110683
C35   C     C_3   0.590004 0.512542 0.070115 -0.510614
C36   C     C_3   0.492013 0.500431 0.121760 0.083293
C37   C     C_3   0.497256 0.500870 0.878928 0.104661
C38   C     C_R   0.814179 0.418139 0.570647 0.050032
C39   C     C_R   0.907916 0.419357 0.577321 0.066767
C40   C     C_R   0.953746 0.499478 0.527281 -0.003474
C41   C     C_R   0.907126 0.577335 0.477380 0.118327
C42   C     C_R   0.958801 0.343531 0.629387 0.097634
H1    H     H_    0.089159 0.288857 0.662936 0.195535
H2    H     H_    0.446733 0.648778 0.884564 0.203970
H3    H     H_    0.504561 0.347039 0.894026 0.179540
H4    H     H_    0.619570 0.575923 0.111089 0.216625
H5    H     H_    0.633619 0.454594 0.103775 0.187064
H6    H     H_    0.780913 0.634842 0.433773 0.208953
H7    H     H_    0.425652 0.733075 0.087604 0.202655
H8    H     H_    0.528586 0.693863 0.052839 0.230139
H9    H     H_    0.479303 0.258011 0.087676 0.191500
H10   H     H_    0.572037 0.320095 0.075588 0.195756
H11   H     H_    0.320603 0.733059 0.558339 0.211573
H12   H     H_    0.224544 0.365119 0.599300 0.167357
H13   H     H_    0.383487 0.691037 0.678387 0.236945
H14   H     H_    0.453897 0.262509 0.746432 0.193357
H15   H     H_    0.370915 0.310693 0.660281 0.234460
H16   H     H_    0.341672 0.598543 0.223562 0.199828
H17   H     H_    0.302160 0.635706 0.087572 0.198218
H18   H     H_    0.316449 0.424747 0.063060 0.203285
H19   H     H_    0.343907 0.318948 0.115896 0.200358
H20   H     H_    0.682854 0.629565 0.927436 0.191837
H21   H     H_    0.639879 0.614011 0.789259 0.215577
H22   H     H_    0.646740 0.381952 0.907962 0.177299
H23   H     H_    0.219826 0.639590 0.423632 0.148602
H24   H     H_    0.722801 0.466661 0.897974 0.192821
H25   H     H_    0.741633 0.300253 0.544194 0.251784
H26   H     H_    0.713406 0.359832 0.679265 0.216748
H27   H     H_    0.878047 0.280711 0.762709 0.214396
H28   H     H_    0.887663 0.222486 0.621392 0.221405
H29   H     H_    0.078951 0.718636 0.386735 0.158517
H30   H     H_    0.916343 0.716122 0.391161 0.164525
H31   H     H_    0.665657 0.082541 0.278228 0.190044
H32   H     H_    0.666566 0.915205 0.279720 0.189641
H33   H     H_    0.362641 0.562666 0.900078 0.166551
H34   H     H_    0.394507 0.391984 0.889833 0.174113
N1    N     N_R   0.500070 0.750030 0.500050 -0.144520
N2    N     N_3   0.658725 0.449358 0.871967 -0.495155
N3    N     N_3   0.765616 0.338163 0.618289 -0.489296
N4    N     N_3   0.920729 0.261052 0.687366 -0.435380
N5    N     N_R   0.500070 0.249970 0.500050 -0.144950
N6    N     N_3   0.471075 0.678710 0.106942 -0.403710
N7    N     N_3   0.507675 0.320784 0.116220 -0.380180
N8    N     N_3   0.363171 0.750223 0.628752 -0.397188
N9    N     N_3   0.403174 0.248976 0.686551 -0.409668
N10   N     N_3   0.341610 0.583313 0.128274 -0.472032
N11   N     N_3   0.361342 0.389943 0.120100 -0.424197
N12   N     N_3   0.623398 0.613899 0.885108 -0.454387
O1    O     O_R   0.367860 0.580280 0.500020 -0.661452
O2    O     O_R   0.367860 0.419720 0.500020 -0.632728
O3    O     O_R   0.500000 0.580270 0.314790 -0.575888
O4    O     O_R   0.500000 0.419730 0.314790 -0.551977
O5    O     O_R   0.632160 0.580270 0.499960 -0.587827
O6    O     O_R   0.632160 0.419730 0.499960 -0.592174
O7    O     O_R   0.500030 0.580270 0.685200 -0.649984
O8    O     O_R   0.500030 0.419730 0.685200 -0.654022
Zn1   Zn    Zn3+2 0.500020 0.607200 0.499990 0.968004
Zn2   Zn    Zn3+2 0.500020 0.392800 0.499990 0.977140

loop_
_geom_bond_atom_site_label_1
_geom_bond_atom_site_label_2
_ccdc_geom_bond_type
C35   H5    S    
C22   C28   A    
O4    Zn2   S    
Br2   C14   S    
C4    O4    A    
C1    O2    A    
N1    Zn1   S    
H14   N9    S    
C40   C41   A    
C21   C24   A    
C30   C36   S    
C13   C22   A    
C15   C17   A    
C20   C22   A    
C34   C38   A    
C6    C11   A    
C23   C34   A    
H19   N11   S    
C30   N6    S    
Br3   C25   S    
H13   N8    S    
C31   N7    S    
C18   C21   A    
H7    N6    S    
C2    C42   A    
C5    C6    A    
H27   N4    S    
C30   C32   S    
C23   C41   A    
C9    C10   A    
C33   C37   S    
C32   C37   S    
C4    O3    A    
C12   N2    S    
H15   N9    S    
C27   H31   S    
H25   N3    S    
C11   H23   S    
C33   H34   S    
C14   N5    A    
C2    H1    S    
C14   C24   A    
C20   C21   A    
C15   N8    S    
O1    Zn1   S    
C35   C36   S    
H8    N6    S    
H10   N7    S    
H20   N12   S    
C9    H12   S    
O6    Zn2   S    
C17   C25   A    
C29   O7    A    
C39   C40   A    
C30   N10   S    
C25   C26   A    
C33   H3    S    
C27   C28   A    
C16   N5    A    
C19   O6    A    
O8    Zn2   S    
C1    C10   S    
C42   N4    S    
C19   O5    A    
C16   C18   A    
C12   N12   S    
C8    H30   S    
C38   C39   A    
C23   H6    S    
C3    C5    A    
C5    C40   A    
C18   C26   A    
C31   C33   S    
C24   C27   A    
C38   N3    S    
H28   N4    S    
C8    C41   A    
C32   H33   S    
C1    O1    A    
C7    C8    A    
C2    C3    A    
C19   C34   S    
C16   N9    S    
Br1   C13   S    
H11   N8    S    
C29   O8    A    
C29   C37   S    
C31   C36   S    
H22   N2    S    
C7    H29   S    
H16   N10   S    
H17   N10   S    
H21   N12   S    
C32   H2    S    
C13   N1    A    
H9    N7    S    
H24   N2    S    
C39   C42   A    
Br4   C26   S    
H26   N3    S    
C6    C7    A    
C12   C35   S    
C28   H32   S    
C3    C9    A    
C35   H4    S    
O2    Zn2   S    
C17   C20   A    
C10   C11   A    
C4    C36   S    
H18   N11   S    
C15   N1    A    
C12   C37   S    
O7    Zn1   S    
O5    Zn1   S    
N5    Zn2   S    
O3    Zn1   S    
C31   N11   S    
