data_mof_unit_29008.cif
_audit_creation_date              2012-12-10T18:04:02-0500
_audit_creation_method            fapswitch 2.2
_symmetry_space_group_name_H-M    P1
_symmetry_Int_Tables_number       1
_space_group_crystal_system       triclinic
_cell_length_a                    10.822426
_cell_length_b                    9.501072
_cell_length_c                    10.860105
_cell_angle_alpha                 89.986683
_cell_angle_beta                  90.183685
_cell_angle_gamma                 89.416564
_cell_volume                      1116.62280865

loop_
_atom_site_label
_atom_site_type_symbol
_atom_type_description
_atom_site_fract_x
_atom_site_fract_y
_atom_site_fract_z
_atom_type_partial_charge
C1    C     C_R   0.262282 0.500467 0.490494 0.789382
C2    C     C_R   0.738143 0.498543 0.508799 0.791933
C3    C     C_R   0.434761 0.075143 0.413353 -0.030025
C4    C     C_R   0.565081 0.073619 0.586769 -0.032745
C5    C     C_R   0.434133 0.926279 0.413811 -0.026368
C6    C     C_R   0.565800 0.924735 0.586248 -0.022399
C7    C     C_R   0.499460 0.499873 0.262572 0.805118
C8    C     C_R   0.499910 0.499849 0.737433 0.808337
C9    C     C_R   0.499964 0.621601 0.061952 0.134333
C10   C     C_R   0.500593 0.621572 0.938014 0.134823
C11   C     C_R   0.498353 0.498156 0.130034 -0.107023
C12   C     C_R   0.499113 0.498115 0.869978 -0.107449
C13   C     C_R   0.496065 0.369774 0.064599 -0.223958
C14   C     C_R   0.496481 0.369754 0.935462 -0.221196
C15   C     C_3   0.504525 0.777943 0.929053 -0.477938
C16   C     C_3   0.503580 0.777987 0.070870 -0.475148
C17   C     C_R   0.062409 0.375589 0.460157 0.097308
C18   C     C_R   0.942184 0.367355 0.507118 0.095735
C19   C     C_R   0.873189 0.495076 0.515590 -0.094170
C20   C     C_R   0.127881 0.501054 0.482073 -0.090566
C21   C     C_R   0.935594 0.623660 0.517353 -0.216892
C22   C     C_R   0.063015 0.625372 0.509373 -0.218668
Cu1   Cu    Cu3+1 0.500000 0.640660 0.500000 0.939864
Cu2   Cu    Cu3+1 0.500000 0.359340 0.500000 0.927737
H1    H     H_    0.494246 0.269742 0.112398 0.163331
H2    H     H_    0.494953 0.269711 0.887701 0.164521
H3    H     H_    0.592718 0.815496 0.889170 0.188449
H4    H     H_    0.417422 0.823041 0.110812 0.188880
H5    H     H_    0.419080 0.823146 0.887158 0.202825
H6    H     H_    0.591067 0.815765 0.112676 0.203285
H7    H     H_    0.886448 0.722679 0.528642 0.160546
H8    H     H_    0.110197 0.724350 0.522171 0.164918
H9    H     H_    0.383080 0.131615 0.343507 0.110997
H10   H     H_    0.616460 0.128942 0.656833 0.108200
H11   H     H_    0.381021 0.870747 0.345085 0.114971
H12   H     H_    0.618898 0.867965 0.655003 0.114552
N1    N     N_R   0.500000 0.852070 0.500000 -0.156410
N2    N     N_R   0.500000 0.147940 0.500000 -0.155117
O1    O     O_R   0.319640 0.618740 0.499990 -0.582734
O2    O     O_R   0.680360 0.618740 0.500010 -0.580028
O3    O     O_R   0.319620 0.381170 0.499990 -0.590063
O4    O     O_R   0.680380 0.381170 0.500010 -0.593843
O5    O     O_R   0.499990 0.618810 0.319660 -0.582310
O6    O     O_R   0.500010 0.618810 0.680340 -0.583290
O7    O     O_R   0.499960 0.381240 0.319650 -0.593977
O8    O     O_R   0.500040 0.381240 0.680350 -0.591600
C23   C     C_3   0.112634 0.258117 0.377844 -0.414022
C24   C     C_3   0.031648 0.239296 0.262585 -0.355412
C25   C     C_3   0.082750 0.122685 0.179843 -0.868265
H13   H     H_    0.177668 0.148425 0.148979 0.248931
H14   H     H_    0.084970 0.020850 0.230148 0.251831
H15   H     H_    0.022704 0.111602 0.097372 0.247966
H16   H     H_    0.935504 0.212651 0.288159 0.222673
H17   H     H_    0.028734 0.339475 0.209612 0.222810
H18   H     H_    0.205523 0.283278 0.342503 0.211471
H19   H     H_    0.119839 0.157489 0.429275 0.201071
C26   C     C_3   0.899117 0.227304 0.560410 -0.407542
C27   C     C_3   0.984356 0.176711 0.665544 -0.358356
C28   C     C_3   0.943871 0.033987 0.714987 -0.872488
H20   H     H_    0.847804 0.040577 0.750449 0.243478
H21   H     H_    0.948795 0.953355 0.641082 0.250445
H22   H     H_    0.006059 0.000936 0.791447 0.247779
H23   H     H_    0.081615 0.166958 0.634561 0.226366
H24   H     H_    0.981485 0.254793 0.741789 0.222349
H25   H     H_    0.807279 0.235689 0.603156 0.220815
H26   H     H_    0.894300 0.146151 0.487169 0.201968

loop_
_geom_bond_atom_site_label_1
_geom_bond_atom_site_label_2
_ccdc_geom_bond_type
C16   H4    S    
Cu2   N2    S    
Cu1   Cu2   S    
C7    O5    A    
C11   C13   A    
C9    C10   A    
C5    H11   S    
C18   C26   S    
C15   H3    S    
C23   C24   S    
C20   C22   A    
C26   H26   S    
C8    C12   S    
C25   H15   S    
Cu2   O8    S    
C25   H14   S    
C2    C19   S    
C17   C18   A    
C12   C14   A    
C6    N1    A    
Cu1   O5    S    
C28   H20   S    
Cu1   N1    S    
C21   C22   A    
C14   H2    S    
C7    C11   S    
Cu2   O3    S    
C21   H7    S    
C13   H1    S    
C26   C27   S    
C22   H8    S    
C2    O4    A    
Cu1   O1    S    
Cu2   O7    S    
C7    O7    A    
C4    C6    A    
C24   C25   S    
C19   C21   A    
C9    C16   S    
C6    H12   S    
C15   H5    S    
C10   C12   A    
C10   C15   S    
C9    C11   A    
C27   H24   S    
C24   H16   S    
C25   H13   S    
C4    H10   S    
C28   H21   S    
C5    N1    A    
C1    O1    A    
C16   H6    S    
Cu1   O2    S    
C2    O2    A    
C17   C20   A    
Cu2   O4    S    
C3    N2    A    
C23   H18   S    
C18   C19   A    
C26   H25   S    
C1    O3    A    
C27   H23   S    
C24   H17   S    
C3    H9    S    
C1    C20   S    
C8    O8    A    
C3    C5    A    
C27   C28   S    
C13   C14   A    
Cu1   O6    S    
C15   C16   S    
C17   C23   S    
C4    N2    A    
C23   H19   S    
C28   H22   S    
C8    O6    A    
