data_mof_unit_35840.cif
_audit_creation_date              2012-12-11T17:19:17-0500
_audit_creation_method            fapswitch 2.2
_symmetry_space_group_name_H-M    P1
_symmetry_Int_Tables_number       1
_space_group_crystal_system       triclinic
_cell_length_a                    14.918754
_cell_length_b                    7.257356
_cell_length_c                    13.305994
_cell_angle_alpha                 89.335536
_cell_angle_beta                  100.135647
_cell_angle_gamma                 90.665883
_cell_volume                      1418.00392104

loop_
_atom_site_label
_atom_site_type_symbol
_atom_type_description
_atom_site_fract_x
_atom_site_fract_y
_atom_site_fract_z
_atom_type_partial_charge
O1    O     O_R   0.648180 0.355050 0.151550 -0.537856
O2    O     O_R   0.351820 0.644950 0.848450 -0.539637
O3    O     O_R   0.851820 0.855050 0.348450 -0.541529
O4    O     O_R   0.148180 0.144950 0.651550 -0.519325
O5    O     O_R   0.835240 0.681980 0.154280 -0.532779
O6    O     O_R   0.164760 0.318020 0.845720 -0.533483
O7    O     O_R   0.664760 0.181980 0.345720 -0.528637
O8    O     O_R   0.335240 0.818020 0.654280 -0.540053
H1    H     H_    0.651019 0.056688 0.846816 0.155335
H2    H     H_    0.347709 0.870128 0.163725 0.141542
H3    H     H_    0.852207 0.550980 0.652369 0.155949
H4    H     H_    0.155276 0.528201 0.344554 0.149511
C1    C     C_R   0.858957 0.518263 0.127154 0.686586
C2    C     C_R   0.141487 0.482083 0.873152 0.685399
C3    C     C_R   0.640877 0.015073 0.372437 0.684967
C4    C     C_R   0.359337 0.985720 0.628173 0.695031
O9    O     O_R   0.647870 0.684600 0.139630 -0.521271
O10   O     O_R   0.352130 0.315400 0.860370 -0.520528
O11   O     O_R   0.852130 0.184600 0.360370 -0.516205
O12   O     O_R   0.147870 0.815400 0.639630 -0.544595
O13   O     O_R   0.663110 0.857440 0.333700 -0.542282
O14   O     O_R   0.336890 0.142560 0.666300 -0.530620
O15   O     O_R   0.836890 0.357440 0.166300 -0.534822
O16   O     O_R   0.163110 0.642560 0.833700 -0.536129
C5    C     C_R   0.614768 0.515947 0.113467 0.728514
C6    C     C_R   0.385166 0.484054 0.886618 0.730404
C7    C     C_R   0.884955 0.016022 0.386848 0.727865
C8    C     C_R   0.114136 0.983487 0.614394 0.740290
H5    H     H_    0.497046 0.989244 0.765502 0.116627
H6    H     H_    0.505495 0.901493 0.243166 0.125518
H7    H     H_    0.004260 0.478661 0.735783 0.117943
H8    H     H_    0.998558 0.560878 0.261847 0.115816
O17   O     O_3   0.755220 0.522230 0.313690 -0.367927
O18   O     O_3   0.244780 0.477770 0.686310 -0.371543
O19   O     O_3   0.744780 0.022230 0.186310 -0.368783
O20   O     O_3   0.255220 0.977770 0.813690 -0.370784
V1    V     V_3+5 0.749030 0.796100 0.238190 1.470469
V2    V     V_3+5 0.250970 0.203900 0.761810 1.496997
V3    V     V_3+5 0.750970 0.296100 0.261810 1.484770
V4    V     V_3+5 0.249030 0.703900 0.738190 1.446886
C9    C     C_1   0.965493 0.005088 0.467515 -0.155705
C10   C     C_1   0.032974 0.993787 0.534437 -0.145898
C11   C     C_1   0.533811 0.505330 0.033376 -0.158101
C12   C     C_1   0.466099 0.494695 0.966741 -0.157757
H9    H     H_    0.226267 0.958503 0.255141 0.132617
H10   H     H_    0.767411 0.140378 0.746784 0.135789
H11   H     H_    0.270422 0.420717 0.249492 0.132942
H12   H     H_    0.735166 0.632871 0.749804 0.135538
C13   C     C_R   0.546595 0.015115 0.716502 -0.137768
C14   C     C_R   0.454904 0.923724 0.290579 -0.148165
C15   C     C_R   0.954939 0.507631 0.784011 -0.137765
C16   C     C_R   0.047673 0.525400 0.214503 -0.141476
C17   C     C_R   0.634950 0.051472 0.764483 -0.137319
C18   C     C_R   0.364388 0.906313 0.243609 -0.125002
C19   C     C_R   0.867428 0.545618 0.734743 -0.146211
C20   C     C_R   0.137366 0.507617 0.263019 -0.122066
C21   C     C_R   0.700827 0.096677 0.707140 -0.153843
C22   C     C_R   0.295673 0.951857 0.296369 -0.142866
C23   C     C_R   0.801223 0.590070 0.790652 -0.151448
C24   C     C_R   0.202789 0.451654 0.208290 -0.143832
C25   C     C_R   0.679963 0.100656 0.600456 -0.048074
C26   C     C_R   0.316597 0.002572 0.398928 -0.045594
C27   C     C_R   0.821194 0.594645 0.897262 -0.044993
C28   C     C_R   0.180442 0.423614 0.102984 -0.055496
C29   C     C_R   0.592206 0.042498 0.548142 0.023868
C30   C     C_R   0.407585 0.989954 0.453248 0.025263
C31   C     C_R   0.908520 0.539284 0.951230 0.020845
C32   C     C_R   0.091999 0.469478 0.048504 0.022913
C33   C     C_R   0.522722 0.015754 0.608654 0.067542
C34   C     C_R   0.478616 0.970371 0.395162 0.069018
C35   C     C_R   0.978181 0.508464 0.891948 0.071522
C36   C     C_R   0.022687 0.503968 0.107515 0.071432
C37   C     C_R   0.570683 0.007491 0.440367 -0.173606
C38   C     C_R   0.430208 0.998679 0.561724 -0.170422
C39   C     C_R   0.930203 0.520925 0.060180 -0.173475
C40   C     C_R   0.069999 0.481697 0.939528 -0.170732
C41   C     C_1   0.742848 0.208071 0.553632 0.253155
N1    N     N_1   0.793785 0.301569 0.520421 -0.338932
C42   C     C_1   0.249255 0.111629 0.435270 0.240731
N2    N     N_1   0.195555 0.204880 0.461198 -0.357257
C43   C     C_1   0.757650 0.699040 0.942232 0.251745
N3    N     N_1   0.706151 0.789535 0.974039 -0.343148
C44   C     C_1   0.243139 0.309940 0.061606 0.251177
N4    N     N_1   0.293731 0.213064 0.032470 -0.336778

loop_
_geom_bond_atom_site_label_1
_geom_bond_atom_site_label_2
_ccdc_geom_bond_type
C22   C26   A    
O5    V1    S    
C9    C10   T    
O10   C6    A    
C5    C11   S    
C43   N3    T    
C6    C12   S    
H5    C13   S    
C41   N1    T    
C14   C18   A    
C27   C43   S    
O18   V4    S    
C28   C32   A    
O19   V1    S    
C19   C23   A    
C35   C40   A    
O12   V4    S    
O15   V3    S    
C30   C38   A    
C29   C37   A    
C1    O15   A    
C2    O16   A    
H8    C16   S    
H11   C24   S    
O17   V3    S    
C1    C39   S    
C25   C41   S    
O6    V2    S    
O11   C7    A    
C31   C35   A    
O7    C3    A    
H6    C14   S    
O8    C4    A    
C13   C33   A    
O1    C5    A    
C15   C35   A    
C36   C39   A    
O4    C8    A    
C27   C31   A    
H9    C22   S    
C26   C30   A    
C26   C42   S    
C17   C21   A    
O12   C8    A    
C20   C24   A    
C2    C40   S    
C11   C12   T    
C28   C44   S    
C16   C36   A    
C25   C29   A    
O6    C2    A    
C7    C9    S    
C44   N4    T    
C32   C36   A    
C34   C37   A    
O13   V1    S    
C33   C38   A    
O2    C6    A    
O9    V1    S    
H4    C20   S    
O11   V3    S    
C3    C37   S    
O4    V2    S    
H10   C21   S    
C4    C38   S    
C31   C39   A    
H3    C19   S    
H12   C23   S    
C18   C22   A    
C29   C33   A    
C4    O14   A    
C8    C10   S    
O5    C1    A    
H7    C15   S    
C21   C25   A    
C32   C40   A    
C23   C27   A    
C24   C28   A    
O9    C5    A    
O3    C7    A    
C14   C34   A    
C30   C34   A    
C13   C17   A    
O20   V2    S    
O16   V4    S    
C15   C19   A    
O10   V2    S    
H2    C18   S    
O1    V3    S    
C42   N2    T    
O2    V4    S    
C3    O13   A    
H1    C17   S    
O3    V1    S    
O7    V3    S    
O8    V4    S    
C16   C20   A    
O14   V2    S    
