data_mof_unit_56357.cif
_audit_creation_date              2012-12-10T17:41:50-0500
_audit_creation_method            fapswitch 2.2
_symmetry_space_group_name_H-M    P1
_symmetry_Int_Tables_number       1
_space_group_crystal_system       triclinic
_cell_length_a                    13.756533
_cell_length_b                    13.975781
_cell_length_c                    14.974308
_cell_angle_alpha                 88.939271
_cell_angle_beta                  87.872448
_cell_angle_gamma                 86.168732
_cell_volume                      2870.14970078

loop_
_atom_site_label
_atom_site_type_symbol
_atom_type_description
_atom_site_fract_x
_atom_site_fract_y
_atom_site_fract_z
_atom_type_partial_charge
C1    C     C_R   0.501255 0.499711 0.328936 0.863600
C2    C     C_R   0.498607 0.501614 0.671035 0.857575
C3    C     C_R   0.506713 0.503258 0.952755 -0.034619
C4    C     C_R   0.507076 0.501020 0.046507 -0.026813
C5    C     C_R   0.524507 0.417006 0.905837 0.086150
C6    C     C_R   0.493997 0.587822 0.093361 0.078617
C7    C     C_R   0.480682 0.678139 0.953847 0.437037
C8    C     C_R   0.535560 0.326075 0.045056 0.440968
C9    C     C_R   0.482177 0.675236 0.046985 -0.270329
C10   C     C_R   0.539195 0.329709 0.951859 -0.285006
C11   C     C_R   0.793255 0.558011 0.441356 0.663097
C12   C     C_R   0.208183 0.439491 0.557472 0.650891
C13   C     C_R   0.794330 0.442055 0.558394 -0.021224
C14   C     C_R   0.204323 0.562203 0.445981 -0.055985
C15   C     C_R   0.897258 0.440375 0.559927 -0.131326
C16   C     C_R   0.100953 0.571931 0.452545 -0.103434
C17   C     C_R   0.947288 0.507560 0.507238 -0.067275
C18   C     C_R   0.050878 0.505590 0.506054 -0.053622
C19   C     C_R   0.893619 0.574217 0.453424 -0.243413
C20   C     C_R   0.104742 0.433021 0.553447 -0.269856
C21   C     C_R   0.951011 0.369285 0.608848 0.391401
C22   C     C_R   0.046895 0.645824 0.406470 0.331130
C23   C     C_R   0.514885 0.317312 0.500358 0.823368
C24   C     C_R   0.485264 0.682678 0.501088 0.835591
C25   C     C_R   0.053069 0.357854 0.595092 0.312895
C26   C     C_R   0.943268 0.649406 0.409230 0.320864
C27   C     C_1   0.478300 0.784640 0.508095 -0.114899
C28   C     C_1   0.523097 0.215029 0.499051 -0.098207
C29   C     C_2   0.466701 0.972945 0.524290 0.230268
C30   C     C_2   0.540450 0.025860 0.494312 0.278217
C31   C     C_1   0.531105 0.128953 0.497129 0.072023
C32   C     C_1   0.472981 0.870314 0.515573 0.008781
C33   C     C_R   0.526136 0.418967 0.813129 -0.316014
C34   C     C_R   0.494349 0.586210 0.186192 -0.308042
C35   C     C_R   0.497277 0.503119 0.767435 -0.138590
C36   C     C_R   0.503265 0.499002 0.232514 -0.149503
C37   C     C_R   0.473467 0.588843 0.812872 0.374990
C38   C     C_R   0.506041 0.411704 0.187470 0.365002
C39   C     C_R   0.486734 0.591289 0.905960 -0.102257
C40   C     C_R   0.516877 0.411894 0.093457 -0.094516
Cu1   Cu    Cu3+1 0.597420 0.500010 0.499990 1.011392
Cu2   Cu    Cu3+1 0.402580 0.499990 0.500010 0.971546
H1    H     H_    0.544824 0.353780 0.776205 0.146349
H2    H     H_    0.487175 0.652727 0.222867 0.158141
H3    H     H_    0.474277 0.742008 0.083083 0.166171
H4    H     H_    0.551033 0.263464 0.915332 0.162328
H5    H     H_    0.754186 0.393175 0.599966 0.175457
H6    H     H_    0.244551 0.605393 0.399105 0.177400
N1    N     N_R   0.743820 0.499960 0.499930 -0.240193
N2    N     N_R   0.256180 0.500040 0.500070 -0.237985
O1    O     O_R   0.582280 0.500030 0.370250 -0.553812
O2    O     O_R   0.417720 0.499970 0.629750 -0.578899
O3    O     O_R   0.417740 0.500020 0.370270 -0.599394
O4    O     O_R   0.582260 0.499980 0.629730 -0.596360
O5    O     O_R   0.593900 0.362160 0.500010 -0.585748
O6    O     O_R   0.406100 0.637840 0.499990 -0.628838
O7    O     O_R   0.429360 0.362150 0.500030 -0.526265
O8    O     O_R   0.570640 0.637850 0.499970 -0.516854
S1    S     S_3+6 0.650806 0.973112 0.448069 0.045126
O9    O     O_2   0.697279 0.906145 0.516213 -0.234899
O10   O     O_2   0.629412 0.917917 0.366663 -0.261422
O11   O     O_3   0.727096 0.058533 0.419102 -0.516828
H7    H     H_    0.785593 0.023413 0.392191 0.402054
S2    S     S_3+6 0.355738 0.026838 0.568109 0.014363
O12   O     O_2   0.375362 0.098156 0.638067 -0.226821
O13   O     O_2   0.304513 0.078227 0.492732 -0.301904
O14   O     O_3   0.284295 0.944665 0.613839 -0.509556
H8    H     H_    0.260461 0.910105 0.562735 0.327848
O15   O     O_3   0.439281 0.669098 0.764858 -0.606087
C41   C     C_3   0.336696 0.683583 0.778530 0.104818
H9    H     H_    0.320750 0.744689 0.824308 0.213209
H10   H     H_    0.301055 0.620464 0.808520 0.092052
C42   C     C_3   0.290331 0.708619 0.689191 -0.354841
H11   H     H_    0.327952 0.768226 0.656244 0.260743
H12   H     H_    0.299089 0.645732 0.645084 0.237350
C43   C     C_3   0.181747 0.737383 0.700934 -0.888591
H13   H     H_    0.142847 0.677614 0.732542 0.239915
H14   H     H_    0.150883 0.754090 0.634494 0.251947
H15   H     H_    0.170158 0.802004 0.743077 0.289618
O16   O     O_3   0.489696 0.328313 0.235548 -0.600778
C44   C     C_3   0.388610 0.314617 0.233982 0.074049
H16   H     H_    0.368300 0.295738 0.165484 0.166266
H17   H     H_    0.343959 0.380619 0.254852 0.144025
C45   C     C_3   0.363034 0.233246 0.298170 -0.296742
H18   H     H_    0.402312 0.165093 0.276353 0.233528
H19   H     H_    0.385873 0.249432 0.366115 0.245499
C46   C     C_3   0.253348 0.221658 0.301842 -0.838207
H20   H     H_    0.213059 0.289338 0.323494 0.258999
H21   H     H_    0.235762 0.164381 0.350701 0.300847
H22   H     H_    0.228742 0.202015 0.235188 0.238033
O17   O     O_3   0.471585 0.766865 0.911328 -0.599541
C47   C     C_3   0.564321 0.793383 0.879218 0.137911
H23   H     H_    0.552639 0.840582 0.819523 0.198308
H24   H     H_    0.613651 0.731226 0.856349 0.128606
C48   C     C_3   0.613486 0.849701 0.949878 -0.404875
H25   H     H_    0.562958 0.910259 0.973200 0.241862
H26   H     H_    0.630951 0.802049 0.008088 0.223140
C49   C     C_3   0.707665 0.889268 0.912478 -0.869965
H27   H     H_    0.759272 0.829897 0.888574 0.260649
H28   H     H_    0.742500 0.927704 0.965716 0.264792
H29   H     H_    0.692045 0.940332 0.856295 0.265690
O18   O     O_3   0.545951 0.237379 0.087578 -0.588538
C50   C     C_3   0.644406 0.216810 0.109802 0.136052
H30   H     H_    0.644334 0.176243 0.174334 0.201098
H31   H     H_    0.684781 0.281969 0.120687 0.111985
C51   C     C_3   0.698079 0.153976 0.038454 -0.402023
H32   H     H_    0.657675 0.088870 0.028906 0.242084
H33   H     H_    0.701711 0.194188 0.973937 0.210470
C52   C     C_3   0.801759 0.123749 0.065134 -0.874679
H34   H     H_    0.843612 0.187926 0.074358 0.256276
H35   H     H_    0.839044 0.079432 0.011674 0.262424
H36   H     H_    0.800548 0.080664 0.128215 0.274237
O19   O     O_3   0.748971 0.589186 0.363783 -0.542875
C53   C     C_3   0.784302 0.528846 0.292909 0.073429
H37   H     H_    0.753094 0.457611 0.301260 0.157938
H38   H     H_    0.865363 0.517414 0.290276 0.110344
C54   C     C_3   0.754501 0.574666 0.203614 -0.258350
H39   H     H_    0.678280 0.604830 0.209365 0.243122
H40   H     H_    0.800694 0.634675 0.186379 0.264330
C55   C     C_3   0.764935 0.502728 0.127930 -0.953273
H41   H     H_    0.841838 0.473697 0.119698 0.262061
H42   H     H_    0.742460 0.538568 0.064451 0.264585
H43   H     H_    0.717531 0.442892 0.142379 0.252612
O20   O     O_3   0.261985 0.385603 0.619071 -0.531938
C56   C     C_3   0.236303 0.417274 0.706691 0.069603
H44   H     H_    0.157076 0.414857 0.722965 0.106892
H45   H     H_    0.256189 0.492269 0.714598 0.128258
C57   C     C_3   0.290977 0.352083 0.773770 -0.229808
H46   H     H_    0.267245 0.278099 0.770597 0.279084
H47   H     H_    0.369648 0.348098 0.755528 0.219046
C58   C     C_3   0.274047 0.387651 0.869187 -0.936926
H48   H     H_    0.300961 0.460234 0.875342 0.250771
H49   H     H_    0.314108 0.338080 0.915915 0.270570
H50   H     H_    0.195148 0.390130 0.888362 0.257763
O21   O     O_3   0.903660 0.301129 0.659452 -0.544530
C59   C     C_3   0.866344 0.341240 0.741137 0.022858
H51   H     H_    0.795699 0.309684 0.757583 0.170877
H52   H     H_    0.850463 0.420638 0.738023 0.113467
C60   C     C_3   0.935954 0.315523 0.816572 -0.277755
H53   H     H_    0.950703 0.236413 0.820327 0.264350
H54   H     H_    0.005938 0.349147 0.802480 0.212692
C61   C     C_3   0.892868 0.350588 0.906537 -0.946880
H55   H     H_    0.879651 0.429883 0.905070 0.259921
H56   H     H_    0.944629 0.330318 0.959906 0.262102
H57   H     H_    0.823047 0.317452 0.922703 0.261962
O22   O     O_3   0.094094 0.707469 0.348549 -0.611717
C62   C     C_3   0.134796 0.781027 0.395802 0.076178
H58   H     H_    0.205199 0.755287 0.424322 0.121332
H59   H     H_    0.086401 0.808762 0.452068 0.178007
C63   C     C_3   0.153843 0.862641 0.329472 -0.335696
H60   H     H_    0.199793 0.834009 0.272092 0.224247
H61   H     H_    0.083587 0.893207 0.303492 0.248886
C64   C     C_3   0.205779 0.941929 0.372108 -0.828561
H62   H     H_    0.160336 0.973370 0.428470 0.284627
H63   H     H_    0.218602 0.998974 0.321380 0.259193
H64   H     H_    0.277429 0.913233 0.396457 0.253966
S3    S     S_3+6 0.107213 0.239999 0.609697 0.077777
O23   O     O_2   0.202916 0.228366 0.558596 -0.183921
O24   O     O_2   0.121422 0.218392 0.707048 -0.306084
O25   O     O_3   0.032409 0.161277 0.570711 -0.469805
H65   H     H_    0.068507 0.097850 0.576555 0.387234
S4    S     S_3+6 0.879713 0.755690 0.366805 0.064586
O26   O     O_2   0.773530 0.761794 0.394202 -0.139722
O27   O     O_2   0.921985 0.843102 0.402224 -0.306424
O28   O     O_3   0.891246 0.759027 0.254692 -0.537701
H66   H     H_    0.956209 0.783236 0.240863 0.365748

loop_
_geom_bond_atom_site_label_1
_geom_bond_atom_site_label_2
_ccdc_geom_bond_type
C2    C35   S    
C46   H20   S    
C9    H3    S    
O28   H66   S    
C37   O15   S    
C48   H25   S    
Cu1   Cu2   S    
C62   H58   S    
C24   C27   S    
C58   H50   S    
C57   H46   S    
C6    C9    A    
C44   H16   S    
C48   C49   S    
O21   C59   S    
C11   C19   A    
S3    O23   D    
C51   H33   S    
C35   C37   A    
C43   H14   S    
Cu1   O8    S    
S4    O26   D    
C29   C32   S    
C54   H40   S    
Cu2   O3    S    
C30   C31   S    
C60   C61   S    
C51   H32   S    
C23   O7    A    
C42   H11   S    
C19   C26   A    
C1    O3    A    
Cu1   O5    S    
Cu2   O6    S    
C4    C40   A    
C63   C64   S    
C5    C33   A    
C10   H4    S    
C56   C57   S    
C45   C46   S    
C41   H9    S    
C14   C16   A    
C64   H63   S    
C18   C20   A    
C55   H43   S    
C29   S2    S    
C3    C39   A    
S1    O9    D    
S3    O24   D    
C42   H12   S    
C61   H57   S    
O18   C50   S    
C41   C42   S    
C59   C60   S    
Cu2   O7    S    
Cu1   N1    S    
C44   H17   S    
C55   H42   S    
C53   H37   S    
S4    O27   D    
S1    O10   D    
O22   C62   S    
O14   H8    S    
C33   H1    S    
S2    O14   S    
C22   O22   S    
C62   C63   S    
C34   H2    S    
C43   H13   S    
C4    C6    A    
C2    O4    A    
C52   H36   S    
O17   C47   S    
C13   H5    S    
O16   C44   S    
C14   H6    S    
C3    C5    A    
C26   S4    S    
C47   C48   S    
C6    C34   A    
S2    O13   D    
C29   C30   D    
C11   N1    A    
S4    O28   S    
C12   N2    A    
C12   O20   S    
C7    O17   S    
C30   S1    S    
C12   C20   A    
O11   H7    S    
C47   H24   S    
C17   C18   A    
C50   H31   S    
C23   C28   S    
C45   H18   S    
C64   H64   S    
C1    O1    A    
C2    O2    A    
Cu2   N2    S    
C13   N1    A    
C24   O8    A    
C16   C18   A    
S3    O25   S    
C49   H28   S    
C13   C15   A    
C25   S3    S    
C56   H44   S    
C42   C43   S    
C63   H61   S    
C54   C55   S    
C17   C19   A    
C3    C4    A    
C57   C58   S    
C44   C45   S    
C55   H41   S    
C59   H52   S    
O19   C53   S    
C15   C17   A    
C21   C25   A    
S1    O11   S    
C16   C22   A    
C62   H59   S    
C27   C32   T    
C63   H60   S    
C28   C31   T    
C45   H19   S    
C59   H51   S    
C58   H49   S    
C57   H47   S    
C53   H38   S    
C60   H53   S    
C48   H26   S    
C23   O5    A    
C24   O6    A    
C49   H29   S    
S2    O12   D    
C52   H35   S    
C5    C10   A    
C37   C39   A    
C52   H34   S    
O25   H65   S    
C38   C40   A    
C60   H54   S    
C14   N2    A    
C38   O16   S    
C36   C38   A    
C47   H23   S    
C33   C35   A    
Cu1   O1    S    
C50   C51   S    
C34   C36   A    
O15   C41   S    
C11   O19   S    
Cu1   O4    S    
C53   C54   S    
C22   C26   A    
C7    C9    A    
C15   C21   A    
C43   H15   S    
C8    C10   A    
C49   H27   S    
C20   C25   A    
C46   H22   S    
C50   H30   S    
C56   H45   S    
C46   H21   S    
C7    C39   A    
C61   H55   S    
C41   H10   S    
C8    C40   A    
C64   H62   S    
C54   H39   S    
C8    O18   S    
C21   O21   S    
C61   H56   S    
C58   H48   S    
C1    C36   S    
Cu2   O2    S    
O20   C56   S    
C51   C52   S    
