data_mof_unit_10348.cif
_audit_creation_date              2012-12-10T18:12:30-0500
_audit_creation_method            fapswitch 2.2
_symmetry_space_group_name_H-M    P1
_symmetry_Int_Tables_number       1
_space_group_crystal_system       triclinic
_cell_length_a                    9.506352
_cell_length_b                    10.723341
_cell_length_c                    17.338707
_cell_angle_alpha                 89.517806
_cell_angle_beta                  85.480844
_cell_angle_gamma                 90.403076
_cell_volume                      1761.89523548

loop_
_atom_site_label
_atom_site_type_symbol
_atom_type_description
_atom_site_fract_x
_atom_site_fract_y
_atom_site_fract_z
_atom_type_partial_charge
C1    C     C_R   0.500306 0.739929 0.499259 0.753749
C2    C     C_R   0.362709 0.472690 0.781399 -0.204920
C3    C     C_R   0.428371 0.558050 0.146508 -0.175453
C4    C     C_R   0.415137 0.541672 0.225968 -0.225402
C5    C     C_R   0.669029 0.525699 0.226375 -0.247307
C6    C     C_R   0.683901 0.545024 0.146281 0.032377
C7    C     C_R   0.561717 0.557478 0.105787 0.141310
C8    C     C_2   0.485408 0.502401 0.980071 -0.258818
C9    C     C_2   0.570811 0.570382 0.021251 -0.236948
C10   C     C_R   0.534497 0.521502 0.266268 -0.048644
C11   C     C_3   0.348481 0.927510 0.490395 -0.369461
C12   C     C_R   0.482308 0.504086 0.649753 0.795196
C13   C     C_3   0.348134 0.070151 0.489688 -0.388118
C14   C     C_3   0.551919 0.927424 0.575339 -0.384413
C15   C     C_3   0.598208 0.929670 0.429975 -0.382191
C16   C     C_3   0.499977 0.878050 0.498710 0.170985
C17   C     C_3   0.498849 0.121931 0.498715 0.170766
C18   C     C_3   0.550158 0.071352 0.575604 -0.375909
C19   C     C_3   0.598308 0.073693 0.430278 -0.378215
C20   C     C_3   0.914141 0.374515 0.481025 -0.172832
C21   C     C_3   0.080138 0.376109 0.470007 0.112370
C22   C     C_3   0.927574 0.589416 0.441090 -0.199124
C23   C     C_R   0.499549 0.260075 0.499286 0.752839
C24   C     C_3   0.903254 0.536895 0.573784 -0.234390
C25   C     C_3   0.092894 0.598467 0.448956 -0.204661
C26   C     C_3   0.068701 0.522337 0.578816 -0.011208
C27   C     C_R   0.519649 0.504624 0.350325 0.792081
C28   C     C_R   0.479823 0.512259 0.734249 -0.040849
C29   C     C_R   0.601202 0.552741 0.768524 -0.197513
C30   C     C_R   0.604940 0.551101 0.848521 -0.147476
C31   C     C_R   0.486505 0.509622 0.895522 0.192271
C32   C     C_R   0.365898 0.469770 0.861252 -0.173893
Cu1   Cu    Cu3+1 0.357600 0.500140 0.499960 0.893792
Cu2   Cu    Cu3+1 0.642400 0.499860 0.500040 0.890013
H1    H     H_    0.694250 0.584176 0.733521 0.135360
H2    H     H_    0.275199 0.893006 0.539358 0.160759
H3    H     H_    0.308087 0.892913 0.435858 0.155643
H4    H     H_    0.309711 0.104033 0.434363 0.153873
H5    H     H_    0.273221 0.102589 0.537614 0.152391
H6    H     H_    0.483010 0.890716 0.625420 0.148997
H7    H     H_    0.479196 0.104236 0.625327 0.148614
H8    H     H_    0.707859 0.895930 0.434030 0.158982
H9    H     H_    0.561988 0.895601 0.374345 0.149484
H10   H     H_    0.563428 0.109484 0.374493 0.147418
H11   H     H_    0.311498 0.546206 0.255806 0.159694
H12   H     H_    0.707899 0.108309 0.435127 0.160160
H13   H     H_    0.660985 0.894474 0.582380 0.160803
H14   H     H_    0.658122 0.107275 0.583645 0.164762
H15   H     H_    0.865081 0.335577 0.430690 0.150675
H16   H     H_    0.879943 0.309297 0.529431 0.121340
H17   H     H_    0.110253 0.299381 0.506877 0.087908
H18   H     H_    0.906455 0.562411 0.381490 0.136733
H19   H     H_    0.153286 0.600953 0.392038 0.151770
H20   H     H_    0.871484 0.634760 0.586792 0.123445
H21   H     H_    0.762896 0.514044 0.257285 0.144819
H22   H     H_    0.843949 0.478558 0.618209 0.184814
H23   H     H_    0.109720 0.613678 0.597982 0.116448
H24   H     H_    0.881204 0.683674 0.449321 0.139837
H25   H     H_    0.116245 0.690944 0.473863 0.123480
H26   H     H_    0.650122 0.632772 0.993703 0.160515
H27   H     H_    0.274340 0.435182 0.896179 0.120084
H28   H     H_    0.334075 0.572596 0.116783 0.145673
H29   H     H_    0.271103 0.440163 0.756482 0.193598
H30   H     H_    0.408235 0.440084 0.010148 0.154830
H31   H     H_    0.701756 0.578849 0.872588 0.120170
N1    N     N_3   0.856560 0.499750 0.498270 -0.135919
N2    N     N_3   0.143860 0.496700 0.498910 -0.144463
O1    O     O_R   0.379740 0.682430 0.499960 -0.600796
O2    O     O_R   0.620260 0.682190 0.500020 -0.594222
O3    O     O_R   0.365800 0.500150 0.613560 -0.585350
O4    O     O_R   0.606310 0.499910 0.613620 -0.597117
O5    O     O_R   0.379740 0.317810 0.499980 -0.622413
O6    O     O_R   0.620260 0.317570 0.500040 -0.594069
O7    O     O_R   0.393690 0.500090 0.386380 -0.599252
O8    O     O_R   0.634200 0.499850 0.386440 -0.592369
C33   C     C_R   0.827313 0.553072 0.106703 0.097933
C34   C     C_R   0.870641 0.468919 0.048026 -0.151957
C35   C     C_R   0.004283 0.481025 0.008849 -0.156246
C36   C     C_R   0.094984 0.577195 0.027782 -0.126394
C37   C     C_R   0.053770 0.659497 0.087216 -0.145370
C38   C     C_R   0.920698 0.647189 0.126932 -0.163746
H32   H     H_    0.800768 0.394665 0.032407 0.134349
H33   H     H_    0.037103 0.416202 0.963622 0.117208
H34   H     H_    0.197274 0.588157 0.996570 0.130676
H35   H     H_    0.124639 0.733329 0.102180 0.124073
H36   H     H_    0.889282 0.712479 0.172305 0.118345
C39   C     C_3   0.136152 0.325528 0.388533 -0.376389
C40   C     C_3   0.075577 0.377490 0.314535 -0.363667
C41   C     C_3   0.136440 0.308274 0.242924 -0.868624
H37   H     H_    0.253472 0.313543 0.238059 0.259463
H38   H     H_    0.103180 0.208741 0.246116 0.247271
H39   H     H_    0.097142 0.351006 0.190194 0.256641
H40   H     H_    0.959566 0.366190 0.316606 0.206622
H41   H     H_    0.099828 0.477075 0.305249 0.205880
H42   H     H_    0.252012 0.326858 0.381497 0.244511
H43   H     H_    0.109275 0.224202 0.389413 0.148556
C42   C     C_R   0.083852 0.433923 0.649521 0.123028
C43   C     C_R   0.148446 0.315639 0.649181 -0.147648
C44   C     C_R   0.130156 0.234890 0.713111 -0.197905
C45   C     C_R   0.050586 0.271417 0.779960 -0.115216
C46   C     C_R   0.993888 0.390762 0.784151 -0.134847
C47   C     C_R   0.013642 0.472033 0.720753 -0.225078
H44   H     H_    0.218452 0.284902 0.602859 0.159310
H45   H     H_    0.179792 0.144286 0.711074 0.127628
H46   H     H_    0.036374 0.208671 0.829216 0.122630
H47   H     H_    0.934457 0.420672 0.836433 0.130396
H48   H     H_    0.967199 0.563855 0.725870 0.111459

loop_
_geom_bond_atom_site_label_1
_geom_bond_atom_site_label_2
_ccdc_geom_bond_type
C10   C27   S    
C39   C40   S    
C21   C39   S    
C46   C47   A    
C14   C18   S    
C25   N2    S    
Cu2   N1    S    
C37   H35   S    
C42   C43   A    
C19   H12   S    
C34   C35   A    
C19   H10   S    
C15   C19   S    
C45   H46   S    
C17   C23   S    
C12   C28   S    
C26   N2    S    
C20   N1    S    
C28   C29   A    
C25   H19   S    
C32   H27   S    
C3    C7    A    
C36   H34   S    
C24   H20   S    
C15   C16   S    
C1    O1    A    
C2    C32   A    
C11   H3    S    
C22   N1    S    
C20   H16   S    
Cu1   O5    S    
C35   H33   S    
C31   C32   A    
C8    C9    D    
C22   C25   S    
C39   H42   S    
C41   H38   S    
C27   O7    A    
C38   H36   S    
C24   N1    S    
Cu2   O8    S    
C44   H45   S    
C21   N2    S    
C23   O6    A    
C27   O8    A    
Cu1   Cu2   S    
C4    H11   S    
C40   H41   S    
C33   C34   A    
C18   H7    S    
C35   C36   A    
Cu2   O6    S    
C1    O2    A    
C29   C30   A    
C20   H15   S    
C11   C16   S    
C44   C45   A    
C30   C31   A    
C39   H43   S    
C17   C18   S    
C47   H48   S    
C1    C16   S    
C40   C41   S    
C41   H39   S    
Cu2   O2    S    
C13   H4    S    
C14   H13   S    
Cu1   O3    S    
C8    H30   S    
C12   O4    A    
C14   C16   S    
C4    C10   A    
C3    C4    A    
C21   H17   S    
C2    H29   S    
Cu1   N2    S    
C22   H18   S    
C3    H28   S    
C46   H47   S    
C7    C9    S    
C12   O3    A    
C40   H40   S    
C11   H2    S    
C8    C31   S    
C23   O5    A    
C5    H21   S    
C42   C47   A    
C15   H8    S    
C24   C26   S    
C37   C38   A    
C18   H14   S    
C33   C38   A    
C22   H24   S    
C6    C33   S    
C6    C7    A    
C24   H22   S    
C29   H1    S    
C13   C17   S    
C9    H26   S    
C15   H9    S    
C5    C10   A    
C11   C13   S    
C5    C6    A    
C34   H32   S    
C45   C46   A    
C17   C19   S    
C26   H23   S    
C13   H5    S    
C30   H31   S    
C26   C42   S    
C14   H6    S    
C36   C37   A    
Cu1   O7    S    
C20   C21   S    
C43   C44   A    
C2    C28   A    
C25   H25   S    
C41   H37   S    
Cu2   O4    S    
C43   H44   S    
Cu1   O1    S    
