data_mof_unit_18111.cif
_audit_creation_date              2012-12-10T18:19:52-0500
_audit_creation_method            fapswitch 2.2
_symmetry_space_group_name_H-M    P1
_symmetry_Int_Tables_number       1
_space_group_crystal_system       triclinic
_cell_length_a                    10.61747
_cell_length_b                    10.671874
_cell_length_c                    9.419398
_cell_angle_alpha                 90.881668
_cell_angle_beta                  89.537399
_cell_angle_gamma                 90.155273
_cell_volume                      1067.13128132

loop_
_atom_site_label
_atom_site_type_symbol
_atom_type_description
_atom_site_fract_x
_atom_site_fract_y
_atom_site_fract_z
_atom_type_partial_charge
C1    C     C_R   0.510401 0.260367 0.498383 0.810515
C2    C     C_R   0.495412 0.740084 0.501358 0.832260
C3    C     C_3   0.450542 0.968074 0.619803 0.273750
C4    C     C_3   0.565155 0.031039 0.378571 0.298252
C5    C     C_3   0.481449 0.611594 0.052722 -0.057214
C6    C     C_3   0.518629 0.388461 0.947475 -0.065146
C7    C     C_3   0.393516 0.539629 0.951140 -0.027555
C8    C     C_3   0.606513 0.460636 0.048868 -0.043690
C9    C     C_3   0.587947 0.572118 0.949964 -0.032127
C10   C     C_3   0.412035 0.427985 0.050077 -0.037358
C11   C     C_R   0.259567 0.499212 0.500573 0.842028
C12   C     C_R   0.740517 0.499353 0.499362 0.823834
C13   C     C_3   0.039468 0.494137 0.636500 -0.286090
C14   C     C_3   0.961217 0.501679 0.362953 -0.278335
C15   C     C_3   0.957168 0.392378 0.562719 -0.317871
C16   C     C_3   0.043206 0.603620 0.437099 -0.309018
C17   C     C_3   0.877365 0.497613 0.497785 -0.087926
C18   C     C_3   0.122842 0.498784 0.501868 -0.090216
C19   C     C_3   0.958773 0.597328 0.570184 0.542786
C20   C     C_3   0.041874 0.398546 0.429530 0.547684
C21   C     C_3   0.574090 0.041578 0.609490 0.261834
C22   C     C_3   0.441343 0.958557 0.389952 0.242039
C23   C     C_3   0.624180 0.948598 0.493979 -0.300549
C24   C     C_3   0.390821 0.050355 0.505121 -0.337603
C25   C     C_3   0.497885 0.876140 0.504231 -0.162610
C26   C     C_3   0.516940 0.124093 0.494262 -0.159212
Cu1   Cu    Cu3+1 0.500030 0.499990 0.643150 0.939977
Cu2   Cu    Cu3+1 0.499970 0.500010 0.356850 0.937984
H1    H     H_    0.918284 0.307682 0.614131 0.136716
H2    H     H_    0.081392 0.690328 0.389064 0.142898
H3    H     H_    0.075787 0.491125 0.746520 0.148607
H4    H     H_    0.926794 0.502854 0.251979 0.147398
H5    H     H_    0.718747 0.904725 0.489281 0.182544
H6    H     H_    0.295205 0.092106 0.510123 0.162527
H7    H     H_    0.303948 0.573324 0.905415 0.115801
H8    H     H_    0.696675 0.428254 0.094307 0.109451
H9    H     H_    0.466745 0.705117 0.102776 0.144363
H10   H     H_    0.533965 0.294104 0.899540 0.134515
H11   H     H_    0.662089 0.632576 0.902934 0.114959
H12   H     H_    0.338295 0.367027 0.097150 0.132672
N1    N     N_3   0.500090 0.499970 0.858290 -0.151719
N2    N     N_3   0.499910 0.500030 0.141710 -0.153335
O1    O     O_R   0.500060 0.316850 0.620870 -0.594241
O2    O     O_R   0.499940 0.683150 0.379130 -0.585467
O3    O     O_R   0.500000 0.316860 0.379090 -0.575524
O4    O     O_R   0.500000 0.683140 0.620910 -0.570594
O5    O     O_R   0.316880 0.499960 0.620870 -0.595995
O6    O     O_R   0.683120 0.500040 0.379130 -0.602869
O7    O     O_R   0.316830 0.499970 0.379090 -0.564460
O8    O     O_R   0.683170 0.500030 0.620910 -0.571756
O9    O     O_3   0.905821 0.702930 0.640008 -0.631178
C27   C     C_3   0.996080 0.762741 0.727750 0.037954
H13   H     H_    0.989834 0.865146 0.710732 0.156483
H14   H     H_    0.095704 0.736795 0.702384 0.138375
C28   C     C_3   0.965646 0.736265 0.883651 -0.326703
H15   H     H_    0.869752 0.771403 0.910119 0.214340
H16   H     H_    0.966587 0.633688 0.901532 0.207804
C29   C     C_3   0.060336 0.799217 0.982671 -0.952811
H17   H     H_    0.157185 0.765932 0.957967 0.256790
H18   H     H_    0.037284 0.775339 0.094220 0.261038
H19   H     H_    0.056474 0.902618 0.971595 0.253059
O10   O     O_3   0.099878 0.296814 0.357407 -0.628595
C30   C     C_3   0.009024 0.213697 0.300150 0.044627
H20   H     H_    0.049464 0.174541 0.199829 0.169495
H21   H     H_    0.920340 0.260980 0.268979 0.107685
C31   C     C_3   0.980668 0.106939 0.403801 -0.354627
H22   H     H_    0.059374 0.096895 0.479847 0.225233
H23   H     H_    0.893847 0.129501 0.465479 0.196322
C32   C     C_3   0.961621 0.981355 0.327044 -0.911335
H24   H     H_    0.884879 0.987945 0.248285 0.282655
H25   H     H_    0.936926 0.908332 0.405254 0.260193
H26   H     H_    0.049787 0.952555 0.271809 0.254479
N3    N     N_2   0.646764 0.089630 0.728459 -0.430226
H27   H     H_    0.673588 0.181913 0.718554 0.249807
C33   C     C_3   0.749968 0.011864 0.772911 -0.732873
H28   H     H_    0.783996 0.045107 0.878026 0.222625
H29   H     H_    0.828638 0.018166 0.695022 0.219802
H30   H     H_    0.719866 0.912707 0.782072 0.253524
N4    N     N_2   0.366143 0.913497 0.272142 -0.431281
H31   H     H_    0.299116 0.849024 0.302757 0.247711
C34   C     C_3   0.314535 0.011201 0.185371 -0.728024
H32   H     H_    0.255856 0.968964 0.100360 0.222895
H33   H     H_    0.391131 0.065921 0.134989 0.246899
H34   H     H_    0.254566 0.075161 0.250462 0.255887
N5    N     N_2   0.380219 0.934963 0.746251 -0.430882
H35   H     H_    0.312838 0.000147 0.775068 0.241859
C35   C     C_3   0.452330 0.892677 0.865335 -0.656259
H36   H     H_    0.387571 0.847880 0.942030 0.216418
H37   H     H_    0.499389 0.973277 0.918789 0.242620
H38   H     H_    0.523582 0.822710 0.831505 0.247834
N6    N     N_2   0.634188 0.045194 0.246239 -0.440757
H39   H     H_    0.615884 0.977441 0.169922 0.260752
C36   C     C_3   0.656670 0.168927 0.193256 -0.690283
H40   H     H_    0.723929 0.163506 0.102614 0.202862
H41   H     H_    0.699479 0.229202 0.276868 0.236719
H42   H     H_    0.567311 0.209044 0.155187 0.244174

loop_
_geom_bond_atom_site_label_1
_geom_bond_atom_site_label_2
_ccdc_geom_bond_type
C7    C10   S    
C31   H23   S    
C28   H15   S    
C30   H21   S    
C11   C18   S    
C36   H40   S    
C5    H9    S    
C3    N5    S    
N3    H27   S    
C11   O5    A    
C12   O6    A    
C34   H32   S    
N5    H35   S    
C2    O4    A    
C13   C18   S    
C24   C26   S    
C22   N4    S    
C31   C32   S    
C10   N2    S    
C16   H2    S    
C21   N3    S    
C9    H11   S    
C22   C25   S    
C10   H12   S    
C8    H8    S    
C32   H25   S    
C1    O1    A    
C2    O2    A    
C8    C9    S    
C23   H5    S    
C6    N1    S    
C12   C17   S    
C6    H10   S    
C18   C20   S    
Cu1   O8    S    
C4    N6    S    
C29   H19   S    
C23   C25   S    
C31   H22   S    
C30   C31   S    
C36   H41   S    
N3    C33   S    
C14   C17   S    
C3    C24   S    
C34   H33   S    
C21   C26   S    
C27   H14   S    
C15   H1    S    
N5    C35   S    
C15   C20   S    
Cu2   O3    S    
C13   C19   S    
O9    C27   S    
C14   C20   S    
C3    C25   S    
C14   H4    S    
N6    H39   S    
C5    C7    S    
C4    C23   S    
C6    C8    S    
C29   H17   S    
Cu2   O2    S    
C24   H6    S    
C30   H20   S    
C32   H26   S    
C33   H28   S    
C5    C9    S    
O10   C30   S    
C11   O7    A    
Cu1   O1    S    
N6    C36   S    
C4    C22   S    
Cu2   O7    S    
Cu1   N1    S    
C4    C26   S    
C28   H16   S    
C33   H29   S    
Cu1   O4    S    
C36   H42   S    
C13   C15   S    
C1    C26   S    
C14   C16   S    
C3    C21   S    
C34   H34   S    
C27   H13   S    
C5    N2    S    
N4    C34   S    
Cu1   O5    S    
C15   C17   S    
Cu2   O6    S    
C7    H7    S    
C13   H3    S    
C8    N2    S    
C6    C10   S    
C12   O8    A    
C27   C28   S    
C9    N1    S    
C21   C23   S    
C1    O3    A    
C28   C29   S    
C16   C19   S    
Cu2   N2    S    
C17   C19   S    
C2    C25   S    
C22   C24   S    
C7    N1    S    
C20   O10   S    
C32   H24   S    
C33   H30   S    
N4    H31   S    
C19   O9    S    
C35   H36   S    
C16   C18   S    
C35   H38   S    
Cu1   Cu2   S    
C35   H37   S    
C29   H18   S    
