data_mof_unit_41736.cif
_audit_creation_date              2013-03-05T16:05:09-0500
_audit_creation_method            fapswitch 2.2
_symmetry_space_group_name_H-M    P1
_symmetry_Int_Tables_number       1
_space_group_crystal_system       triclinic
_cell_length_a                    10.791374
_cell_length_b                    9.553681
_cell_length_c                    10.991458
_cell_angle_alpha                 90.261119
_cell_angle_beta                  91.844695
_cell_angle_gamma                 90.759074
_cell_volume                      1132.48938595

loop_
_atom_site_label
_atom_site_type_symbol
_atom_site_description
_atom_site_fract_x
_atom_site_fract_y
_atom_site_fract_z
_atom_type_partial_charge
O1    O     O_R   0.319660 0.618740 0.499990 -0.538430
O2    O     O_R   0.319660 0.381260 0.499990 -0.534238
C1    C     C_R   0.263698 0.499150 0.516634 0.896311
O3    O     O_R   0.499990 0.618790 0.317690 -0.507984
O4    O     O_R   0.499990 0.381210 0.317690 -0.501584
C2    C     C_R   0.504297 0.500728 0.259965 0.993190
Cu1   Cu    Cu3+1 0.500020 0.640660 0.500000 1.122748
Cu2   Cu    Cu3+1 0.500020 0.359340 0.500000 1.102923
O5    O     O_R   0.680370 0.618830 0.500010 -0.579406
O6    O     O_R   0.680370 0.381170 0.500010 -0.576867
O7    O     O_R   0.500030 0.618780 0.682310 -0.533159
O8    O     O_R   0.500030 0.381220 0.682310 -0.608507
C3    C     C_R   0.738190 0.500886 0.502764 0.930739
C4    C     C_R   0.510729 0.499944 0.739583 0.946881
C5    C     C_3   0.424627 0.628099 0.063922 0.410742
C6    C     C_3   0.458833 0.352853 0.068157 0.448681
C7    C     C_3   0.446401 0.629648 0.922138 -0.196666
C8    C     C_3   0.449129 0.366283 0.926796 -0.182348
H1    H     H_    0.355252 0.619053 0.873462 0.233203
H2    H     H_    0.350517 0.389682 0.902546 0.213924
C9    C     C_3   0.658228 0.524915 0.081925 0.280360
C10   C     C_3   0.512703 0.502618 0.122034 -0.501747
C11   C     C_3   0.522745 0.499905 0.877661 -0.275018
C12   C     C_3   0.664979 0.504854 0.931779 0.395846
C13   C     C_R   0.061514 0.370365 0.540710 0.324996
C14   C     C_R   0.066848 0.623744 0.562578 0.306757
C15   C     C_R   0.934115 0.374443 0.519406 -0.115423
C16   C     C_R   0.938307 0.625737 0.542272 -0.125174
H3    H     H_    0.881798 0.277077 0.512389 0.211930
H4    H     H_    0.888692 0.722514 0.553444 0.209945
C17   C     C_R   0.872721 0.501674 0.515784 -0.120035
C18   C     C_R   0.130344 0.497319 0.542863 -0.242544
C19   C     C_R   0.407957 0.072662 0.439641 0.289132
C20   C     C_R   0.407570 0.923457 0.440252 0.283359
N1    N     N_R   0.500030 0.852070 0.500030 -0.169484
N2    N     N_R   0.500030 0.147930 0.500030 -0.172508
C21   C     C_R   0.591686 0.927527 0.560165 0.005058
C22   C     C_R   0.591427 0.075902 0.560587 -0.042696
H5    H     H_    0.665529 0.873516 0.608265 0.189194
H6    H     H_    0.664814 0.132671 0.609473 0.184887
N3    N     N_R   0.441658 0.775556 0.108792 0.133614
O9    O     O_R   0.361609 0.867782 0.070470 -0.288930
O10   O     O_R   0.526028 0.819441 0.186960 -0.252066
N4    N     N_R   0.538512 0.232603 0.105062 0.201104
O11   O     O_R   0.504008 0.147950 0.190065 -0.263471
O12   O     O_R   0.632443 0.193397 0.043177 -0.244402
N5    N     N_R   0.292646 0.595639 0.089093 0.156116
O13   O     O_R   0.211387 0.556778 0.004977 -0.265033
O14   O     O_R   0.251136 0.626882 0.195691 -0.272157
N6    N     N_R   0.331135 0.315311 0.106510 0.146842
O15   O     O_R   0.286534 0.358226 0.208337 -0.303872
O16   O     O_R   0.271499 0.213352 0.050156 -0.231693
N7    N     N_3   0.495272 0.763784 0.875760 -0.455991
H7    H     H_    0.560391 0.812852 0.933086 0.322577
H8    H     H_    0.423048 0.833588 0.858201 0.298173
N8    N     N_3   0.467651 0.227959 0.869409 -0.454855
H9    H     H_    0.554202 0.214718 0.832854 0.303122
H10   H     H_    0.398684 0.205041 0.803024 0.290443
N9    N     N_R   0.701455 0.665395 0.127581 0.174026
O17   O     O_R   0.727031 0.771540 0.058939 -0.233702
O18   O     O_R   0.732522 0.678820 0.242708 -0.276826
N10   N     N_R   0.747713 0.429524 0.144824 0.171745
O19   O     O_R   0.865554 0.460326 0.139182 -0.178937
O20   O     O_R   0.717041 0.349117 0.234158 -0.309925
N11   N     N_R   0.742989 0.617197 0.879862 0.161267
O21   O     O_R   0.709542 0.686758 0.783416 -0.363735
O22   O     O_R   0.860294 0.622161 0.912019 -0.177765
N12   N     N_R   0.727150 0.374965 0.890069 0.131616
O23   O     O_R   0.727607 0.351213 0.773430 -0.395479
O24   O     O_R   0.820111 0.321118 0.950554 -0.160134
N13   N     N_R   0.115366 0.239283 0.575014 0.140573
O25   O     O_R   0.199488 0.235554 0.662394 -0.326792
O26   O     O_R   0.057937 0.123473 0.543965 -0.311903
N14   N     N_R   0.128303 0.743959 0.617551 0.145008
O27   O     O_R   0.220964 0.727131 0.694519 -0.338780
O28   O     O_R   0.073850 0.864310 0.615751 -0.262304
N15   N     N_3   0.312128 0.144754 0.374164 -0.444127
H11   H     H_    0.309975 0.110772 0.283925 0.279714
H12   H     H_    0.227564 0.113489 0.408189 0.247166
N16   N     N_3   0.309602 0.846979 0.378405 -0.465593
H13   H     H_    0.304023 0.878006 0.287834 0.277722
H14   H     H_    0.225976 0.871936 0.417945 0.240654

loop_
_geom_bond_atom_site_label_1
_geom_bond_atom_site_label_2
_geom_bond_distance
_ccdc_geom_bond_type
C14   C18   1.415779 A    
C15   H3    1.082860 S    
N3    O9    1.303879 A    
C5    N5    1.488518 S    
Cu1   Cu2   2.687642 S    
N5    O14   1.302571 A    
N7    H7    1.034728 S    
Cu1   O7    2.015669 S    
C7    C11   1.581647 S    
N14   O28   1.298110 A    
N1    C21   1.367316 A    
C21   C22   1.417551 A    
C6    N6    1.493659 S    
C9    N9    1.494277 S    
O4    C2    1.309820 A    
O7    C4    1.305327 A    
C2    C10   1.521855 S    
C19   N2    1.370827 A    
N8    H9    1.037610 S    
C5    C7    1.583590 S    
C20   N1    1.368320 A    
Cu2   N2    2.019748 S    
O5    C3    1.295237 A    
N10   O20   1.298021 A    
C20   N16   1.429122 S    
C5    C10   1.657274 S    
N12   O23   1.301118 A    
N11   O22   1.303480 A    
N6    O16   1.303419 A    
C11   C12   1.628194 S    
C13   N13   1.434458 S    
C6    N4    1.493866 S    
C8    N8    1.480444 S    
C13   C18   1.413539 A    
N15   H12   1.038080 S    
N9    O17   1.298732 A    
C9    C10   1.656048 S    
N3    O10   1.295824 A    
O3    Cu1   2.013759 S    
N4    O12   1.297142 A    
N6    O15   1.299288 A    
N7    H8    1.046279 S    
N9    O18   1.303914 A    
N14   O27   1.300944 A    
C15   C17   1.392163 A    
C8    C11   1.599835 S    
C5    N3    1.497526 S    
O3    C2    1.293718 A    
N13   O26   1.299796 A    
C7    H1    1.107706 S    
N15   H11   1.041681 S    
O1    C1    1.301639 A    
C4    C11   1.519046 S    
N10   O19   1.304961 A    
N5    O13   1.302936 A    
Cu2   O8    2.013774 S    
C19   C20   1.425449 A    
C6    C8    1.559910 S    
C9    N10   1.492352 S    
C12   N11   1.482853 S    
N16   H14   1.044095 S    
O8    C4    1.296727 A    
C7    N7    1.478372 S    
N4    O11   1.298828 A    
Cu1   O5    1.960109 S    
C6    C10   1.638264 S    
O1    Cu1   1.954802 S    
Cu1   N1    2.019741 S    
C3    C17   1.454132 S    
C16   C17   1.397096 A    
O2    Cu2   1.960319 S    
N16   H13   1.040106 S    
O6    C3    1.295347 A    
O4    Cu2   2.015654 S    
C13   C15   1.388247 A    
C14   C16   1.398258 A    
C16   H4    1.083003 S    
O2    C1    1.299983 A    
N13   O25   1.301082 A    
C21   H5    1.080294 S    
C22   H6    1.081018 S    
C19   N15   1.427308 S    
N2    C22   1.367209 A    
C14   N14   1.439320 S    
N8    H10   1.045715 S    
C8    H2    1.114463 S    
C1    C18   1.476627 S    
C12   N12   1.495607 S    
Cu2   O6    1.954614 S    
N11   O21   1.297631 A    
C9    C12   1.664586 S    
N12   O24   1.298794 A    
