data_mof_unit_23463.cif
_audit_creation_date              2012-12-10T17:23:43-0500
_audit_creation_method            fapswitch 2.2
_symmetry_space_group_name_H-M    P1
_symmetry_Int_Tables_number       1
_space_group_crystal_system       triclinic
_cell_length_a                    9.585967
_cell_length_b                    10.811736
_cell_length_c                    17.357013
_cell_angle_alpha                 92.640561
_cell_angle_beta                  86.912375
_cell_angle_gamma                 89.597263
_cell_volume                      1794.29696377

loop_
_atom_site_label
_atom_site_type_symbol
_atom_type_description
_atom_site_fract_x
_atom_site_fract_y
_atom_site_fract_z
_atom_type_partial_charge
C1    C     C_R   0.499376 0.736627 0.492226 0.844840
C2    C     C_R   0.345605 0.454160 0.770179 -0.213848
C3    C     C_R   0.399579 0.434718 0.149544 -0.143211
C4    C     C_R   0.397309 0.455815 0.228944 -0.174770
C5    C     C_R   0.649288 0.478212 0.222447 -0.196207
C6    C     C_R   0.651338 0.458108 0.142532 -0.163441
C7    C     C_R   0.526321 0.438618 0.105527 0.187167
C8    C     C_2   0.424466 0.462582 0.979629 -0.214557
C9    C     C_2   0.531450 0.427740 0.020860 -0.224577
C10   C     C_R   0.521818 0.478798 0.266019 -0.025378
C11   C     C_R   0.236856 0.889176 0.464121 0.337127
C12   C     C_R   0.482845 0.498640 0.650037 0.783737
C13   C     C_R   0.112448 0.948136 0.491666 -0.244647
C14   C     C_R   0.116530 0.057549 0.537030 0.370366
C15   C     C_R   0.243909 0.115906 0.546766 -0.209121
C16   C     C_R   0.369558 0.062119 0.513903 -0.018055
C17   C     C_R   0.367369 0.938104 0.485730 0.011875
C18   C     C_R   0.495611 0.870402 0.482124 -0.083242
C19   C     C_R   0.622254 0.934188 0.482251 -0.192686
C20   C     C_R   0.622465 0.061932 0.490103 -0.164898
C21   C     C_R   0.497211 0.127375 0.506915 -0.073769
C22   C     C_R   0.867065 0.329048 0.401154 -0.132859
C23   C     C_R   0.499413 0.262442 0.504595 0.773727
C24   C     C_R   0.944746 0.244015 0.353956 -0.196385
C25   C     C_R   0.088516 0.244625 0.353627 -0.191634
C26   C     C_R   0.155345 0.330127 0.400599 -0.139376
C27   C     C_R   0.080270 0.415229 0.451947 0.237603
C28   C     C_R   0.930595 0.415051 0.452065 0.243283
C29   C     C_R   0.921248 0.584556 0.542737 -0.032762
C30   C     C_R   0.069270 0.584811 0.542431 -0.014206
C31   C     C_R   0.516984 0.495774 0.350200 0.791887
C32   C     C_R   0.473208 0.490950 0.734770 -0.077464
C33   C     C_R   0.586383 0.518540 0.781755 -0.021829
C34   C     C_R   0.568052 0.510983 0.861564 -0.178773
C35   C     C_R   0.441332 0.472280 0.895716 0.164755
C36   C     C_R   0.329294 0.445990 0.849885 -0.159190
Cu1   Cu    Cu3+1 0.359340 0.500010 0.500010 0.965656
Cu2   Cu    Cu3+1 0.640660 0.499990 0.499990 0.960704
H1    H     H_    0.750263 0.460408 0.109368 0.126457
H2    H     H_    0.721662 0.885439 0.476207 0.174196
H3    H     H_    0.012734 0.909916 0.476809 0.183739
H4    H     H_    0.243284 0.201782 0.581271 0.190798
H5    H     H_    0.721246 0.109210 0.484064 0.213354
H6    H     H_    0.861983 0.653506 0.578101 0.153279
H7    H     H_    0.758035 0.324556 0.393939 0.188838
H8    H     H_    0.892791 0.178881 0.316117 0.155167
H9    H     H_    0.297613 0.452796 0.261221 0.167494
H10   H     H_    0.149096 0.180038 0.315511 0.162276
H11   H     H_    0.265841 0.327000 0.392833 0.190821
H12   H     H_    0.120851 0.654738 0.576848 0.135517
H13   H     H_    0.746866 0.493739 0.249915 0.161626
H14   H     H_    0.630490 0.399844 0.991573 0.146681
H15   H     H_    0.230089 0.416880 0.875599 0.134369
H16   H     H_    0.301981 0.414852 0.123259 0.124738
H17   H     H_    0.258652 0.428974 0.735954 0.153807
H18   H     H_    0.324051 0.489572 0.007312 0.147946
H19   H     H_    0.654143 0.535659 0.897097 0.135923
N1    N     N_R   0.852190 0.498790 0.499250 -0.204103
N2    N     N_R   0.148060 0.498710 0.499220 -0.193997
O1    O     O_R   0.381190 0.680360 0.500010 -0.543408
O2    O     O_R   0.618760 0.680340 0.500000 -0.593889
O3    O     O_R   0.367440 0.500030 0.613600 -0.598754
O4    O     O_R   0.605010 0.500010 0.613590 -0.565549
O5    O     O_R   0.381240 0.319660 0.500000 -0.613312
O6    O     O_R   0.618810 0.319640 0.499990 -0.588609
O7    O     O_R   0.394990 0.499990 0.386410 -0.570530
O8    O     O_R   0.632560 0.499970 0.386400 -0.611463
C37   C     C_R   0.727805 0.550269 0.752134 0.109354
C38   C     C_R   0.776380 0.671699 0.762806 -0.157559
C39   C     C_R   0.918207 0.697062 0.749698 -0.144948
C40   C     C_R   0.012033 0.601274 0.726622 -0.165372
C41   C     C_R   0.963525 0.480625 0.714121 -0.136795
C42   C     C_R   0.821987 0.454967 0.727217 -0.073570
H20   H     H_    0.705316 0.745518 0.783853 0.135996
H21   H     H_    0.955765 0.790494 0.758744 0.150066
H22   H     H_    0.121943 0.621097 0.717313 0.144137
H23   H     H_    0.035151 0.406638 0.694541 0.154795
H24   H     H_    0.786397 0.360423 0.720298 0.154284
Cl1   Cl    Cl    0.224033 0.776101 0.388119 -0.620447
Cl2   Cl    Cl    0.961555 0.127737 0.576381 -0.699195

loop_
_geom_bond_atom_site_label_1
_geom_bond_atom_site_label_2
_ccdc_geom_bond_type
C8    C9    D    
C31   O7    A    
C16   C21   A    
C35   C36   A    
C8    H18   S    
C13   H3    S    
Cu1   O3    S    
C31   O8    A    
C1    C18   S    
C41   H23   S    
Cu1   Cu2   S    
C34   C35   A    
C3    C7    A    
C2    H17   S    
C5    C6    A    
C3    H16   S    
C15   C16   A    
C2    C32   A    
C18   C19   A    
C36   H15   S    
Cu2   N1    S    
C10   C31   S    
C19   C20   A    
C16   C17   A    
C34   H19   S    
C42   H24   S    
C39   C40   A    
C14   Cl2   S    
Cu2   O2    S    
C30   H12   S    
C22   C28   A    
C13   C14   A    
C12   C32   S    
C9    H14   S    
C33   C34   A    
C24   C25   A    
C26   H11   S    
C12   O4    A    
C37   C38   A    
C25   C26   A    
C8    C35   S    
C29   C30   A    
C12   O3    A    
Cu2   O6    S    
C30   N2    A    
C17   C18   A    
C26   C27   A    
C38   H20   S    
C20   C21   A    
C25   H10   S    
Cu1   N2    S    
C11   Cl1   S    
C23   O5    A    
C21   C23   S    
C29   H6    S    
C22   C24   A    
C1    O1    A    
C4    C10   A    
C3    C4    A    
C39   H21   S    
Cu1   O5    S    
C29   N1    A    
Cu2   O4    S    
C2    C36   A    
C7    C9    S    
C11   C17   A    
C6    H1    S    
C15   H4    S    
C41   C42   A    
C1    O2    A    
C6    C7    A    
C28   N1    A    
C24   H8    S    
C32   C33   A    
C23   O6    A    
C37   C42   A    
C5    C10   A    
C27   N2    A    
C11   C13   A    
C40   H22   S    
Cu1   O7    S    
C38   C39   A    
C20   H5    S    
Cu1   O1    S    
C19   H2    S    
C40   C41   A    
C22   H7    S    
Cu2   O8    S    
C27   C28   A    
C14   C15   A    
C5    H13   S    
C33   C37   S    
C4    H9    S    
