data_mof_unit_45094.cif
_audit_creation_date              2012-12-11T14:04:02-0500
_audit_creation_method            fapswitch 2.2
_symmetry_space_group_name_H-M    P1
_symmetry_Int_Tables_number       1
_space_group_crystal_system       triclinic
_cell_length_a                    19.185643
_cell_length_b                    10.961613
_cell_length_c                    19.004326
_cell_angle_alpha                 90.156152
_cell_angle_beta                  89.380998
_cell_angle_gamma                 89.846029
_cell_volume                      3996.45322774

loop_
_atom_site_label
_atom_site_type_symbol
_atom_type_description
_atom_site_fract_x
_atom_site_fract_y
_atom_site_fract_z
_atom_type_partial_charge
C1    C     C_R   0.239841 0.468570 0.646389 0.534131
C2    C     C_R   0.760581 0.469352 0.353996 0.539956
C3    C     C_R   0.739850 0.968553 0.646396 0.530907
C4    C     C_R   0.260765 0.969972 0.354218 0.539492
C5    C     C_2   0.280353 0.828661 0.534200 -0.152848
C6    C     C_2   0.726514 0.819335 0.467451 -0.146003
C7    C     C_2   0.779770 0.327364 0.533835 -0.152518
C8    C     C_2   0.226304 0.319637 0.467384 -0.145979
C9    C     C_R   0.995537 0.655351 0.425796 -0.015775
C10   C     C_R   0.034527 0.655827 0.565650 -0.025559
C11   C     C_R   0.496635 0.155798 0.425334 -0.015564
C12   C     C_R   0.535661 0.156151 0.565296 -0.023997
C13   C     C_R   0.033952 0.875343 0.422569 0.048394
C14   C     C_R   0.991030 0.876086 0.565372 0.060026
C15   C     C_R   0.533936 0.376889 0.421959 0.047031
C16   C     C_R   0.491505 0.375926 0.565005 0.062173
C17   C     C_R   0.026085 0.985380 0.459732 -0.136010
C18   C     C_R   0.999492 0.985534 0.528248 -0.136205
C19   C     C_R   0.525525 0.486417 0.459506 -0.137178
C20   C     C_R   0.499376 0.485685 0.528134 -0.136159
C21   C     C_R   0.014219 0.766274 0.531991 0.008952
C22   C     C_R   0.016497 0.765305 0.458149 0.004523
C23   C     C_R   0.515518 0.266692 0.531521 0.009659
C24   C     C_R   0.517796 0.265948 0.457537 0.003389
C25   C     C_R   0.032892 0.544922 0.526898 -0.002389
C26   C     C_R   0.995244 0.545047 0.465789 0.010024
C27   C     C_R   0.534052 0.045356 0.526525 -0.002517
C28   C     C_R   0.496336 0.045577 0.465464 0.010045
C29   C     C_R   0.059998 0.431789 0.549720 -0.076610
C30   C     C_R   0.960173 0.434646 0.448637 -0.071503
C31   C     C_R   0.560630 0.932049 0.549631 -0.076510
C32   C     C_R   0.460594 0.935559 0.448836 -0.070772
C33   C     C_R   0.035429 0.321833 0.523610 -0.125835
C34   C     C_R   0.981253 0.323517 0.476362 -0.131659
C35   C     C_R   0.535491 0.822231 0.523897 -0.125646
C36   C     C_R   0.481198 0.824346 0.476805 -0.130924
C37   C     C_2   0.244675 0.915009 0.922019 0.011474
C38   C     C_2   0.756749 0.910394 0.076188 0.033733
C39   C     C_2   0.752676 0.432313 0.914582 0.023521
C40   C     C_2   0.240627 0.431143 0.086204 0.020422
C41   C     C_2   0.251097 0.900461 0.084418 -0.124758
C42   C     C_2   0.752004 0.893593 0.912646 -0.121253
C43   C     C_2   0.754576 0.426781 0.077151 -0.127342
C44   C     C_2   0.244344 0.436671 0.925471 -0.130542
C45   C     C_R   0.226904 0.873116 0.647396 0.546481
C46   C     C_R   0.773364 0.872390 0.352917 0.549835
C47   C     C_R   0.726790 0.372838 0.647236 0.545016
C48   C     C_R   0.273338 0.372452 0.352891 0.547390
C49   C     C_2   0.198560 0.932491 0.043338 -0.129522
C50   C     C_2   0.803479 0.926943 0.954882 -0.184058
C51   C     C_2   0.721183 0.500763 0.032806 -0.170248
C52   C     C_2   0.268969 0.521480 0.970283 -0.160266
C53   C     C_2   0.195666 0.890865 0.971371 -0.117646
C54   C     C_2   0.806365 0.885379 0.027167 -0.145620
C55   C     C_2   0.704329 0.460481 0.963310 -0.142257
C56   C     C_2   0.282887 0.496416 0.044090 -0.145272
C57   C     C_2   0.032943 0.665727 0.930543 0.275611
C58   C     C_2   0.015233 0.652806 0.088746 0.334627
C59   C     C_2   0.494799 0.161821 0.919091 0.302902
C60   C     C_2   0.505089 0.160447 0.081098 0.310487
C61   C     C_2   0.992402 0.577875 0.037943 -0.100034
C62   C     C_2   0.025114 0.566669 0.969913 -0.119948
C63   C     C_2   0.489081 0.070048 0.036314 -0.105810
C64   C     C_2   0.509130 0.069804 0.963190 -0.109061
C65   C     C_R   0.057846 0.651056 0.637992 0.552463
C66   C     C_R   0.966533 0.653392 0.356005 0.545861
C67   C     C_R   0.558227 0.151070 0.637995 0.549449
C68   C     C_R   0.466766 0.153498 0.355909 0.546759
C69   C     C_R   0.237431 0.470905 0.852357 0.535368
C70   C     C_R   0.762422 0.469008 0.148404 0.540529
C71   C     C_R   0.738966 0.963658 0.849400 0.554042
C72   C     C_R   0.261727 0.965184 0.149799 0.537089
C73   C     C_R   0.227430 0.875097 0.851786 0.545411
C74   C     C_R   0.773230 0.873130 0.147249 0.551139
C75   C     C_R   0.727633 0.375427 0.851237 0.561253
C76   C     C_R   0.271418 0.375283 0.148549 0.568647
C77   C     C_R   0.057373 0.649852 0.858553 0.554697
C78   C     C_R   0.972542 0.651368 0.151680 0.520563
C79   C     C_R   0.528226 0.152904 0.849937 0.537519
C80   C     C_R   0.471690 0.152424 0.150134 0.532433
C81   C     C_2   0.248179 0.910352 0.576973 -0.102452
C82   C     C_2   0.753169 0.905987 0.424346 -0.099636
C83   C     C_2   0.747718 0.409361 0.576522 -0.101888
C84   C     C_2   0.253089 0.406173 0.424286 -0.099646
C85   C     C_2   0.245199 0.919669 0.423324 -0.126298
C86   C     C_2   0.757000 0.917687 0.577581 -0.127984
C87   C     C_2   0.744474 0.417432 0.422662 -0.126403
C88   C     C_2   0.256928 0.417796 0.577539 -0.128537
C89   C     C_2   0.289067 0.848216 0.458238 -0.182126
C90   C     C_2   0.717932 0.837134 0.543726 -0.185312
C91   C     C_2   0.788531 0.346643 0.457811 -0.180875
C92   C     C_2   0.217747 0.337446 0.543660 -0.185584
Cr1   Cr    Cr6+3 0.113970 0.508630 0.747920 0.994287
Cr2   Cr    Cr6+3 0.886030 0.508630 0.252080 0.995413
Cr3   Cr    Cr6+3 0.613970 0.008630 0.747920 0.997554
Cr4   Cr    Cr6+3 0.386030 0.008630 0.252080 1.000174
Cr5   Cr    Cr6+3 0.269200 0.666740 0.749850 0.993846
Cr6   Cr    Cr6+3 0.730800 0.666740 0.250150 0.996406
Cr7   Cr    Cr6+3 0.769200 0.166740 0.749850 1.000139
Cr8   Cr    Cr6+3 0.230800 0.166740 0.250150 0.987945
Cr9   Cr    Cr6+3 0.112300 0.820070 0.749800 0.994735
Cr10  Cr    Cr6+3 0.887700 0.820070 0.250200 1.003735
Cr11  Cr    Cr6+3 0.612300 0.320070 0.749800 1.001762
Cr12  Cr    Cr6+3 0.387700 0.320070 0.250200 1.004685
H1    H     H_    0.331041 0.801319 0.430748 0.127276
H2    H     H_    0.679415 0.783485 0.571936 0.126422
H3    H     H_    0.830923 0.300536 0.430552 0.127480
H4    H     H_    0.179210 0.283862 0.571878 0.126400
H5    H     H_    0.147801 0.846179 0.956684 0.207701
H6    H     H_    0.854921 0.841932 0.042490 0.139268
H7    H     H_    0.649066 0.447520 0.953652 0.168334
H8    H     H_    0.333558 0.526128 0.062389 0.148745
H9    H     H_    0.289998 0.834705 0.066591 0.102210
H10   H     H_    0.714524 0.824904 0.929149 0.105928
H11   H     H_    0.778089 0.341450 0.059980 0.095382
H12   H     H_    0.227218 0.347626 0.942651 0.089218
H13   H     H_    0.945958 0.522386 0.045528 0.087334
H14   H     H_    0.030326 0.475497 0.947830 0.091420
H15   H     H_    0.461405 0.988832 0.053533 0.096233
H16   H     H_    0.535103 0.986859 0.945396 0.098001
H17   H     H_    0.299607 0.742657 0.554744 0.153115
H18   H     H_    0.711379 0.730909 0.446720 0.154480
H19   H     H_    0.799171 0.241603 0.554566 0.153158
H20   H     H_    0.211078 0.231257 0.446658 0.154525
H21   H     H_    0.197978 0.953071 0.449007 0.118734
H22   H     H_    0.801718 0.957889 0.550994 0.115187
H23   H     H_    0.696945 0.449921 0.448162 0.119205
H24   H     H_    0.301650 0.457956 0.550941 0.114903
H25   H     H_    0.229269 0.997255 0.557560 0.096382
H26   H     H_    0.768203 0.995321 0.443543 0.092807
H27   H     H_    0.728653 0.495989 0.556849 0.096639
H28   H     H_    0.268204 0.495466 0.443481 0.092428
H29   H     H_    0.037230 0.071557 0.434369 0.103588
H30   H     H_    0.984036 0.071055 0.552259 0.098532
H31   H     H_    0.535589 0.573053 0.434209 0.103915
H32   H     H_    0.483417 0.570827 0.552289 0.098273
H33   H     H_    0.915816 0.432032 0.415151 0.169164
H34   H     H_    0.097922 0.426467 0.589513 0.170867
H35   H     H_    0.415927 0.933381 0.415749 0.168762
H36   H     H_    0.598357 0.926539 0.589554 0.171559
H37   H     H_    0.055659 0.236713 0.543446 0.098891
H38   H     H_    0.956271 0.239718 0.460362 0.098128
H39   H     H_    0.555236 0.736982 0.544052 0.099093
H40   H     H_    0.455643 0.740837 0.461244 0.097543
H41   H     H_    0.157341 0.993424 0.061477 0.160578
H42   H     H_    0.841930 0.993945 0.938615 0.145372
H43   H     H_    0.697878 0.586468 0.049993 0.160198
H44   H     H_    0.286409 0.609698 0.950996 0.159350
O1    O     O_R   0.043230 0.549300 0.667990 -0.527025
O2    O     O_R   0.956770 0.549300 0.332010 -0.542516
O3    O     O_R   0.543230 0.049300 0.667990 -0.533200
O4    O     O_R   0.456770 0.049300 0.332010 -0.540593
O5    O     O_R   0.262920 0.788600 0.824420 -0.505356
O6    O     O_R   0.737080 0.788600 0.175580 -0.506075
O7    O     O_R   0.762920 0.288600 0.824420 -0.503956
O8    O     O_R   0.237080 0.288600 0.175580 -0.503703
O9    O     O_R   0.167530 0.905110 0.830340 -0.525411
O10   O     O_R   0.832470 0.905110 0.169660 -0.517357
O11   O     O_R   0.667530 0.405110 0.830340 -0.521707
O12   O     O_R   0.332470 0.405110 0.169660 -0.521040
O13   O     O_R   0.054010 0.748440 0.822860 -0.504736
O14   O     O_R   0.945990 0.748440 0.177140 -0.510527
O15   O     O_R   0.554010 0.248440 0.822860 -0.497257
O16   O     O_R   0.445990 0.248440 0.177140 -0.499272
O17   O     O_3   0.165160 0.665150 0.749190 -0.275717
O18   O     O_3   0.834840 0.665150 0.250810 -0.246014
O19   O     O_3   0.665160 0.165150 0.749190 -0.258618
O20   O     O_3   0.334840 0.165150 0.250810 -0.243151
O21   O     O_R   0.178620 0.457600 0.674100 -0.524735
O22   O     O_R   0.821380 0.457600 0.325900 -0.508655
O23   O     O_R   0.678620 0.957600 0.674100 -0.527138
O24   O     O_R   0.321380 0.957600 0.325900 -0.509619
O25   O     O_R   0.284680 0.542100 0.669460 -0.531402
O26   O     O_R   0.715320 0.542100 0.330540 -0.539678
O27   O     O_R   0.784680 0.042100 0.669460 -0.533563
O28   O     O_R   0.215320 0.042100 0.330540 -0.540990
O29   O     O_R   0.262860 0.790390 0.676650 -0.496959
O30   O     O_R   0.737140 0.790390 0.323350 -0.497901
O31   O     O_R   0.762860 0.290390 0.676650 -0.499285
O32   O     O_R   0.237140 0.290390 0.323350 -0.501730
O33   O     O_R   0.167460 0.907030 0.670940 -0.520477
O34   O     O_R   0.832540 0.907030 0.329060 -0.513911
O35   O     O_R   0.667460 0.407030 0.670940 -0.521754
O36   O     O_R   0.332540 0.407030 0.329060 -0.516256
O37   O     O_R   0.053950 0.750220 0.675100 -0.503963
O38   O     O_R   0.946050 0.750220 0.324900 -0.505343
O39   O     O_R   0.553950 0.250220 0.675100 -0.511377
O40   O     O_R   0.446050 0.250220 0.324900 -0.506358
O41   O     O_R   0.043300 0.547370 0.827390 -0.539996
O42   O     O_R   0.956700 0.547370 0.172610 -0.553481
O43   O     O_R   0.543300 0.047370 0.827390 -0.544474
O44   O     O_R   0.456700 0.047370 0.172610 -0.549171
O45   O     O_R   0.178690 0.455820 0.821860 -0.506792
O46   O     O_R   0.821310 0.455820 0.178140 -0.495223
O47   O     O_R   0.678690 0.955820 0.821860 -0.498246
O48   O     O_R   0.321310 0.955820 0.178140 -0.498244
O49   O     O_R   0.284750 0.540170 0.828860 -0.524462
O50   O     O_R   0.715250 0.540170 0.171140 -0.529865
O51   O     O_R   0.784750 0.040170 0.828860 -0.519003
O52   O     O_R   0.215250 0.040170 0.171140 -0.527761
C93   C     C_3   0.312104 0.982719 0.934816 -0.277075
C94   C     C_3   0.298658 0.117375 0.950548 -0.432955
H45   H     H_    0.282085 0.164267 0.901780 0.137705
H46   H     H_    0.258109 0.130534 0.991844 0.159885
H47   H     H_    0.346979 0.159883 0.969948 0.191025
H48   H     H_    0.341781 0.940320 0.978055 0.138090
H49   H     H_    0.346219 0.976877 0.887235 0.140792
C95   C     C_3   0.688867 0.976437 0.062046 -0.275655
C96   C     C_3   0.701086 0.111422 0.046858 -0.429490
H50   H     H_    0.716202 0.158956 0.096023 0.136788
H51   H     H_    0.742278 0.125444 0.006376 0.165927
H52   H     H_    0.652639 0.152692 0.026662 0.190792
H53   H     H_    0.660649 0.933089 0.018051 0.140132
H54   H     H_    0.653799 0.969921 0.108856 0.137389
C97   C     C_3   0.829653 0.459101 0.921676 -0.273425
C98   C     C_3   0.842402 0.595873 0.917264 -0.434667
H55   H     H_    0.898640 0.611446 0.909563 0.145001
H56   H     H_    0.814788 0.635981 0.871681 0.154963
H57   H     H_    0.824998 0.641930 0.966462 0.162622
H58   H     H_    0.850735 0.422147 0.971341 0.138008
H59   H     H_    0.859589 0.414853 0.878138 0.156935
C99   C     C_3   0.165922 0.397784 0.065853 -0.263713
C100  C     C_3   0.113407 0.404186 0.127070 -0.391789
H60   H     H_    0.116768 0.323264 0.161630 0.165910
H61   H     H_    0.121297 0.487769 0.158728 0.158978
H62   H     H_    0.059811 0.403134 0.106148 0.139483
H63   H     H_    0.146620 0.460825 0.024852 0.172535
H64   H     H_    0.165324 0.303457 0.044345 0.130402
O53   O     O_3   0.079935 0.710487 0.083059 -0.543397
C101  C     C_3   0.104564 0.751389 0.148888 -0.106940
H65   H     H_    0.161716 0.760104 0.145730 0.138583
H66   H     H_    0.095443 0.685209 0.192119 0.079651
H67   H     H_    0.081453 0.841622 0.162317 0.139255
O54   O     O_3   0.027504 0.780958 0.961746 -0.553191
C102  C     C_3   0.978695 0.857112 0.928349 -0.103890
H68   H     H_    0.936755 0.806937 0.900786 0.105986
H69   H     H_    0.005837 0.919619 0.891356 0.151126
H70   H     H_    0.954015 0.915463 0.969262 0.124969
O55   O     O_3   0.541344 0.262943 0.057377 -0.541908
C103  C     C_3   0.573879 0.326267 0.112761 -0.113087
H71   H     H_    0.614346 0.385326 0.089746 0.149967
H72   H     H_    0.599996 0.263847 0.150465 0.081591
H73   H     H_    0.536511 0.388194 0.140013 0.149319
O56   O     O_3   0.460829 0.266499 0.943919 -0.538397
C104  C     C_3   0.426415 0.330103 0.889897 -0.108515
H74   H     H_    0.399347 0.267936 0.852693 0.083746
H75   H     H_    0.463027 0.391432 0.861606 0.148711
H76   H     H_    0.386274 0.389331 0.914571 0.154544
C105  C     C_3   0.070887 0.879942 0.351204 -0.260371
C106  C     C_3   0.122398 0.774683 0.338337 -0.431978
H77   H     H_    0.150584 0.751128 0.387130 0.158384
H78   H     H_    0.160874 0.800971 0.297093 0.136614
H79   H     H_    0.095518 0.692002 0.319355 0.142497
H80   H     H_    0.034231 0.888423 0.307000 0.162362
H81   H     H_    0.100807 0.965698 0.348428 0.158938
C107  C     C_3   0.941095 0.880443 0.628561 -0.243099
C108  C     C_3   0.893673 0.768643 0.635617 -0.412214
H82   H     H_    0.870395 0.745131 0.584077 0.153335
H83   H     H_    0.922073 0.688494 0.655905 0.185134
H84   H     H_    0.851022 0.788805 0.673867 0.140040
H85   H     H_    0.968535 0.899711 0.678332 0.170411
H86   H     H_    0.905740 0.959937 0.622387 0.139680
C109  C     C_3   0.568386 0.384743 0.349346 -0.257708
C110  C     C_3   0.618683 0.279721 0.331619 -0.425286
H87   H     H_    0.647695 0.250176 0.378842 0.155083
H88   H     H_    0.656647 0.309763 0.290738 0.142614
H89   H     H_    0.590833 0.200415 0.309494 0.148909
H90   H     H_    0.529964 0.397666 0.307003 0.160738
H91   H     H_    0.599070 0.469826 0.347335 0.157527
C111  C     C_3   0.441072 0.379144 0.627861 -0.243833
C112  C     C_3   0.393782 0.267036 0.634015 -0.417483
H92   H     H_    0.370830 0.244320 0.582204 0.155626
H93   H     H_    0.422168 0.186671 0.654035 0.180780
H94   H     H_    0.350891 0.286399 0.672130 0.137200
H95   H     H_    0.467988 0.398030 0.677969 0.166140
H96   H     H_    0.405594 0.458500 0.621808 0.139987

loop_
_geom_bond_atom_site_label_1
_geom_bond_atom_site_label_2
_ccdc_geom_bond_type
C47   C83   S    
C112  H94   S    
C7    C83   D    
Cr6   O6    S    
C104  H75   S    
Cr11  O19   S    
C95   H53   S    
C6    C82   D    
C87   C91   D    
C86   H22   S    
Cr5   O49   S    
C102  H69   S    
C93   C94   S    
C14   C18   A    
Cr1   O1    S    
C35   C36   A    
C78   O42   A    
C98   H57   S    
C97   C98   S    
C57   C77   S    
C3    O23   A    
Cr2   O18   S    
C87   H23   S    
C57   O54   S    
C100  H62   S    
C45   O33   A    
C109  C110  S    
C109  H91   S    
C15   C19   A    
C29   H34   S    
C12   C23   A    
Cr1   O21   S    
C59   C64   D    
C50   C54   S    
C94   H46   S    
C60   C63   D    
Cr11  O35   S    
C32   C36   A    
C14   C21   A    
C8    H20   S    
C98   H56   S    
C66   O2    A    
C107  H86   S    
C110  H89   S    
Cr6   O26   S    
C49   C53   S    
C9    C22   A    
Cr12  O20   S    
C105  C106  S    
C106  H78   S    
C112  H92   S    
Cr4   O4    S    
C33   H37   S    
C5    H17   S    
C11   C24   A    
C88   H24   S    
C96   H52   S    
C63   H15   S    
O56   C104  S    
C74   O6    A    
C101  H67   S    
C108  H82   S    
C46   O30   A    
C9    C66   S    
C80   O16   A    
C47   O31   A    
C43   H11   S    
C43   C51   D    
C46   C82   S    
Cr5   O29   S    
C92   H4    S    
C39   C55   D    
O55   C103  S    
C29   C33   A    
C42   C71   S    
C110  H87   S    
C40   C56   D    
C94   H47   S    
Cr7   O7    S    
Cr8   O28   S    
Cr3   O47   S    
C102  H68   S    
Cr4   O20   S    
C8    C92   S    
C39   C75   S    
C82   H26   S    
C4    O24   A    
C104  H76   S    
C2    O26   A    
Cr10  O14   S    
C71   O47   A    
C37   C53   D    
C70   O46   A    
C44   C52   D    
C58   C61   D    
Cr1   O17   S    
C105  H80   S    
C52   H44   S    
C30   H33   S    
C79   O43   A    
C21   C22   A    
C3    C86   S    
C69   O49   A    
C103  H72   S    
C80   O44   A    
Cr10  O10   S    
C61   C62   S    
Cr12  O12   S    
Cr9   O37   S    
C97   H59   S    
C1    O25   A    
C41   C49   D    
C67   O39   A    
C9    C26   A    
C17   C18   A    
Cr7   O19   S    
C71   O51   A    
C10   C21   A    
C25   C29   A    
C109  H90   S    
Cr12  O40   S    
C12   C67   S    
C65   O37   A    
C37   C93   S    
Cr5   O25   S    
C94   H45   S    
Cr6   O50   S    
C12   C27   A    
C61   H13   S    
Cr10  O34   S    
C34   H38   S    
C111  H96   S    
C28   C32   A    
Cr11  O39   S    
C98   H55   S    
C90   H2    S    
C100  H60   S    
C47   O35   A    
C86   C90   D    
Cr2   O46   S    
C59   C79   S    
C48   O36   A    
C104  H74   S    
C30   C34   A    
C95   C96   S    
C4    C85   S    
C57   C62   D    
C25   C26   A    
C6    C90   S    
C27   C31   A    
Cr5   O5    S    
C76   O8    A    
C103  H73   S    
C48   C84   S    
C40   C99   S    
C59   O56   S    
C108  H83   S    
C54   H6    S    
C101  H66   S    
C42   H10   S    
Cr2   O42   S    
Cr7   O31   S    
O53   C101  S    
C68   O4    A    
C91   H3    S    
C72   O52   A    
C106  H79   S    
C5    C81   D    
C81   H25   S    
C96   H50   S    
C38   C54   D    
C110  H88   S    
C51   H43   S    
C16   C20   A    
C7    C91   S    
C107  C108  S    
C69   O45   A    
C33   C34   A    
C93   H49   S    
C49   H41   S    
C2    C87   S    
C60   O55   S    
C88   C92   D    
C20   H32   S    
C74   O10   A    
Cr9   O17   S    
C44   H12   S    
Cr6   O18   S    
C38   C95   S    
C32   H35   S    
C41   C72   S    
Cr8   O52   S    
C10   C25   A    
C3    O27   A    
C15   C24   A    
Cr12  O36   S    
C42   C50   D    
C78   O14   A    
C43   C70   S    
C85   C89   D    
C66   O38   A    
C17   H29   S    
C102  H70   S    
C31   C35   A    
C79   O15   A    
Cr3   O3    S    
O54   C102  S    
C6    H18   S    
C89   H1    S    
Cr8   O32   S    
C48   O32   A    
Cr9   O33   S    
C11   C68   S    
C73   O5    A    
Cr6   O30   S    
C38   C74   S    
C10   C65   S    
C75   O11   A    
C112  H93   S    
C37   C73   S    
C60   C80   S    
C95   H54   S    
Cr3   O43   S    
Cr10  O38   S    
C55   H7    S    
C85   H21   S    
C8    C84   D    
C99   H63   S    
C111  H95   S    
C45   C81   S    
C7    H19   S    
Cr3   O19   S    
Cr4   O24   S    
C72   O48   A    
C16   C111  S    
Cr10  O18   S    
C100  H61   S    
C105  H81   S    
Cr4   O44   S    
C19   H31   S    
C73   O9    A    
Cr1   O41   S    
C16   C23   A    
C13   C105  S    
C50   H42   S    
Cr11  O15   S    
C64   H16   S    
C13   C17   A    
Cr8   O20   S    
C108  H84   S    
C39   C97   S    
C46   O34   A    
C19   C20   A    
Cr9   O13   S    
C83   H27   S    
C106  H77   S    
C41   H9    S    
C77   O41   A    
C2    O22   A    
C58   O53   S    
C97   H58   S    
Cr2   O22   S    
C45   O29   A    
Cr11  O11   S    
Cr12  O16   S    
C76   O12   A    
C11   C28   A    
C1    C88   S    
C67   O3    A    
Cr5   O17   S    
C1    O21   A    
C103  H71   S    
C96   H51   S    
C77   O13   A    
C84   H28   S    
C13   C22   A    
C18   H30   S    
C93   H48   S    
C51   C55   S    
C36   H40   S    
C101  H65   S    
C62   H14   S    
Cr7   O27   S    
C15   C109  S    
C58   C78   S    
C23   C24   A    
Cr9   O9    S    
C63   C64   S    
C75   O7    A    
Cr2   O2    S    
Cr4   O48   S    
C14   C107  S    
C68   O40   A    
C70   O50   A    
C99   H64   S    
C4    O28   A    
C40   C76   S    
Cr7   O51   S    
C27   C28   A    
C65   O1    A    
C44   C69   S    
C111  C112  S    
C53   H5    S    
Cr1   O45   S    
C31   H36   S    
C107  H85   S    
Cr8   O8    S    
Cr3   O23   S    
C99   C100  S    
C56   H8    S    
C5    C89   S    
C52   C56   S    
C35   H39   S    
C26   C30   A    
