data_mof_unit_20868.cif
_audit_creation_date              2012-10-26T18:31:51-0400
_audit_creation_method            fapswitch 2.2
_symmetry_space_group_name_H-M    P1
_symmetry_Int_Tables_number       1
_space_group_crystal_system       triclinic
_cell_length_a                    12.434175
_cell_length_b                    13.206746
_cell_length_c                    14.458696
_cell_angle_alpha                 94.575997
_cell_angle_beta                  109.256716
_cell_angle_gamma                 116.747584
_cell_volume                      1926.91165571

loop_
_atom_site_label
_atom_site_type_symbol
_atom_type_description
_atom_site_fract_x
_atom_site_fract_y
_atom_site_fract_z
_atom_type_partial_charge
C1    C     C_R   0.649372 0.714620 0.507205 0.551851
C2    C     C_R   0.129967 0.383834 0.992912 -0.090889
C3    C     C_R   0.088657 0.411401 0.066915 -0.019074
C4    C     C_R   0.620416 0.518130 0.687340 0.568710
C5    C     C_R   0.243902 0.373362 0.023723 0.011386
C6    C     C_R   0.322722 0.401666 0.127495 0.387405
C7    C     C_R   0.173461 0.445837 0.170647 -0.156750
C8    C     C_R   0.160586 0.953999 0.395245 -0.113696
C9    C     C_R   0.255727 0.160289 0.473230 0.010236
C10   C     C_R   0.719555 0.931208 0.552568 -0.024140
C11   C     C_R   0.814396 0.048417 0.571619 0.378851
C12   C     C_R   0.820209 0.460666 0.912800 0.009983
C13   C     C_R   0.922724 0.077044 0.549032 -0.054817
C14   C     C_R   0.935975 0.989345 0.499408 -0.020730
C15   C     C_R   0.833236 0.870364 0.470844 -0.006103
C16   C     C_R   0.347140 0.284975 0.487146 0.547711
C17   C     C_R   0.046291 0.016658 0.474731 0.036085
C18   C     C_R   0.049915 0.926111 0.417805 0.037227
C19   C     C_R   0.940911 0.810994 0.381443 -0.016884
C20   C     C_R   0.832449 0.786037 0.403651 -0.085364
C21   C     C_R   0.153099 0.132224 0.504339 -0.082947
C22   C     C_R   0.261993 0.070245 0.422073 -0.110082
C23   C     C_R   0.759567 0.461750 0.980036 0.002540
C24   C     C_R   0.731979 0.839436 0.507704 -0.072725
C25   C     C_R   0.265123 0.697944 0.657649 -0.146454
C26   C     C_R   0.651112 0.329494 0.371277 0.072710
C27   C     C_R   0.724731 0.278946 0.360784 -0.109575
C28   C     C_R   0.375488 0.475957 0.312198 0.558871
C29   C     C_R   0.860084 0.337920 0.417082 0.446267
C30   C     C_R   0.926916 0.455059 0.476530 -0.023053
C31   C     C_R   0.846920 0.498431 0.496149 0.121661
C32   C     C_R   0.069216 0.526022 0.525067 0.006121
C33   C     C_R   0.128329 0.632123 0.600587 -0.085733
C34   C     C_R   0.915519 0.424395 0.936122 0.020342
C35   C     C_R   0.051113 0.671590 0.620987 -0.081167
C36   C     C_R   0.914866 0.605596 0.573901 0.416298
C37   C     C_R   0.157721 0.500630 0.500372 0.584017
C38   C     C_R   0.344547 0.660986 0.637010 0.013395
C39   C     C_R   0.679753 0.516064 0.793990 -0.037732
C40   C     C_R   0.291405 0.443241 0.201866 -0.001680
C41   C     C_R   0.664815 0.497872 0.955852 -0.007545
C42   C     C_R   0.618042 0.515152 0.859764 -0.149328
C43   C     C_R   0.794528 0.508324 0.830018 0.044984
C44   C     C_1   0.282188 0.333854 0.950254 0.261640
C45   C     C_R   0.968873 0.413914 0.035077 -0.018694
C46   C     C_1   0.936446 0.715919 0.320137 0.186377
C47   C     C_1   0.609746 0.910310 0.578098 0.303049
C48   C     C_1   0.511157 0.263606 0.309951 0.312750
C49   C     C_1   0.623395 0.528345 0.030593 0.237572
C50   C     C_1   0.908197 0.591103 0.815360 0.322951
C51   C     C_1   0.903199 0.334073 0.169457 0.213805
C52   C     C_R   0.896617 0.400636 0.095610 -0.020675
C53   C     C_R   0.794660 0.426207 0.068779 -0.096951
C54   C     C_R   0.954175 0.392272 0.862236 0.398604
C55   C     C_R   0.056959 0.368630 0.890154 -0.065229
Cu1   Cu    Cu3+1 0.416420 0.526630 0.522910 1.049789
Cu2   Cu    Cu3+1 0.583580 0.473370 0.477090 1.101367
F1    F     F_    0.803737 0.136809 0.614873 -0.574649
F2    F     F_    0.115841 0.418594 0.414991 -0.559484
F3    F     F_    0.920384 0.273618 0.422240 -0.577164
F4    F     F_    0.857616 0.645527 0.618353 -0.606803
F5    F     F_    0.430235 0.388650 0.155158 -0.607913
F6    F     F_    0.887029 0.375368 0.761526 -0.584745
H1    H     H_    0.740378 0.415056 0.116093 0.157584
H2    H     H_    0.310171 0.777025 0.718216 0.135608
H3    H     H_    0.676086 0.190677 0.311923 0.138599
H4    H     H_    0.082548 0.343696 0.830910 0.165982
H5    H     H_    0.536731 0.532060 0.837996 0.147445
H6    H     H_    0.342674 0.089734 0.399800 0.152336
H7    H     H_    0.167296 0.886872 0.353479 0.139919
H8    H     H_    0.158594 0.203632 0.550607 0.143740
H9    H     H_    0.991433 0.169856 0.568435 0.183542
H10   H     H_    0.745520 0.700093 0.364270 0.162993
H11   H     H_    0.450210 0.709885 0.681518 0.150020
H12   H     H_    0.150442 0.479361 0.227688 0.183475
H13   H     H_    0.097171 0.753485 0.678724 0.168615
N1    N     N_R   0.290690 0.566960 0.557640 -0.240966
N2    N     N_R   0.709100 0.433710 0.442970 -0.248452
N3    N     N_1   0.312532 0.302076 0.891409 -0.287937
N4    N     N_1   0.933183 0.639789 0.271524 -0.309499
N5    N     N_1   0.522124 0.895589 0.598288 -0.284386
N6    N     N_1   0.398702 0.209358 0.259907 -0.252207
N7    N     N_1   0.592577 0.555800 0.091007 -0.225504
N8    N     N_1   0.003224 0.659238 0.809462 -0.256770
N9    N     N_1   0.907168 0.277902 0.226426 -0.151138
O1    O     O_R   0.545970 0.684450 0.528810 -0.514143
O2    O     O_R   0.687130 0.639470 0.490120 -0.442166
O3    O     O_R   0.519670 0.535100 0.660030 -0.532707
O4    O     O_R   0.660830 0.490120 0.621340 -0.400280
O5    O     O_R   0.312870 0.360530 0.509880 -0.455263
O6    O     O_R   0.454030 0.315550 0.471190 -0.514299
O7    O     O_R   0.339170 0.509880 0.378660 -0.469504
O8    O     O_R   0.480330 0.464900 0.339970 -0.450416

loop_
_geom_bond_atom_site_label_1
_geom_bond_atom_site_label_2
_ccdc_geom_bond_type
C1    O2    A    
C30   C32   A    
C16   O5    A    
C27   C29   A    
C41   C42   A    
C19   C20   A    
C9    C21   A    
C51   N9    T    
C19   C46   S    
C50   N8    T    
C12   C23   A    
C26   C27   A    
C26   N2    A    
Cu2   O4    S    
C21   H8    S    
C9    C16   S    
C12   C43   A    
C3    C7    A    
C2    C55   A    
C30   C31   A    
C53   H1    S    
C9    C22   A    
Cu1   O3    S    
C54   F6    S    
C28   C40   S    
Cu1   Cu2   S    
C18   C19   A    
C35   C36   A    
C8    C22   A    
C7    C40   A    
C4    C39   S    
C11   F1    S    
C22   H6    S    
C26   C48   S    
Cu1   O5    S    
Cu2   O8    S    
C13   C14   A    
C42   H5    S    
C14   C17   A    
C41   C49   S    
C23   C53   A    
C39   C42   A    
C15   C20   A    
C35   H13   S    
C51   C52   S    
C25   H2    S    
C39   C43   A    
C45   C52   A    
C10   C24   A    
C37   N1    A    
C3    C45   A    
C8    C18   A    
Cu1   N1    S    
Cu2   O2    S    
C28   O8    A    
C29   C30   A    
C25   C38   A    
Cu1   O1    S    
C29   F3    S    
C17   C18   A    
C28   O7    A    
C34   C45   A    
C32   C37   A    
C37   F2    S    
C16   O6    A    
C15   C24   A    
C13   H9    S    
C5    C44   S    
C34   C54   A    
C6    C40   A    
C2    C5    A    
C12   C34   A    
C36   F4    S    
C52   C53   A    
C31   N2    A    
C4    O4    A    
C38   H11   S    
C1    O1    A    
C54   C55   A    
Cu2   O6    S    
C31   C36   A    
Cu2   N2    S    
C44   N3    T    
C7    H12   S    
C43   C50   S    
C4    O3    A    
C38   N1    A    
C8    H7    S    
C23   C41   A    
C32   C33   A    
C49   N7    T    
C2    C3    A    
C55   H4    S    
C27   H3    S    
C46   N4    T    
C11   C13   A    
C6    F5    S    
C5    C6    A    
C33   C35   A    
C48   N6    T    
C20   H10   S    
C47   N5    T    
C17   C21   A    
C10   C11   A    
Cu1   O7    S    
C1    C24   S    
C10   C47   S    
C14   C15   A    
C25   C33   A    
