data_mof_unit_44526.cif
_audit_creation_date              2012-12-10T19:32:19-0500
_audit_creation_method            fapswitch 2.2
_symmetry_space_group_name_H-M    P1
_symmetry_Int_Tables_number       1
_space_group_crystal_system       triclinic
_cell_length_a                    23.161216
_cell_length_b                    15.744123
_cell_length_c                    14.949727
_cell_angle_alpha                 89.733843
_cell_angle_beta                  89.951831
_cell_angle_gamma                 88.495711
_cell_volume                      5449.5243164

loop_
_atom_site_label
_atom_site_type_symbol
_atom_type_description
_atom_site_fract_x
_atom_site_fract_y
_atom_site_fract_z
_atom_type_partial_charge
C1    C     C_R   0.500452 0.337631 0.500306 0.934972
C2    C     C_R   0.499848 0.662424 0.499916 0.939013
C3    C     C_R   0.242131 0.562854 0.582446 -0.163504
C4    C     C_R   0.759619 0.445510 0.586451 -0.190894
C5    C     C_R   0.300481 0.564907 0.564388 -0.065288
C6    C     C_R   0.700714 0.443331 0.573089 -0.082586
C7    C     C_R   0.325431 0.506933 0.503014 -0.266177
C8    C     C_R   0.675015 0.492272 0.503253 -0.256066
C9    C     C_R   0.289627 0.455229 0.449893 0.196585
C10   C     C_R   0.710604 0.536350 0.441586 0.296086
C11   C     C_R   0.228710 0.466009 0.458036 0.388782
C12   C     C_R   0.771564 0.524788 0.447962 0.262237
C13   C     C_R   0.206195 0.513332 0.531071 0.110001
C14   C     C_R   0.794979 0.485735 0.525576 0.146136
C15   C     C_3   0.549366 0.968986 0.548341 0.521105
C16   C     C_3   0.454967 0.030855 0.468165 0.526486
C17   C     C_3   0.549566 0.028273 0.465384 -0.328732
C18   C     C_3   0.454852 0.971933 0.550755 -0.368879
C19   C     C_1   0.501124 0.249044 0.501933 -0.121171
C20   C     C_1   0.501039 0.751045 0.500237 -0.123124
C21   C     C_3   0.502638 0.025230 0.593901 -0.111183
C22   C     C_3   0.501587 0.974973 0.422683 -0.106998
C23   C     C_R   0.388689 0.500219 0.500168 0.983388
C24   C     C_R   0.611475 0.499079 0.500214 0.978035
C25   C     C_3   0.502064 0.083523 0.510995 -0.040839
C26   C     C_3   0.502204 0.916718 0.505172 -0.052814
C27   C     C_1   0.501728 0.174031 0.506016 0.026025
C28   C     C_1   0.501867 0.826090 0.502220 0.036948
C29   C     C_3   0.525804 0.427040 0.968256 -0.337992
C30   C     C_3   0.472019 0.569125 0.031501 -0.307294
C31   C     C_3   0.553000 0.494781 0.028917 0.506047
C32   C     C_3   0.444737 0.501365 0.970730 0.483653
C33   C     C_3   0.471345 0.429534 0.029391 -0.074722
C34   C     C_3   0.526313 0.566235 0.970158 -0.095086
C35   C     C_3   0.499179 0.496762 0.090032 -0.115806
C36   C     C_3   0.498470 0.499282 0.909880 -0.122528
C37   C     C_1   0.499978 0.498979 0.189940 0.194096
C38   C     C_1   0.499065 0.499677 0.810009 0.137104
C39   C     C_R   0.876676 0.567317 0.568870 0.618278
C40   C     C_R   0.124290 0.434992 0.582003 0.642131
C41   C     C_R   0.887231 0.416650 0.554948 0.588322
C42   C     C_R   0.113975 0.584458 0.556121 0.586017
C43   C     C_R   0.944895 0.418641 0.584429 -0.101068
C44   C     C_R   0.055745 0.583930 0.582877 -0.093803
C45   C     C_R   0.970044 0.499013 0.591983 -0.050444
C46   C     C_R   0.030342 0.504099 0.594168 -0.046579
C47   C     C_R   0.935361 0.574263 0.591283 -0.138693
C48   C     C_R   0.064986 0.429114 0.601170 -0.154739
C49   C     C_R   0.978517 0.344204 0.605394 -0.137712
C50   C     C_R   0.021682 0.659300 0.596507 -0.137488
C51   C     C_R   0.038356 0.351211 0.622300 0.416531
C52   C     C_R   0.961372 0.653155 0.609374 0.424566
H1    H     H_    0.548000 0.368379 0.943596 0.170565
H2    H     H_    0.448611 0.626501 0.056944 0.179942
H3    H     H_    0.223839 0.603056 0.634536 0.183691
H4    H     H_    0.778859 0.413248 0.643839 0.168558
H5    H     H_    0.588925 0.052854 0.432951 0.188970
H6    H     H_    0.415782 0.951770 0.586860 0.182863
N1    N     N_R   0.855015 0.490210 0.547475 -0.326644
N2    N     N_R   0.146426 0.510748 0.555776 -0.328895
N3    N     N_1   0.500020 0.500000 0.268010 -0.072877
N4    N     N_1   0.499980 0.500000 0.731990 -0.092924
O1    O     O_R   0.500000 0.376780 0.574460 -0.622575
O2    O     O_R   0.500000 0.623220 0.425540 -0.617559
O3    O     O_R   0.500010 0.376780 0.425520 -0.589040
O4    O     O_R   0.499990 0.623220 0.574480 -0.606005
O5    O     O_R   0.416150 0.499970 0.574490 -0.615331
O6    O     O_R   0.583850 0.500030 0.425510 -0.553113
O7    O     O_R   0.416160 0.499980 0.425550 -0.582524
O8    O     O_R   0.583840 0.500020 0.574450 -0.622262
O9    O     O_2   0.841654 0.636780 0.563977 -0.477945
O10   O     O_2   0.159361 0.365402 0.583721 -0.414345
O11   O     O_2   0.863709 0.342838 0.530395 -0.538282
O12   O     O_2   0.137597 0.656694 0.526226 -0.549918
Zn1   Zn    Zn3+2 0.499990 0.500000 0.599450 1.005475
Zn2   Zn    Zn3+2 0.500010 0.500000 0.400550 1.068490
C53   C     C_R   0.951635 0.259817 0.612682 0.234554
C54   C     C_R   0.910711 0.244235 0.679913 -0.022963
C55   C     C_R   0.886279 0.164235 0.687499 -0.110154
C56   C     C_R   0.902608 0.099344 0.628413 -0.084523
C57   C     C_R   0.943209 0.114430 0.561347 -0.118767
C58   C     C_R   0.967573 0.194427 0.553223 -0.037518
H7    H     H_    0.898058 0.293906 0.726403 0.126205
H8    H     H_    0.854826 0.152457 0.739376 0.149383
H9    H     H_    0.883816 0.037361 0.634602 0.166184
H10   H     H_    0.955835 0.064099 0.515700 0.150084
H11   H     H_    0.998970 0.205439 0.500988 0.152741
C59   C     C_R   0.048609 0.743801 0.600618 0.232800
C60   C     C_R   0.087867 0.762009 0.669160 -0.027524
C61   C     C_R   0.112393 0.842091 0.673660 -0.109953
C62   C     C_R   0.097843 0.904448 0.610114 -0.088818
C63   C     C_R   0.058948 0.886717 0.541673 -0.129232
C64   C     C_R   0.034491 0.806621 0.536653 -0.028957
H12   H     H_    0.099137 0.714333 0.719070 0.131703
H13   H     H_    0.142539 0.855905 0.726585 0.152542
H14   H     H_    0.116704 0.966506 0.613899 0.171350
H15   H     H_    0.047723 0.935073 0.492538 0.150721
H16   H     H_    0.004448 0.793540 0.483291 0.161039
S1    S     S_3+6 0.626113 0.490832 0.066065 0.052857
O13   O     O_2   0.641595 0.576681 0.100769 -0.223002
O14   O     O_2   0.633002 0.425521 0.139152 -0.258057
O15   O     O_3   0.669680 0.464768 0.980005 -0.605164
H17   H     H_    0.709327 0.467202 0.004459 0.406429
S2    S     S_3+6 0.371157 0.508900 0.935703 0.021904
O16   O     O_2   0.356864 0.598576 0.907264 -0.302927
O17   O     O_2   0.361630 0.450276 0.858334 -0.331395
O18   O     O_3   0.327820 0.482968 0.021410 -0.483302
H18   H     H_    0.323440 0.420718 0.017188 0.383266
C65   C     C_R   0.559031 0.641123 0.935879 0.168813
C66   C     C_R   0.546979 0.723342 0.968048 -0.124881
C67   C     C_R   0.578255 0.792099 0.936414 -0.157989
C68   C     C_R   0.621262 0.779449 0.871892 -0.026020
C69   C     C_R   0.633538 0.697812 0.839600 -0.076762
C70   C     C_R   0.602828 0.628785 0.871823 -0.101247
H19   H     H_    0.513993 0.734361 0.018166 0.125771
H20   H     H_    0.569385 0.855164 0.962257 0.128569
H21   H     H_    0.645231 0.832831 0.847238 0.166913
H22   H     H_    0.666991 0.687950 0.789839 0.171337
H23   H     H_    0.613073 0.565794 0.846664 0.150629
C71   C     C_R   0.439545 0.349829 0.052015 0.104712
C72   C     C_R   0.421863 0.297000 0.982255 -0.137092
C73   C     C_R   0.391073 0.223760 0.000624 -0.155480
C74   C     C_R   0.377260 0.202932 0.088833 -0.114067
C75   C     C_R   0.394379 0.255279 0.158596 -0.008549
C76   C     C_R   0.425812 0.327946 0.140522 -0.092056
H24   H     H_    0.431462 0.313169 0.913492 0.164448
H25   H     H_    0.377619 0.183493 0.946409 0.168421
H26   H     H_    0.353071 0.146553 0.103101 0.169295
H27   H     H_    0.382923 0.240098 0.226800 0.236972
H28   H     H_    0.438358 0.366755 0.195921 0.177217
S3    S     S_3+6 0.077300 0.266424 0.677807 0.065530
O19   O     O_2   0.104919 0.209328 0.608740 -0.259622
O20   O     O_2   0.123266 0.301694 0.736968 -0.214026
O21   O     O_3   0.033531 0.208751 0.742629 -0.568246
H29   H     H_    0.056565 0.156985 0.758544 0.388239
S4    S     S_3+6 0.920861 0.740507 0.656736 0.059198
O22   O     O_2   0.895240 0.793870 0.582355 -0.267038
O23   O     O_2   0.873239 0.708131 0.715088 -0.225898
O24   O     O_3   0.962694 0.801596 0.720457 -0.566783
H30   H     H_    0.939508 0.854461 0.730487 0.385033
C77   C     C_R   0.332928 0.635801 0.601778 0.094875
C78   C     C_R   0.358744 0.630150 0.686495 -0.037719
C79   C     C_R   0.389151 0.698830 0.719812 -0.087613
C80   C     C_R   0.392456 0.773761 0.669687 -0.124416
C81   C     C_R   0.365952 0.779681 0.585791 -0.147242
C82   C     C_R   0.336739 0.710787 0.551643 -0.159843
H31   H     H_    0.356028 0.572392 0.725558 0.207816
H32   H     H_    0.410106 0.694163 0.784374 0.165394
H33   H     H_    0.415541 0.827027 0.695809 0.130708
H34   H     H_    0.368018 0.837088 0.546349 0.168300
H35   H     H_    0.316687 0.716000 0.486326 0.160821
C83   C     C_R   0.668006 0.387043 0.633051 0.170449
C84   C     C_R   0.664767 0.403894 0.725115 -0.119344
C85   C     C_R   0.638308 0.346603 0.782695 -0.145855
C86   C     C_R   0.615610 0.271944 0.749026 -0.116639
C87   C     C_R   0.618423 0.255003 0.657414 -0.103207
C88   C     C_R   0.644202 0.312628 0.599340 -0.142880
H36   H     H_    0.683361 0.460705 0.752200 0.148202
H37   H     H_    0.636384 0.359202 0.853623 0.189336
H38   H     H_    0.596624 0.226799 0.794231 0.148190
H39   H     H_    0.601480 0.196636 0.631550 0.161216
H40   H     H_    0.647000 0.298277 0.528653 0.129997
S5    S     S_3+6 0.321372 0.376158 0.378140 0.112523
O25   O     O_2   0.372972 0.335059 0.423098 -0.264462
O26   O     O_2   0.280084 0.307358 0.356174 -0.150228
O27   O     O_3   0.343132 0.422377 0.282640 -0.538581
H41   H     H_    0.320423 0.476364 0.277921 0.366328
S6    S     S_3+6 0.678657 0.611319 0.364997 0.107897
O28   O     O_2   0.721150 0.673431 0.329402 -0.224067
O29   O     O_2   0.653285 0.563715 0.288297 -0.192499
O30   O     O_3   0.625848 0.667315 0.417021 -0.558840
H42   H     H_    0.608056 0.703726 0.369782 0.384698
S7    S     S_3+6 0.180152 0.429062 0.375047 0.101198
O31   O     O_2   0.125426 0.482572 0.374674 -0.289744
O32   O     O_2   0.207196 0.434199 0.283829 -0.237799
O33   O     O_3   0.163639 0.327726 0.397219 -0.453916
H43   H     H_    0.134021 0.313547 0.352328 0.387063
S8    S     S_3+6 0.819010 0.547989 0.357390 0.142585
O34   O     O_2   0.869723 0.486464 0.358925 -0.242004
O35   O     O_2   0.788423 0.538764 0.269482 -0.161614
O36   O     O_3   0.844351 0.646961 0.365094 -0.453281
H44   H     H_    0.817054 0.678581 0.404363 0.395772
S9    S     S_3+6 0.613569 0.926458 0.599144 0.025673
O37   O     O_2   0.598855 0.853797 0.659818 -0.336601
O38   O     O_2   0.654324 0.895314 0.527489 -0.235407
O39   O     O_3   0.644774 0.003107 0.658607 -0.571282
H45   H     H_    0.677741 0.974262 0.689358 0.388383
S10   S     S_3+6 0.390907 0.072698 0.416587 0.042942
O40   O     O_2   0.363650 0.139500 0.475678 -0.214961
O41   O     O_2   0.406245 0.111165 0.327896 -0.325526
O42   O     O_3   0.344425 0.993877 0.401240 -0.582439
H46   H     H_    0.311532 0.020501 0.368272 0.399878
C89   C     C_R   0.498327 0.945755 0.327054 0.168673
C90   C     C_R   0.537628 0.974348 0.262679 -0.092151
C91   C     C_R   0.532713 0.949212 0.173436 -0.120875
C92   C     C_R   0.488702 0.895379 0.147925 -0.120741
C93   C     C_R   0.449757 0.866076 0.211698 -0.123984
C94   C     C_R   0.454432 0.891232 0.300906 -0.081362
H47   H     H_    0.571609 0.016794 0.280856 0.139466
H48   H     H_    0.562824 0.971884 0.123910 0.140260
H49   H     H_    0.484619 0.876706 0.078723 0.117772
H50   H     H_    0.415734 0.824253 0.191914 0.146659
H51   H     H_    0.423698 0.868528 0.349509 0.156515
C95   C     C_R   0.500180 0.044705 0.692600 0.186208
C96   C     C_R   0.498527 0.977110 0.754254 -0.087879
C97   C     C_R   0.494004 0.992964 0.845937 -0.144563
C98   C     C_R   0.491367 0.076420 0.877053 -0.110917
C99   C     C_R   0.492643 0.143998 0.816343 -0.152291
C100  C     C_R   0.496737 0.128428 0.724530 -0.125391
H52   H     H_    0.500085 0.912034 0.731256 0.152213
H53   H     H_    0.492110 0.940563 0.892789 0.124488
H54   H     H_    0.488045 0.088716 0.948079 0.140929
H55   H     H_    0.490667 0.208655 0.840317 0.128954
H56   H     H_    0.496892 0.182043 0.679500 0.140290

loop_
_geom_bond_atom_site_label_1
_geom_bond_atom_site_label_2
_ccdc_geom_bond_type
C12   S8    S    
O30   H42   S    
C99   H55   S    
C40   N2    A    
C18   C21   S    
C23   O7    A    
C67   C68   A    
C18   C26   S    
C53   C54   A    
S3    O21   S    
S2    O17   D    
C57   C58   A    
C61   C62   A    
C24   O8    A    
C61   H13   S    
C13   N2    S    
S3    O20   D    
S7    O31   D    
C14   N1    S    
C30   H2    S    
C29   C36   S    
C56   H9    S    
O3    Zn2   S    
C29   H1    S    
C30   C35   S    
S10   O42   S    
C32   C36   S    
C87   C88   A    
C35   C37   S    
C91   H48   S    
S9    O38   D    
C68   H21   S    
C92   C93   A    
C97   H53   S    
C58   H11   S    
C29   C33   S    
C73   H25   S    
O7    Zn2   S    
S10   O41   D    
C23   O5    A    
C60   H12   S    
C9    S5    S    
C66   C67   A    
S2    O16   D    
C33   C35   S    
C62   H14   S    
C59   C64   A    
C5    C77   S    
C54   H7    S    
C18   H6    S    
C48   C51   A    
S5    O25   D    
C44   C46   A    
C99   C100  A    
C49   C51   A    
C15   S9    S    
C95   C100  A    
C50   C52   A    
O18   H18   S    
C32   S2    S    
C22   C89   S    
C67   H20   S    
C96   C97   A    
C17   C22   S    
C31   S1    S    
C97   C98   A    
C19   C27   T    
C70   H23   S    
C3    C13   A    
C50   C59   S    
C6    C83   S    
S7    O32   D    
C90   C91   A    
C88   H40   S    
C4    H4    S    
C95   C96   A    
C41   C43   A    
C21   C95   S    
O15   H17   S    
C42   C44   A    
S4    O24   S    
C1    O1    A    
C68   C69   A    
C2    O2    A    
C63   H15   S    
C81   C82   A    
C98   C99   A    
C45   C47   A    
N3    Zn2   S    
C79   H32   S    
C46   C48   A    
C11   S7    S    
C1    C19   S    
C84   H36   S    
C2    C20   S    
O42   H46   S    
S8    O34   D    
C74   C75   A    
S5    O27   S    
C55   C56   A    
C41   N1    A    
C4    C6    A    
C16   S10   S    
S9    O39   S    
C42   N2    A    
C62   C63   A    
C5    C7    A    
C30   C34   S    
C54   C55   A    
C80   C81   A    
C15   C26   S    
C6    C8    A    
C91   C92   A    
C20   C28   T    
C3    C5    A    
C98   H54   S    
C45   C46   A    
C24   O6    A    
C69   H22   S    
S10   O40   D    
C3    H3    S    
O36   H44   S    
S9    O37   D    
C80   H33   S    
C9    C11   A    
C1    O3    A    
C90   H47   S    
C15   C21   S    
C39   N1    A    
O2    Zn2   S    
C31   C34   S    
C93   H50   S    
C16   C18   S    
C96   H52   S    
C83   C84   A    
C43   C45   A    
C85   C86   A    
C47   C52   A    
C42   O12   S    
C10   C12   A    
C77   C82   A    
O39   H45   S    
C65   C70   A    
C8    C10   A    
S6    O28   D    
S1    O14   D    
C12   C14   A    
C87   H39   S    
O27   H41   S    
C52   S4    S    
C31   C35   S    
N4    Zn1   S    
O5    Zn1   S    
S3    O19   D    
C60   C61   A    
C94   H51   S    
C71   C72   A    
S4    O23   D    
C39   C47   A    
C69   C70   A    
S7    O33   S    
C44   C50   A    
C16   C25   S    
C40   C48   A    
C21   C25   S    
C83   C88   A    
O33   H43   S    
C16   C22   S    
C37   N3    T    
C40   O10   S    
S5    O26   D    
C86   H38   S    
C71   C76   A    
C78   H31   S    
C43   C49   A    
C81   H34   S    
C56   C57   A    
C2    O4    A    
S8    O35   D    
O24   H30   S    
C72   C73   A    
C15   C17   S    
O21   H29   S    
O6    Zn2   S    
C26   C28   S    
C100  H56   S    
S1    O13   D    
C57   H10   S    
C17   C25   S    
C32   C33   S    
C36   C38   S    
C79   C80   A    
C84   C85   A    
C85   H37   S    
C29   C31   S    
C65   C66   A    
C30   C32   S    
C11   C13   A    
C74   H26   S    
C55   H8    S    
O1    Zn1   S    
C53   C58   A    
C7    C23   S    
O4    Zn1   S    
C64   H16   S    
S6    O29   D    
C63   C64   A    
C8    C24   S    
C49   C53   S    
C75   H27   S    
C34   C36   S    
C4    C14   A    
C93   C94   A    
S8    O36   S    
C76   H28   S    
C41   O11   S    
C82   H35   S    
C7    C9    A    
C72   H24   S    
S1    O15   S    
C59   C60   A    
O8    Zn1   S    
C33   C71   S    
C10   S6    S    
C89   C90   A    
C22   C26   S    
C51   S3    S    
C86   C87   A    
C73   C74   A    
C34   C65   S    
C39   O9    S    
C78   C79   A    
S4    O22   D    
S6    O30   S    
C92   H49   S    
C77   C78   A    
C66   H19   S    
S2    O18   S    
C89   C94   A    
C17   H5    S    
C75   C76   A    
C38   N4    T    
C25   C27   S    
