data_mof_unit_48568.cif
_audit_creation_date              2012-10-26T21:04:53-0400
_audit_creation_method            fapswitch 2.2
_symmetry_space_group_name_H-M    P1
_symmetry_Int_Tables_number       1
_space_group_crystal_system       triclinic
_cell_length_a                    11.678561
_cell_length_b                    12.432819
_cell_length_c                    13.166474
_cell_angle_alpha                 117.349452
_cell_angle_beta                  76.250019
_cell_angle_gamma                 101.240296
_cell_volume                      1641.22130868

loop_
_atom_site_label
_atom_site_type_symbol
_atom_type_description
_atom_site_fract_x
_atom_site_fract_y
_atom_site_fract_z
_atom_type_partial_charge
C1    C     C_R   0.505538 0.855105 0.286732 0.548774
C2    C     C_R   0.334309 0.486624 0.172818 -0.138058
C3    C     C_R   0.367338 0.609978 0.205482 -0.115391
C4    C     C_R   0.715602 0.000109 0.499908 0.565238
C5    C     C_R   0.490188 0.354113 0.869759 -0.075545
C6    C     C_R   0.388530 0.191176 0.919474 -0.130503
C7    C     C_R   0.496152 0.773909 0.163510 -0.050173
C8    C     C_R   0.670336 0.325328 0.306816 -0.148395
C9    C     C_R   0.343084 0.763790 0.650202 0.503305
C10   C     C_R   0.302549 0.666745 0.678153 -0.140105
C11   C     C_R   0.356222 0.559180 0.616558 -0.119877
C12   C     C_R   0.457461 0.229884 0.837463 -0.022218
C13   C     C_R   0.454737 0.547019 0.526918 -0.048232
C14   C     C_R   0.490828 0.647166 0.497235 0.099699
C15   C     C_R   0.518396 0.439998 0.465898 -0.026652
C16   C     C_R   0.483017 0.145441 0.714113 0.528640
C17   C     C_R   0.605351 0.427881 0.365639 -0.129386
C18   C     C_R   0.630176 0.519442 0.327180 0.016195
C19   C     C_R   0.583397 0.630801 0.399995 0.408069
C20   C     C_R   0.502202 0.343831 0.500071 0.504700
C21   C     C_R   0.649613 0.236105 0.344554 0.474638
C22   C     C_R   0.284327 0.000156 0.500522 0.538933
C23   C     C_R   0.547569 0.817162 0.079672 -0.168811
C24   C     C_1   0.837447 0.000304 0.499997 0.005814
C25   C     C_1   0.939987 0.000117 0.500178 -0.027833
C26   C     C_1   0.059817 0.999859 0.500395 -0.025345
C27   C     C_1   0.162414 0.999827 0.500517 0.003834
C28   C     C_R   0.349492 0.276812 0.031567 -0.133343
C29   C     C_3   0.714022 0.497653 0.210938 -0.225454
C30   C     C_3   0.720981 0.587554 0.158956 -0.251594
C31   C     C_3   0.774120 0.533998 0.030015 -0.472573
C32   C     C_3   0.593666 0.786461 0.867694 -0.216786
C33   C     C_3   0.621411 0.924997 0.911466 -0.337259
C34   C     C_R   0.549854 0.741088 0.961029 0.010157
C35   C     C_3   0.655686 0.959917 0.810361 -0.430862
C36   C     C_R   0.512294 0.616830 0.925983 0.361570
C37   C     C_R   0.467648 0.569099 0.008794 0.028019
C38   C     C_R   0.442983 0.652064 0.127250 -0.044234
C39   C     C_R   0.443697 0.442169 0.978413 0.045262
C40   C     C_R   0.375799 0.401775 0.061389 0.038430
Cu1   Cu    Cu3+1 0.526510 0.098270 0.475420 1.122445
Cu2   Cu    Cu3+1 0.473490 0.901730 0.524580 1.063697
F1    F     F_    0.426114 0.345755 0.595655 -0.598284
F2    F     F_    0.287698 0.866858 0.710011 -0.622203
F3    F     F_    0.641646 0.723170 0.378989 -0.634615
F4    F     F_    0.508717 0.546758 0.811390 -0.640606
F5    F     F_    0.711739 0.137459 0.286444 -0.622041
H1    H     H_    0.362484 0.095400 0.896327 0.179474
H2    H     H_    0.864859 0.509616 0.016688 0.164328
H3    H     H_    0.717898 0.451638 0.980347 0.149528
H4    H     H_    0.778940 0.602175 0.996298 0.158798
H5    H     H_    0.631149 0.610161 0.168721 0.210246
H6    H     H_    0.777623 0.671956 0.204051 0.223663
H7    H     H_    0.805185 0.493618 0.219941 0.143788
H8    H     H_    0.682713 0.407196 0.145612 0.133526
H9    H     H_    0.737910 0.919701 0.753503 0.165774
H10   H     H_    0.583381 0.926814 0.758385 0.194242
H11   H     H_    0.671367 0.060490 0.844106 0.142298
H12   H     H_    0.739307 0.312695 0.232398 0.128451
H13   H     H_    0.542126 0.971061 0.969381 0.170220
H14   H     H_    0.696392 0.957415 0.960346 0.183525
H15   H     H_    0.674430 0.741835 0.812015 0.174945
H16   H     H_    0.524241 0.756376 0.812458 0.195593
H17   H     H_    0.314455 0.486455 0.639134 0.226448
H18   H     H_    0.227534 0.674079 0.746855 0.138819
H19   H     H_    0.278332 0.457484 0.235927 0.114437
H20   H     H_    0.296590 0.245479 0.094279 0.120935
H21   H     H_    0.553954 0.380078 0.808908 0.209220
H22   H     H_    0.585102 0.910823 0.107810 0.173917
H23   H     H_    0.329866 0.671515 0.291867 0.150956
N1    N     N_R   0.566700 0.246290 0.438210 -0.218872
N2    N     N_R   0.434010 0.754320 0.561170 -0.232111
O1    O     O_R   0.533340 0.972510 0.318140 -0.463208
O2    O     O_R   0.488570 0.806530 0.359650 -0.460759
O3    O     O_R   0.685190 0.083000 0.479260 -0.457472
O4    O     O_R   0.640410 0.917020 0.520770 -0.434997
O5    O     O_R   0.511430 0.193470 0.640350 -0.442154
O6    O     O_R   0.466660 0.027490 0.681860 -0.477587
O7    O     O_R   0.359590 0.082980 0.479230 -0.474133
O8    O     O_R   0.314810 0.917000 0.520740 -0.462880

loop_
_geom_bond_atom_site_label_1
_geom_bond_atom_site_label_2
_ccdc_geom_bond_type
Cu2   O8    S    
Cu1   Cu2   S    
C23   H22   S    
C9    N2    A    
C26   C27   T    
C29   C30   S    
C6    H1    S    
C21   N1    A    
C35   H11   S    
C1    O2    A    
C36   C37   A    
C22   O7    A    
C16   O5    A    
C8    H12   S    
C6    C12   A    
C30   C31   S    
C4    C24   S    
C29   H7    S    
C28   C40   A    
C18   C19   A    
C4    O3    A    
C6    C28   A    
C12   C16   S    
C3    C38   A    
C20   N1    A    
C36   F4    S    
C9    C10   A    
C16   O6    A    
Cu1   N1    S    
C13   C14   A    
C31   H2    S    
C5    H21   S    
C17   C18   A    
C15   C20   A    
C30   H6    S    
Cu2   O2    S    
C28   H20   S    
C24   C25   T    
C5    C12   A    
C11   H17   S    
C39   C40   A    
C29   H8    S    
C25   C26   S    
Cu1   O1    S    
C32   C34   S    
C37   C38   A    
Cu1   O3    S    
C23   C34   A    
C3    H23   S    
Cu2   N2    S    
C8    C21   A    
C18   C29   S    
Cu2   O6    S    
C33   H13   S    
C22   C27   S    
C13   C15   A    
C31   H3    S    
C20   F1    S    
C10   H18   S    
C15   C17   A    
C30   H5    S    
C9    F2    S    
C35   H9    S    
C1    C7    S    
C14   N2    A    
C14   C19   A    
C32   H16   S    
C31   H4    S    
C2    H19   S    
Cu1   O7    S    
C19   F3    S    
Cu2   O4    S    
C8    C17   A    
C35   H10   S    
C1    O1    A    
C32   C33   S    
C5    C39   A    
C2    C3    A    
C22   O8    A    
C37   C39   A    
Cu1   O5    S    
C11   C13   A    
C7    C23   A    
C33   C35   S    
C7    C38   A    
C34   C36   A    
C4    O4    A    
C10   C11   A    
C32   H15   S    
C2    C40   A    
C33   H14   S    
C21   F5    S    
