data_mof_unit_31639.cif
_audit_creation_date              2012-12-10T16:48:50-0500
_audit_creation_method            fapswitch 2.2
_symmetry_space_group_name_H-M    P1
_symmetry_Int_Tables_number       1
_space_group_crystal_system       triclinic
_cell_length_a                    17.32558
_cell_length_b                    8.68038
_cell_length_c                    7.527094
_cell_angle_alpha                 103.175325
_cell_angle_beta                  90.927182
_cell_angle_gamma                 94.285036
_cell_volume                      1098.49713614

loop_
_atom_site_label
_atom_site_type_symbol
_atom_type_description
_atom_site_fract_x
_atom_site_fract_y
_atom_site_fract_z
_atom_type_partial_charge
C1    C     C_R   0.497459 0.199893 0.453502 0.876924
C2    C     C_R   0.502540 0.800107 0.546498 0.876924
C3    C     C_2   0.495815 0.031504 0.428023 -0.307395
C4    C     C_2   0.504185 0.968496 0.571977 -0.307395
C5    C     C_R   0.351741 0.498605 0.524367 0.822958
C6    C     C_R   0.648259 0.501395 0.475633 0.822958
C7    C     C_R   0.268567 0.500333 0.538515 -0.069827
C8    C     C_R   0.731433 0.499667 0.461485 -0.069827
C9    C     C_R   0.218998 0.387717 0.416676 0.256200
C10   C     C_R   0.781002 0.612283 0.583323 0.256200
C11   C     C_R   0.140121 0.405697 0.413960 -0.158446
C12   C     C_R   0.859879 0.594303 0.586040 -0.158446
C13   C     C_R   0.109831 0.533224 0.534948 0.117820
C14   C     C_R   0.890169 0.466776 0.465051 0.117820
C15   C     C_R   0.159261 0.641803 0.660236 -0.133991
C16   C     C_R   0.840739 0.358197 0.339764 -0.133991
C17   C     C_R   0.238370 0.624875 0.662890 -0.198630
C18   C     C_R   0.761630 0.375125 0.337110 -0.198630
C19   C     C_2   0.027407 0.559553 0.528930 -0.188144
C20   C     C_2   0.972593 0.440448 0.471069 -0.188144
Cu1   Cu    Cu3+1 0.508700 0.517250 0.683000 1.102086
Cu2   Cu    Cu3+1 0.491300 0.482750 0.317000 1.102086
H1    H     H_    0.723664 0.287453 0.243437 0.176616
H2    H     H_    0.276335 0.712547 0.756563 0.176616
H3    H     H_    0.987911 0.319144 0.425474 0.153471
H4    H     H_    0.012089 0.680856 0.574526 0.153471
H5    H     H_    0.136713 0.740898 0.754151 0.156729
H6    H     H_    0.863287 0.259103 0.245848 0.156729
H7    H     H_    0.896451 0.677949 0.686821 0.157351
H8    H     H_    0.103548 0.322051 0.313179 0.157351
H9    H     H_    0.487553 0.959126 0.289754 0.204534
H10   H     H_    0.512447 0.040874 0.710246 0.204534
N1    N     N_2   0.478180 0.456750 0.041980 0.052575
N2    N     N_2   0.521820 0.543250 0.958020 0.052575
O1    O     O_R   0.505650 0.286040 0.618880 -0.568324
O2    O     O_R   0.494350 0.713960 0.381120 -0.568324
O3    O     O_R   0.490960 0.256910 0.309800 -0.560550
O4    O     O_R   0.509040 0.743090 0.690200 -0.560550
O5    O     O_R   0.394600 0.516230 0.672450 -0.567471
O6    O     O_R   0.605400 0.483770 0.327550 -0.567471
O7    O     O_R   0.379910 0.487100 0.363380 -0.541406
O8    O     O_R   0.620090 0.512900 0.636620 -0.541405
Br1   Br    Br    0.255673 0.205520 0.254341 -0.463804
Br2   Br    Br    0.744326 0.794480 0.745659 -0.463804
Br3   Br    Br    0.401308 0.304445 0.917160 -0.319274
Br4   Br    Br    0.598692 0.695554 0.082840 -0.319274

loop_
_geom_bond_atom_site_label_1
_geom_bond_atom_site_label_2
_ccdc_geom_bond_type
C16   H6    S    
C2    C4    S    
C19   H4    S    
Cu1   O1    S    
C14   C20   S    
C12   H7    S    
N1    Br3   S    
C2    O4    A    
C15   H5    S    
C19   C20   D    
Cu1   O5    S    
C1    O3    A    
Cu2   O6    S    
C5    O5    A    
N1    N2    D    
C3    C4    D    
C16   C18   A    
Cu1   Cu2   S    
C3    H9    S    
C9    C11   A    
C4    H10   S    
C10   C12   A    
N2    Br4   S    
C8    C10   A    
C12   C14   A    
C6    O6    A    
C13   C15   A    
C14   C16   A    
C9    Br1   S    
Cu2   O7    S    
C20   H3    S    
C13   C19   S    
C10   Br2   S    
C18   H1    S    
C17   H2    S    
C7    C9    A    
C11   C13   A    
Cu2   O2    S    
C1    O1    A    
C15   C17   A    
C6    O8    A    
C2    O2    A    
C5    C7    S    
Cu2   N1    S    
C5    O7    A    
C6    C8    S    
Cu1   N2    S    
C1    C3    S    
Cu2   O3    S    
C8    C18   A    
Cu1   O4    S    
Cu1   O8    S    
C11   H8    S    
C7    C17   A    
