data_mof_unit_13560.cif
_audit_creation_date              2013-03-05T15:48:18-0500
_audit_creation_method            fapswitch 2.2
_symmetry_space_group_name_H-M    P1
_symmetry_Int_Tables_number       1
_space_group_crystal_system       triclinic
_cell_length_a                    15.74529
_cell_length_b                    15.745198
_cell_length_c                    34.458506
_cell_angle_alpha                 90.002206
_cell_angle_beta                  89.999116
_cell_angle_gamma                 120.000179
_cell_volume                      7398.18321574

loop_
_atom_site_label
_atom_site_type_symbol
_atom_site_description
_atom_site_fract_x
_atom_site_fract_y
_atom_site_fract_z
_atom_type_partial_charge
O1    O     O_R   0.498680 0.159540 0.541860 -0.490591
O2    O     O_R   0.840460 0.339140 0.541860 -0.490569
O3    O     O_R   0.660860 0.501320 0.541860 -0.490571
O4    O     O_R   0.159540 0.498680 0.041860 -0.490602
O5    O     O_R   0.339140 0.840460 0.041860 -0.490599
O6    O     O_R   0.501320 0.660860 0.041860 -0.490802
O7    O     O_R   0.532760 0.358060 0.540030 -0.461155
O8    O     O_R   0.641940 0.174700 0.540030 -0.461130
O9    O     O_R   0.825300 0.467240 0.540030 -0.461147
O10   O     O_R   0.358060 0.532760 0.040030 -0.461153
O11   O     O_R   0.174700 0.641940 0.040030 -0.461217
O12   O     O_R   0.467240 0.825300 0.040030 -0.461294
C1    C     C_R   0.578146 0.441645 0.554981 0.571573
C2    C     C_R   0.558357 0.136506 0.554981 0.571577
C3    C     C_R   0.863496 0.421854 0.554981 0.571571
C4    C     C_R   0.441639 0.578158 0.054985 0.571575
C5    C     C_R   0.136501 0.558356 0.054980 0.571579
C6    C     C_R   0.421847 0.863488 0.054984 0.571693
O13   O     O_R   0.498590 0.161190 0.456930 -0.424850
O14   O     O_R   0.838810 0.337400 0.456930 -0.424941
O15   O     O_R   0.662600 0.501410 0.456930 -0.424862
O16   O     O_R   0.161190 0.498590 0.956930 -0.424829
O17   O     O_R   0.337400 0.838810 0.956930 -0.424804
O18   O     O_R   0.501410 0.662600 0.956930 -0.424806
O19   O     O_R   0.532680 0.359580 0.461300 -0.464803
O20   O     O_R   0.640420 0.173100 0.461300 -0.464823
O21   O     O_R   0.826900 0.467320 0.461300 -0.464798
O22   O     O_R   0.359580 0.532680 0.961300 -0.464788
O23   O     O_R   0.173100 0.640420 0.961300 -0.464789
O24   O     O_R   0.467320 0.826900 0.961300 -0.464764
C7    C     C_R   0.576653 0.442967 0.445957 0.587088
C8    C     C_R   0.557033 0.133682 0.445957 0.587073
C9    C     C_R   0.866308 0.423343 0.445955 0.587048
C10   C     C_R   0.442964 0.576654 0.945955 0.587148
C11   C     C_R   0.133691 0.557034 0.945955 0.587128
C12   C     C_R   0.423344 0.866307 0.945955 0.587177
Cr1   Cr    Cr6+3 0.522350 0.263930 0.500020 1.215730
Cr2   Cr    Cr6+3 0.736070 0.258420 0.500020 1.215738
Cr3   Cr    Cr6+3 0.741580 0.477650 0.500020 1.215736
Cr4   Cr    Cr6+3 0.263930 0.522350 0.000020 1.215721
Cr5   Cr    Cr6+3 0.258420 0.736070 0.000020 1.215713
Cr6   Cr    Cr6+3 0.477650 0.741580 0.000020 1.215593
O25   O     O_3   0.666667 0.333333 0.499990 -0.340892
O26   O     O_3   0.333333 0.666667 0.999990 -0.340904
N1    N     N_R   0.914298 0.415790 0.776270 -0.161432
N2    N     N_R   0.584197 0.498494 0.776269 -0.161430
N3    N     N_R   0.501513 0.085713 0.776273 -0.161435
N4    N     N_R   0.415780 0.913955 0.276331 -0.161534
N5    N     N_R   0.498396 0.584202 0.276292 -0.161456
N6    N     N_R   0.085709 0.501570 0.276266 -0.161431
N7    N     N_R   0.906538 0.408941 0.737796 -0.118941
N8    N     N_R   0.591048 0.497586 0.737795 -0.118941
N9    N     N_R   0.502426 0.093479 0.737800 -0.118945
N10   N     N_R   0.408919 0.906188 0.237857 -0.118992
N11   N     N_R   0.497480 0.591059 0.237819 -0.119062
N12   N     N_R   0.093472 0.502485 0.237792 -0.119020
C13   C     C_R   0.915381 0.453642 0.592595 -0.066872
C14   C     C_R   0.546358 0.461747 0.592594 -0.066868
C15   C     C_R   0.538259 0.084625 0.592596 -0.066867
C16   C     C_R   0.453583 0.915291 0.092617 -0.066782
C17   C     C_R   0.461729 0.546412 0.092609 -0.066814
C18   C     C_R   0.084607 0.538247 0.092592 -0.066844
C19   C     C_R   0.929697 0.385576 0.613641 -0.102939
C20   C     C_R   0.614427 0.544125 0.613643 -0.102930
C21   C     C_R   0.455889 0.070329 0.613645 -0.102950
C22   C     C_R   0.385388 0.929295 0.113720 -0.103106
C23   C     C_R   0.544040 0.614544 0.113674 -0.103154
C24   C     C_R   0.070365 0.455908 0.113649 -0.102954
C25   C     C_R   0.949541 0.397470 0.653146 0.209352
C26   C     C_R   0.602531 0.552072 0.653149 0.209358
C27   C     C_R   0.447944 0.050490 0.653151 0.209348
C28   C     C_R   0.397285 0.949016 0.153236 0.209359
C29   C     C_R   0.551979 0.602626 0.153178 0.209303
C30   C     C_R   0.050508 0.447966 0.153153 0.209351
C31   C     C_R   0.956379 0.479246 0.672542 -0.024711
C32   C     C_R   0.520748 0.477136 0.672540 -0.024714
C33   C     C_R   0.522876 0.043636 0.672542 -0.024709
C34   C     C_R   0.479194 0.956032 0.172588 -0.024742
C35   C     C_R   0.477078 0.520792 0.172558 -0.024693
C36   C     C_R   0.043586 0.522873 0.172536 -0.024716
C37   C     C_R   0.952511 0.553824 0.651025 0.153180
C38   C     C_R   0.446166 0.398700 0.651019 0.153177
C39   C     C_R   0.601308 0.047484 0.651021 0.153179
C40   C     C_R   0.553872 0.952516 0.151010 0.153285
C41   C     C_R   0.398696 0.446180 0.151025 0.153187
C42   C     C_R   0.047368 0.601261 0.151006 0.153184
C43   C     C_R   0.933814 0.541898 0.610760 0.173590
C44   C     C_R   0.458096 0.391930 0.610754 0.173583
C45   C     C_R   0.608075 0.066179 0.610756 0.173578
C46   C     C_R   0.541948 0.933929 0.110740 0.173518
C47   C     C_R   0.391951 0.458114 0.110758 0.173597
C48   C     C_R   0.066081 0.608024 0.110741 0.173567
N13   N     N_R   0.034792 0.570787 0.731943 -0.124488
N14   N     N_R   0.429208 0.464010 0.731940 -0.124482
N15   N     N_R   0.535992 0.965209 0.731938 -0.124484
N16   N     N_R   0.570889 0.034171 0.232001 -0.124348
N17   N     N_R   0.463962 0.429238 0.231953 -0.124451
N18   N     N_R   0.965151 0.535975 0.231937 -0.124439
N19   N     N_R   0.042193 0.577789 0.770354 -0.124276
N20   N     N_R   0.422204 0.464405 0.770351 -0.124270
N21   N     N_R   0.535591 0.957801 0.770349 -0.124271
N22   N     N_R   0.577903 0.041578 0.270412 -0.124198
N23   N     N_R   0.464363 0.422228 0.270364 -0.124273
N24   N     N_R   0.957749 0.535575 0.270348 -0.124294
C49   C     C_R   0.981672 0.500831 0.793216 0.372428
C50   C     C_R   0.499158 0.480833 0.793214 0.372426
C51   C     C_R   0.519166 0.018327 0.793215 0.372424
C52   C     C_R   0.500879 0.981211 0.293277 0.372297
C53   C     C_R   0.480771 0.499171 0.293231 0.372446
C54   C     C_R   0.018299 0.519183 0.293211 0.372424
C55   C     C_R   0.966763 0.486264 0.714984 0.395226
C56   C     C_R   0.513728 0.480497 0.714983 0.395219
C57   C     C_R   0.519513 0.033249 0.714985 0.395222
C58   C     C_R   0.486289 0.966294 0.215041 0.394770
C59   C     C_R   0.480419 0.513753 0.215001 0.395233
C60   C     C_R   0.033213 0.519531 0.214979 0.395229
C61   C     C_R   0.987176 0.428793 0.856349 -0.092463
C62   C     C_R   0.571200 0.558371 0.856350 -0.092458
C63   C     C_R   0.441627 0.012825 0.856351 -0.092467
C64   C     C_R   0.428819 0.986997 0.356371 -0.092513
C65   C     C_R   0.558355 0.571210 0.356360 -0.092467
C66   C     C_R   0.012779 0.441607 0.356336 -0.092531
C67   C     C_R   0.022209 0.440856 0.894268 0.222705
C68   C     C_R   0.559139 0.581342 0.894269 0.222718
C69   C     C_R   0.418655 0.977791 0.894269 0.222710
C70   C     C_R   0.440866 0.022156 0.394270 0.222612
C71   C     C_R   0.581344 0.559149 0.394275 0.222679
C72   C     C_R   0.977752 0.418628 0.394255 0.222566
C73   C     C_R   0.061829 0.611539 0.892604 0.143065
C74   C     C_R   0.388454 0.450284 0.892602 0.143059
C75   C     C_R   0.549703 0.938150 0.892599 0.143063
C76   C     C_R   0.611492 0.061583 0.392675 0.143056
C77   C     C_R   0.450253 0.388478 0.392619 0.143060
C78   C     C_R   0.938175 0.549722 0.392608 0.143067
C79   C     C_R   0.025216 0.598278 0.854527 0.183648
C80   C     C_R   0.401712 0.426935 0.854523 0.183651
C81   C     C_R   0.573055 0.974762 0.854522 0.183657
C82   C     C_R   0.598251 0.024862 0.354615 0.183678
C83   C     C_R   0.426894 0.401732 0.354542 0.183651
C84   C     C_R   0.974763 0.573069 0.354527 0.183646
C85   C     C_R   0.994846 0.508513 0.835513 -0.056200
C86   C     C_R   0.491477 0.486326 0.835512 -0.056201
C87   C     C_R   0.513670 0.005146 0.835512 -0.056200
C88   C     C_R   0.508526 0.994511 0.335572 -0.056174
C89   C     C_R   0.486287 0.491491 0.335527 -0.056205
C90   C     C_R   0.005119 0.513672 0.335507 -0.056204
C91   C     C_R   0.069030 0.535104 0.911455 -0.027860
C92   C     C_R   0.464892 0.533919 0.911455 -0.027858
C93   C     C_R   0.466075 0.930962 0.911453 -0.027852
C94   C     C_R   0.535088 0.068943 0.411477 -0.027883
C95   C     C_R   0.533911 0.464905 0.411463 -0.027869
C96   C     C_R   0.930961 0.466072 0.411452 -0.027892
H1    H     H_    0.919714 0.319361 0.599882 0.232592
H2    H     H_    0.680645 0.600355 0.599887 0.232606
H3    H     H_    0.399661 0.080323 0.599890 0.232591
H4    H     H_    0.319083 0.919166 0.099995 0.232585
H5    H     H_    0.600220 0.680827 0.099935 0.232329
H6    H     H_    0.080418 0.399706 0.099903 0.232582
H7    H     H_    0.958602 0.357933 0.842456 0.218228
H8    H     H_    0.642059 0.600653 0.842458 0.218230
H9    H     H_    0.399348 0.041407 0.842460 0.218224
H10   H     H_    0.357983 0.958442 0.342461 0.218244
H11   H     H_    0.600640 0.642066 0.342466 0.218262
H12   H     H_    0.041338 0.399316 0.342436 0.218225
N25   N     N_R   0.929864 0.617531 0.588901 0.124119
O27   O     O_R   0.875829 0.653609 0.600613 -0.230863
O28   O     O_R   0.981598 0.651528 0.557387 -0.229101
N26   N     N_R   0.382455 0.312359 0.588890 0.124114
O29   O     O_R   0.348486 0.330113 0.557371 -0.229103
O30   O     O_R   0.346345 0.222241 0.600600 -0.230820
N27   N     N_R   0.687644 0.070106 0.588892 0.124115
O31   O     O_R   0.669887 0.018374 0.557374 -0.229032
O32   O     O_R   0.777763 0.124118 0.600601 -0.230814
N28   N     N_R   0.617750 0.930408 0.088826 0.123814
O33   O     O_R   0.654561 0.877037 0.100575 -0.229848
O34   O     O_R   0.651284 0.982004 0.057254 -0.229332
N29   N     N_R   0.312436 0.382443 0.088882 0.124108
O35   O     O_R   0.330262 0.348525 0.057364 -0.229102
O36   O     O_R   0.222297 0.346266 0.100578 -0.230752
N30   N     N_R   0.069931 0.687539 0.088864 0.124077
O37   O     O_R   0.018241 0.669715 0.057332 -0.229123
O38   O     O_R   0.123823 0.777672 0.100578 -0.230738
Cl1   Cl    Cl    0.004093 0.334915 0.918901 -0.345312
Cl2   Cl    Cl    0.665082 0.669162 0.918906 -0.345325
Cl3   Cl    Cl    0.330837 0.995916 0.918906 -0.345307
Cl4   Cl    Cl    0.334926 0.004198 0.418858 -0.345288
Cl5   Cl    Cl    0.669193 0.665089 0.418905 -0.345287
Cl6   Cl    Cl    0.995839 0.330769 0.418875 -0.345386
Cl7   Cl    Cl    0.964366 0.306946 0.677293 -0.338543
Cl8   Cl    Cl    0.693060 0.657415 0.677301 -0.338521
Cl9   Cl    Cl    0.342607 0.035688 0.677303 -0.338552
Cl10  Cl    Cl    0.306627 0.963524 0.177437 -0.338527
Cl11  Cl    Cl    0.657281 0.693186 0.177341 -0.338575
Cl12  Cl    Cl    0.035770 0.342665 0.177313 -0.338426
N31   N     N_R   0.963998 0.640042 0.670084 0.129402
O39   O     O_R   0.031331 0.726606 0.658619 -0.161931
O40   O     O_R   0.903816 0.632391 0.697538 -0.202348
N32   N     N_R   0.359938 0.323977 0.670073 0.129402
O41   O     O_R   0.273382 0.304776 0.658609 -0.161942
O42   O     O_R   0.367571 0.271428 0.697523 -0.202326
N33   N     N_R   0.676029 0.035975 0.670074 0.129401
O43   O     O_R   0.695226 0.968617 0.658608 -0.161945
O44   O     O_R   0.728579 0.096155 0.697527 -0.202336
N34   N     N_R   0.640261 0.964330 0.170009 0.129470
O45   O     O_R   0.632997 0.903475 0.197112 -0.201673
O46   O     O_R   0.726648 0.032847 0.158860 -0.162673
N35   N     N_R   0.324002 0.359911 0.170067 0.129393
O47   O     O_R   0.304885 0.273383 0.158597 -0.162039
O48   O     O_R   0.271397 0.367476 0.197512 -0.202290
N36   N     N_R   0.035760 0.675938 0.170048 0.129420
O49   O     O_R   0.968342 0.695036 0.158575 -0.161998
O50   O     O_R   0.095896 0.728532 0.197505 -0.202106
N37   N     N_R   0.088974 0.701746 0.912195 0.125707
O51   O     O_R   0.170233 0.780768 0.903243 -0.213994
O52   O     O_R   0.036903 0.702921 0.941282 -0.212539
N38   N     N_R   0.298250 0.387221 0.912192 0.125699
O53   O     O_R   0.297082 0.333995 0.941283 -0.212561
O54   O     O_R   0.219220 0.389433 0.903233 -0.213968
N39   N     N_R   0.612755 0.910990 0.912185 0.125699
O55   O     O_R   0.666021 0.963062 0.941268 -0.212468
O56   O     O_R   0.610516 0.829734 0.903225 -0.214019
N40   N     N_R   0.701616 0.088608 0.412312 0.125637
O57   O     O_R   0.780775 0.169718 0.403334 -0.213561
O58   O     O_R   0.702585 0.036601 0.441463 -0.212713
N41   N     N_R   0.387169 0.298299 0.412219 0.125679
O59   O     O_R   0.334008 0.297189 0.441325 -0.212630
O60   O     O_R   0.389297 0.219231 0.403254 -0.213745
N42   N     N_R   0.911083 0.612809 0.412212 0.125687
O61   O     O_R   0.963171 0.666010 0.441305 -0.212621
O62   O     O_R   0.829864 0.610653 0.403261 -0.213864
N43   N     N_R   0.015952 0.674610 0.835586 0.132113
O63   O     O_R   0.933560 0.654500 0.819141 -0.218750
O64   O     O_R   0.091776 0.761860 0.831582 -0.181093
N44   N     N_R   0.325375 0.341343 0.835580 0.132122
O65   O     O_R   0.345473 0.279048 0.819138 -0.218741
O66   O     O_R   0.238141 0.329944 0.831563 -0.181112
N45   N     N_R   0.658643 0.984011 0.835578 0.132124
O67   O     O_R   0.720942 0.066405 0.819140 -0.218739
O68   O     O_R   0.670039 0.908174 0.831561 -0.181110
N46   N     N_R   0.674556 0.015455 0.335724 0.132143
O69   O     O_R   0.654404 0.932970 0.319352 -0.219022
O70   O     O_R   0.761809 0.091242 0.331673 -0.180978
N47   N     N_R   0.341290 0.325400 0.335603 0.132125
O71   O     O_R   0.278995 0.345508 0.319170 -0.218777
O72   O     O_R   0.329889 0.238167 0.331577 -0.181038
N48   N     N_R   0.984019 0.658665 0.335590 0.132122
O73   O     O_R   0.066409 0.720957 0.319147 -0.218715
O74   O     O_R   0.908184 0.670066 0.331577 -0.181103

loop_
_geom_bond_atom_site_label_1
_geom_bond_atom_site_label_2
_geom_bond_distance
_ccdc_geom_bond_type
N21   C51   1.357319 A    
O7    C1    1.252027 A    
C22   H4    1.082831 S    
N27   O31   1.301285 A    
C30   Cl12  1.763871 S    
O20   C8    1.254460 A    
N25   O27   1.301025 A    
C35   C59   1.469661 S    
C28   C34   1.406303 A    
C61   H7    1.083696 S    
C63   C87   1.397892 A    
N33   O43   1.301074 A    
C24   C30   1.388259 A    
C62   H8    1.083694 S    
C77   C95   1.421143 A    
C35   C41   1.415582 A    
C39   N33   1.435713 S    
C63   H9    1.083695 S    
N42   O62   1.299335 A    
C41   C47   1.411310 A    
O23   Cr5   1.956961 S    
C43   N25   1.436491 S    
N37   O51   1.299349 A    
O21   C9    1.254460 A    
N4    N10   1.330796 A    
O16   C11   1.255295 A    
C68   C92   1.415020 A    
C41   N35   1.435713 S    
N44   O66   1.300546 A    
C84   N48   1.437739 S    
C75   N39   1.431293 S    
C64   C88   1.397926 A    
N38   O54   1.299333 A    
C68   Cl2   1.763129 S    
N16   N22   1.328461 A    
C78   C84   1.406118 A    
C33   C57   1.469638 S    
C12   C93   1.489141 S    
N7    C55   1.358259 A    
C48   N30   1.436515 S    
N1    N7    1.330789 A    
C76   C82   1.406145 A    
N47   O71   1.301355 A    
C65   H11   1.083695 S    
N2    N8    1.330788 A    
O9    Cr3   1.970131 S    
C66   H12   1.083697 S    
O10   Cr4   1.970122 S    
C15   C45   1.415503 A    
O2    Cr2   2.075202 S    
N28   O33   1.301191 A    
C80   C86   1.406986 A    
O13   Cr1   2.087130 S    
O19   Cr1   1.957021 S    
C29   Cl11  1.763860 S    
C73   C79   1.406109 A    
C10   C92   1.489134 S    
C72   C96   1.415023 A    
C22   C28   1.388331 A    
C36   C60   1.469653 S    
O21   Cr3   1.956973 S    
N47   O72   1.300540 A    
C18   C48   1.415492 A    
N15   N21   1.328450 A    
C67   Cl1   1.763129 S    
C67   C91   1.415023 A    
C74   N38   1.431297 S    
N32   O41   1.301075 A    
C23   C29   1.388269 A    
C20   C26   1.388278 A    
N17   C59   1.354392 A    
O6    C4    1.248835 A    
C83   N47   1.437739 S    
N13   N19   1.328450 A    
O3    C1    1.248874 A    
C64   H10   1.083693 S    
N3    N9    1.330789 A    
C18   C24   1.402471 A    
C71   C95   1.415021 A    
C40   N34   1.435396 S    
N26   O30   1.301040 A    
N23   C53   1.357320 A    
C81   C87   1.406987 A    
C16   C22   1.402517 A    
C71   Cl5   1.763123 S    
N25   O28   1.301271 A    
C30   C36   1.406227 A    
N45   O67   1.301358 A    
C20   H2    1.082829 S    
C81   N45   1.437744 S    
C31   C55   1.469630 S    
C3    C13   1.479509 S    
N16   C58   1.354417 A    
O18   Cr6   2.087134 S    
C34   C58   1.469882 S    
O8    Cr2   1.970127 S    
N33   O44   1.301261 A    
N6    C54   1.355991 A    
C24   H6    1.082837 S    
O13   C8    1.255341 A    
N42   O61   1.300879 A    
N1    C49   1.355997 A    
C13   C19   1.402467 A    
N37   O52   1.300867 A    
C14   C20   1.402467 A    
C61   C85   1.397892 A    
C39   C45   1.411302 A    
N48   O74   1.300544 A    
N17   N23   1.328456 A    
C79   C85   1.406987 A    
O12   Cr6   1.970070 S    
N35   O47   1.301078 A    
C19   C25   1.388276 A    
C70   Cl4   1.763116 S    
N38   O53   1.300833 A    
C45   N27   1.436504 S    
N43   O64   1.300572 A    
C32   C38   1.415570 A    
N39   O55   1.300857 A    
O3    Cr3   2.075199 S    
C38   N32   1.435713 S    
O16   Cr4   2.087183 S    
C31   C37   1.415565 A    
C11   C91   1.489138 S    
O5    C6    1.248862 A    
N12   C60   1.358259 A    
N29   O36   1.301045 A    
N5    N11   1.330785 A    
C74   C92   1.421154 A    
C33   C39   1.415571 A    
N6    N12   1.330781 A    
C13   C43   1.415500 A    
C69   Cl3   1.763127 S    
C80   N44   1.437743 S    
C78   N42   1.431304 S    
Cr1   O25   1.968353 S    
N40   O58   1.300899 A    
C82   C88   1.407000 A    
O22   Cr4   1.956980 S    
O4    Cr4   2.075216 S    
C75   C81   1.406107 A    
C34   C40   1.415477 A    
C5    C18   1.479503 S    
C37   N31   1.435712 S    
O14   Cr2   2.087187 S    
N44   O65   1.301358 A    
C17   C23   1.402505 A    
N9    C57   1.358260 A    
N18   C60   1.354393 A    
O15   Cr3   2.087200 S    
N14   N20   1.328450 A    
C32   C56   1.469628 S    
C78   C96   1.421164 A    
O15   C7    1.255289 A    
N46   O70   1.300553 A    
C7    C95   1.489143 S    
O7    Cr1   1.970066 S    
C21   C27   1.388277 A    
C23   H5    1.082883 S    
C62   C68   1.393849 A    
N22   C52   1.357316 A    
O2    C3    1.248874 A    
C47   N29   1.436506 S    
C19   H1    1.082833 S    
C37   C43   1.411300 A    
C69   C93   1.415024 A    
N13   C55   1.354385 A    
C73   N37   1.431298 S    
O4    C5    1.248853 A    
C63   C69   1.393856 A    
C6    C16   1.479502 S    
N26   O29   1.301282 A    
C52   C88   1.468740 S    
N34   O46   1.301602 A    
C77   C83   1.406115 A    
N36   O50   1.301261 A    
N45   O68   1.300547 A    
C26   C32   1.406224 A    
C76   C94   1.421188 A    
Cr5   O26   1.968351 S    
C65   C89   1.397889 A    
C75   C93   1.421159 A    
C4    C17   1.479490 S    
O14   C9    1.255300 A    
C84   C90   1.406977 A    
C42   C48   1.411329 A    
C27   C33   1.406225 A    
N30   O37   1.301287 A    
C26   Cl8   1.763859 S    
N5    C53   1.355994 A    
C40   C46   1.411210 A    
O5    Cr5   2.075185 S    
N48   O73   1.301357 A    
O11   C5    1.252049 A    
C50   C86   1.468630 S    
O8    C2    1.252036 A    
N30   O38   1.301043 A    
N41   O59   1.300831 A    
C72   Cl6   1.763119 S    
N20   C50   1.357318 A    
O19   C7    1.254475 A    
C74   C80   1.406107 A    
C42   N36   1.435712 S    
C77   N41   1.431280 S    
C62   C86   1.397893 A    
C9    C96   1.489142 S    
C14   C44   1.415505 A    
C27   Cl9   1.763863 S    
Cr3   O25   1.968339 S    
C65   C71   1.393849 A    
C1    C14   1.479504 S    
O17   C12   1.255303 A    
C16   C46   1.415490 A    
N27   O32   1.301041 A    
C29   C35   1.406232 A    
O23   C11   1.254456 A    
N3    C51   1.355998 A    
O17   Cr5   2.087200 S    
O24   C12   1.254467 A    
C76   N40   1.431341 S    
O20   Cr2   1.956967 S    
C53   C89   1.468618 S    
C49   C85   1.468631 S    
N32   O42   1.301261 A    
C61   C67   1.393849 A    
Cr6   O26   1.968349 S    
Cr2   O25   1.968350 S    
C21   H3    1.082833 S    
O10   C4    1.252053 A    
C15   C21   1.402471 A    
N24   C54   1.357321 A    
C70   C94   1.415019 A    
N4    C52   1.356013 A    
N29   O35   1.301288 A    
N11   C59   1.358261 A    
N15   C57   1.354384 A    
C38   C44   1.411297 A    
C44   N26   1.436507 S    
N10   C58   1.358278 A    
N14   C56   1.354385 A    
N46   O69   1.301365 A    
N41   O60   1.299283 A    
C28   Cl10  1.763864 S    
C25   C31   1.406219 A    
C64   C70   1.393868 A    
N39   O56   1.299334 A    
C66   C90   1.397888 A    
C66   C72   1.393846 A    
N40   O57   1.299381 A    
N19   C49   1.357319 A    
N28   O34   1.301318 A    
C82   N46   1.437726 S    
C73   C91   1.421159 A    
C46   N28   1.436635 S    
N2    C50   1.355997 A    
O22   C10   1.254464 A    
N31   O39   1.301060 A    
C25   Cl7   1.763855 S    
C36   C42   1.415589 A    
Cr4   O26   1.968340 S    
C8    C94   1.489220 S    
N34   O45   1.301490 A    
N36   O49   1.301077 A    
O6    Cr6   2.075255 S    
O11   Cr5   1.970132 S    
O12   C6    1.252055 A    
N43   O63   1.301365 A    
N35   O48   1.301264 A    
N8    C56   1.358258 A    
O18   C10   1.255297 A    
O24   Cr6   1.957024 S    
C79   N43   1.437750 S    
O1    C2    1.248877 A    
C2    C15   1.479511 S    
C54   C90   1.468615 S    
C51   C87   1.468637 S    
N18   N24   1.328458 A    
C17   C47   1.415495 A    
O9    C3    1.252036 A    
C83   C89   1.406980 A    
O1    Cr1   2.075255 S    
N31   O40   1.301255 A    
