data_mof_unit_54982.cif
_audit_creation_date              2012-12-10T19:45:01-0500
_audit_creation_method            fapswitch 2.2
_symmetry_space_group_name_H-M    P1
_symmetry_Int_Tables_number       1
_space_group_crystal_system       triclinic
_cell_length_a                    15.019217
_cell_length_b                    10.857314
_cell_length_c                    13.683906
_cell_angle_alpha                 90.41771
_cell_angle_beta                  89.944136
_cell_angle_gamma                 89.466626
_cell_volume                      2231.25484449

loop_
_atom_site_label
_atom_site_type_symbol
_atom_type_description
_atom_site_fract_x
_atom_site_fract_y
_atom_site_fract_z
_atom_type_partial_charge
C1    C     C_R   0.498081 0.262096 0.499413 0.783132
C2    C     C_R   0.565068 0.882856 0.677177 0.098922
C3    C     C_R   0.477770 0.099386 0.235598 -0.172835
C4    C     C_R   0.521438 0.909191 0.765898 -0.179305
C5    C     C_R   0.444953 0.154204 0.150756 -0.199664
C6    C     C_R   0.550544 0.855179 0.852630 -0.201075
C7    C     C_R   0.368102 0.227509 0.154554 -0.112437
C8    C     C_R   0.622898 0.773539 0.851694 -0.105026
C9    C     C_R   0.475050 0.932557 0.418088 -0.233998
C10   C     C_R   0.527681 0.067512 0.581874 -0.243740
C11   C     C_R   0.504995 0.871681 0.501893 -0.081872
C12   C     C_R   0.502608 0.737859 0.500652 0.782527
C13   C     C_R   0.497121 0.128224 0.498293 -0.082280
C14   C     C_R   0.532286 0.939815 0.585212 0.016723
C15   C     C_R   0.469741 0.060064 0.415274 0.016857
C16   C     C_R   0.329028 0.501898 0.500091 0.796797
C17   C     C_R   0.671002 0.498840 0.499931 0.795023
C18   C     C_R   0.558469 0.425523 0.792782 0.037873
C19   C     C_R   0.441530 0.574475 0.207211 0.033199
C20   C     C_R   0.441540 0.574416 0.793744 0.034787
C21   C     C_R   0.558522 0.425687 0.206247 0.038973
C22   C     C_R   0.440110 0.576167 0.896850 -0.003413
C23   C     C_R   0.053094 0.279807 0.526185 0.487966
C24   C     C_R   0.559961 0.423954 0.103138 -0.004058
C25   C     C_R   0.499980 0.499963 0.948161 0.074043
C26   C     C_R   0.500053 0.500094 0.051826 0.075839
C27   C     C_R   0.559846 0.423730 0.895858 -0.004197
C28   C     C_R   0.440196 0.576337 0.104130 -0.006317
C29   C     C_R   0.380780 0.652360 0.949622 -0.212276
C30   C     C_R   0.619370 0.347874 0.050362 -0.212447
C31   C     C_R   0.380800 0.652415 0.052338 -0.204059
C32   C     C_R   0.619318 0.347768 0.947646 -0.203142
C33   C     C_R   0.811401 0.605807 0.490682 -0.261226
C34   C     C_R   0.946999 0.723344 0.490734 0.492926
C35   C     C_R   0.188790 0.395884 0.513913 -0.268409
C36   C     C_R   0.767207 0.495395 0.499940 -0.097174
C37   C     C_R   0.232875 0.505695 0.500615 -0.088216
C38   C     C_R   0.813629 0.383669 0.511199 0.125345
C39   C     C_R   0.186434 0.617629 0.490050 0.121745
C40   C     C_R   0.908327 0.383532 0.512446 0.028663
C41   C     C_R   0.091813 0.618516 0.493218 0.027194
C42   C     C_R   0.953128 0.498664 0.503879 -0.078270
C43   C     C_R   0.047049 0.503539 0.504124 -0.074346
C44   C     C_R   0.903864 0.609393 0.494679 -0.016239
C45   C     C_R   0.322439 0.244856 0.243027 0.222311
C46   C     C_R   0.096316 0.392861 0.514800 -0.017640
C47   C     C_R   0.960322 0.273871 0.522263 0.055397
C48   C     C_R   0.039794 0.728820 0.486911 0.043877
C49   C     C_3   0.113940 0.145472 0.634138 -0.329562
C50   C     C_3   0.881132 0.871692 0.584080 -0.323934
C51   C     C_R   0.667582 0.746482 0.764150 0.217171
C52   C     C_R   0.355131 0.188620 0.328284 -0.116099
C53   C     C_R   0.639548 0.803272 0.677114 -0.132262
C54   C     C_R   0.433682 0.117265 0.325188 0.094684
Cu1   Cu    Cu3+1 0.500010 0.499980 0.597420 0.940269
Cu2   Cu    Cu3+1 0.499990 0.500020 0.402580 0.946845
H1    H     H_    0.772500 0.689604 0.481727 0.174845
H2    H     H_    0.665748 0.288290 0.088513 0.140155
H3    H     H_    0.334391 0.711993 0.091246 0.140414
H4    H     H_    0.665762 0.288245 0.908736 0.138182
H5    H     H_    0.343984 0.270964 0.088571 0.137908
H6    H     H_    0.643718 0.730166 0.919034 0.141934
H7    H     H_    0.320411 0.201323 0.397062 0.106906
H8    H     H_    0.674064 0.783636 0.609201 0.099470
H9    H     H_    0.538103 0.044126 0.231755 0.137081
H10   H     H_    0.464193 0.970593 0.767674 0.133804
H11   H     H_    0.479666 0.140897 0.082073 0.149415
H12   H     H_    0.227808 0.312099 0.522322 0.170083
H13   H     H_    0.516137 0.875257 0.920526 0.148838
H14   H     H_    0.723202 0.279447 0.582960 0.216552
H15   H     H_    0.723419 0.261038 0.459490 0.217178
H16   H     H_    0.278423 0.740861 0.536631 0.210487
H17   H     H_    0.274797 0.719701 0.413527 0.221795
H18   H     H_    0.883543 0.148770 0.591707 0.222789
H19   H     H_    0.885422 0.135071 0.465522 0.272355
H20   H     H_    0.117785 0.867512 0.538505 0.244107
H21   H     H_    0.113279 0.854514 0.412576 0.258352
H22   H     H_    0.049333 0.125690 0.670321 0.168256
H23   H     H_    0.452574 0.880427 0.354971 0.155004
H24   H     H_    0.148331 0.221837 0.673054 0.150327
H25   H     H_    0.156592 0.061990 0.640561 0.180941
H26   H     H_    0.941747 0.914003 0.615957 0.194083
H27   H     H_    0.857697 0.796446 0.632206 0.126459
H28   H     H_    0.827267 0.942155 0.582804 0.188182
H29   H     H_    0.195592 0.277037 0.202550 0.209947
H30   H     H_    0.218210 0.326089 0.316057 0.229157
H31   H     H_    0.793223 0.700554 0.800779 0.198597
H32   H     H_    0.760703 0.639615 0.693512 0.220521
H33   H     H_    0.550048 0.119969 0.644863 0.153234
H34   H     H_    0.604022 0.367440 0.751416 0.121313
H35   H     H_    0.395984 0.632572 0.248574 0.122694
H36   H     H_    0.396308 0.632946 0.753132 0.126860
H37   H     H_    0.603800 0.367219 0.246854 0.128206
H38   H     H_    0.334460 0.712031 0.911471 0.136482
N1    N     N_R   0.499960 0.499900 0.743810 -0.183725
N2    N     N_R   0.500040 0.500100 0.256190 -0.184417
N3    N     N_3   0.763842 0.272137 0.521059 -0.638417
N4    N     N_3   0.236079 0.728669 0.476776 -0.635517
N5    N     N_3   0.922370 0.153709 0.528501 -0.524767
N6    N     N_3   0.077598 0.849068 0.477962 -0.500066
N7    N     N_3   0.243804 0.320827 0.245115 -0.588470
N8    N     N_3   0.739785 0.659178 0.764804 -0.596275
O1    O     O_R   0.500000 0.319630 0.582270 -0.593410
O2    O     O_3   0.897732 0.831650 0.487310 -0.551700
O3    O     O_R   0.500000 0.680370 0.417730 -0.591747
O4    O     O_R   0.499990 0.319660 0.417730 -0.575372
O5    O     O_R   0.500010 0.680340 0.582270 -0.575736
O6    O     O_R   0.370260 0.499960 0.582280 -0.585934
O7    O     O_R   0.629740 0.500040 0.417720 -0.579702
O8    O     O_R   0.370250 0.499990 0.417740 -0.574969
O9    O     O_R   0.629750 0.500010 0.582260 -0.580656
O10   O     O_3   0.102118 0.171577 0.534109 -0.555600

loop_
_geom_bond_atom_site_label_1
_geom_bond_atom_site_label_2
_ccdc_geom_bond_type
C6    H13   S    
C38   C40   A    
Cu1   Cu2   S    
C50   O2    S    
C22   C29   A    
C40   C47   A    
C5    H11   S    
C16   O8    A    
C39   C41   A    
H16   N4    S    
C51   N8    S    
C23   O10   S    
H15   N3    S    
C7    C45   A    
C35   C37   A    
C24   C26   A    
C12   O3    A    
C53   H8    S    
C31   H3    S    
Cu1   O1    S    
C33   C36   A    
C47   N5    S    
C49   H22   S    
H21   N6    S    
C9    H23   S    
C49   H25   S    
C7    H5    S    
C10   H33   S    
C22   C25   A    
C17   C36   S    
C1    O1    A    
H14   N3    S    
C16   C37   S    
C40   C42   A    
C23   C46   A    
C18   N1    A    
C41   C43   A    
C3    H9    S    
C42   C44   A    
C38   N3    S    
C17   O9    A    
Cu2   O8    S    
C52   C54   A    
C50   H27   S    
H17   N4    S    
C48   N6    S    
C23   C47   A    
C50   H28   S    
C18   H34   S    
C15   C54   S    
H20   N6    S    
C34   C44   A    
Cu1   N1    S    
C10   C14   A    
C5    C7    A    
C39   N4    S    
C6    C8    A    
C45   C52   A    
C25   C26   A    
C52   H7    S    
C34   O2    S    
Cu1   O5    S    
C51   C53   A    
C2    C4    A    
H31   N8    S    
C20   H36   S    
H19   N5    S    
C19   C28   A    
C9    C11   A    
C8    C51   A    
Cu2   O4    S    
C45   N7    S    
C3    C54   A    
C49   O10   S    
C4    C6    A    
C20   N1    A    
C20   C22   A    
C13   C15   A    
C1    C13   S    
C42   C43   A    
C32   H4    S    
Cu2   O7    S    
H29   N7    S    
C50   H26   S    
Cu2   N2    S    
C33   H1    S    
Cu1   O9    S    
C27   C32   A    
C33   C44   A    
C28   C31   A    
C18   C27   A    
C2    C53   A    
C3    C5    A    
C10   C13   A    
C17   O7    A    
C12   O5    A    
H32   N8    S    
C11   C12   S    
H18   N5    S    
C21   N2    A    
C25   C27   A    
C1    O4    A    
C26   C28   A    
C49   H24   S    
Cu1   O6    S    
C36   C38   A    
C9    C15   A    
C37   C39   A    
C30   C32   A    
H30   N7    S    
C29   H38   S    
C21   H37   S    
C35   H12   S    
C30   H2    S    
C11   C14   A    
C41   C48   A    
C2    C14   S    
C43   C46   A    
C24   C30   A    
Cu2   O3    S    
C19   H35   S    
C16   O6    A    
C34   C48   A    
C4    H10   S    
C29   C31   A    
C21   C24   A    
C35   C46   A    
C19   N2    A    
C8    H6    S    
