data_mof_unit_23170.cif
_audit_creation_date              2012-12-10T20:34:50-0500
_audit_creation_method            fapswitch 2.2
_symmetry_space_group_name_H-M    P1
_symmetry_Int_Tables_number       1
_space_group_crystal_system       triclinic
_cell_length_a                    10.694203
_cell_length_b                    10.769289
_cell_length_c                    9.901523
_cell_angle_alpha                 90.840413
_cell_angle_beta                  90.422078
_cell_angle_gamma                 92.239198
_cell_volume                      1139.31883508

loop_
_atom_site_label
_atom_site_type_symbol
_atom_type_description
_atom_site_fract_x
_atom_site_fract_y
_atom_site_fract_z
_atom_type_partial_charge
C1    C     C_R   0.495075 0.259931 0.498454 0.902666
C2    C     C_3   0.877825 0.486421 0.500441 -0.049680
C3    C     C_3   0.936486 0.617452 0.464159 -0.283272
C4    C     C_3   0.920296 0.392906 0.387845 0.174464
C5    C     C_R   0.439834 0.063463 0.608776 0.009155
C6    C     C_R   0.476748 0.127458 0.492492 -0.095082
C7    C     C_R   0.494839 0.059315 0.370475 -0.007853
C8    C     C_R   0.499280 0.931623 0.375516 -0.223120
C9    C     C_R   0.488886 0.871181 0.499262 -0.070201
C10   C     C_R   0.452555 0.937392 0.613239 -0.017023
C11   C     C_3   0.495696 0.941559 0.757687 0.297631
C12   C     C_R   0.258184 0.490044 0.499184 0.844137
C13   C     C_3   0.474925 0.081462 0.755308 -0.278819
C14   C     C_R   0.409110 0.435072 0.069687 0.231624
C15   C     C_R   0.595282 0.555040 0.074728 -0.163340
C16   C     C_R   0.595617 0.555416 0.931760 0.424555
C17   C     C_R   0.408670 0.435665 0.927282 0.160513
C18   C     C_3   0.272693 0.460313 0.924340 -0.493442
C19   C     C_3   0.273268 0.457122 0.076520 -0.486515
C20   C     C_R   0.500150 0.739886 0.500794 0.912355
C21   C     C_R   0.741499 0.493725 0.500147 0.915204
C22   C     C_3   0.070431 0.428704 0.633592 -0.231904
C23   C     C_3   0.928444 0.447230 0.642444 -0.202564
C24   C     C_3   0.079129 0.617491 0.483577 -0.473635
C25   C     C_3   0.065386 0.403963 0.374765 -0.231267
C26   C     C_3   0.121290 0.482308 0.497632 0.016011
H1    H     H_    0.112442 0.483854 0.718555 0.144098
H2    H     H_    0.880921 0.420486 0.288768 0.134440
H3    H     H_    0.124557 0.663140 0.395254 0.186902
H4    H     H_    0.916169 0.635527 0.355861 0.156794
H5    H     H_    0.518846 0.880608 0.283192 0.181924
H6    H     H_    0.561070 0.141065 0.771402 0.219149
H7    H     H_    0.670642 0.602073 0.131138 0.180815
H8    H     H_    0.253422 0.553563 0.884248 0.223257
H9    H     H_    0.216676 0.381419 0.879697 0.215213
H10   H     H_    0.252618 0.547917 0.124613 0.221176
H11   H     H_    0.220010 0.375142 0.115745 0.207839
H12   H     H_    0.915639 0.526679 0.713229 0.191209
H13   H     H_    0.110063 0.672496 0.575099 0.194854
H14   H     H_    0.085611 0.457613 0.281857 0.119905
N1    N     N_R   0.499150 0.499140 0.142800 -0.137325
N2    N     N_R   0.499150 0.499180 0.857150 -0.150370
O1    O     O_R   0.500020 0.316790 0.614690 -0.627122
O2    O     O_R   0.500000 0.316760 0.385350 -0.612327
O3    O     O_R   0.314800 0.500000 0.614670 -0.635953
O4    O     O_R   0.314790 0.499960 0.385330 -0.634242
O5    O     O_R   0.500000 0.683240 0.614650 -0.570550
O6    O     O_R   0.499980 0.683210 0.385310 -0.632777
O7    O     O_R   0.685210 0.500040 0.614670 -0.574390
O8    O     O_R   0.685200 0.500000 0.385330 -0.635816
Zn1   Zn    Zn3+2 0.500010 0.500020 0.653130 1.014691
Zn2   Zn    Zn3+2 0.499990 0.499980 0.346870 0.970900
C27   C     C_1   0.520061 0.114608 0.240486 0.293829
N3    N     N_1   0.540475 0.158189 0.136380 -0.178929
C28   C     C_1   0.414578 0.864599 0.845875 0.239037
N4    N     N_1   0.351209 0.804162 0.915152 -0.217271
Cl1   Cl    Cl    0.657030 0.914548 0.781718 -0.514565
C29   C     C_1   0.369995 0.121415 0.838944 0.212417
N5    N     N_1   0.288194 0.150609 0.906665 -0.187065
C30   C     C_1   0.105809 0.297920 0.651321 0.227499
N6    N     N_1   0.132249 0.195594 0.664147 -0.153924
Cl2   Cl    Cl    0.721241 0.634490 0.855930 -0.573547
C31   C     C_1   0.858514 0.340747 0.704672 0.332944
N7    N     N_1   0.804097 0.258181 0.753480 -0.132460
C32   C     C_1   0.886154 0.722381 0.540659 0.254385
N8    N     N_1   0.848320 0.806196 0.599373 -0.039406
C33   C     C_1   0.124443 0.283261 0.353136 0.278615
N9    N     N_1   0.171037 0.189187 0.335732 -0.175404
Cl3   Cl    Cl    0.856865 0.237019 0.411214 -0.599043

loop_
_geom_bond_atom_site_label_1
_geom_bond_atom_site_label_2
_ccdc_geom_bond_type
C8    C9    A    
C3    H4    S    
C2    C4    S    
C28   N4    T    
C6    C7    A    
O4    Zn2   S    
C23   H12   S    
C18   H8    S    
C18   H9    S    
C1    C6    S    
C13   H6    S    
O8    Zn2   S    
C25   C33   S    
N1    Zn2   S    
N2    Zn1   S    
C22   H1    S    
C1    O2    A    
O2    Zn2   S    
C2    C21   S    
C21   O7    A    
C4    C25   S    
C29   N5    T    
C5    C10   A    
C20   O6    A    
C27   N3    T    
C33   N9    T    
C11   C13   S    
C14   C17   A    
O1    Zn1   S    
C3    C24   S    
C3    C32   S    
C1    O1    A    
C16   Cl2   S    
C30   N6    T    
C14   N1    A    
C9    C10   A    
C23   C31   S    
C4    Cl3   S    
C4    H2    S    
C24   C26   S    
C17   C18   S    
C2    C3    S    
C19   H10   S    
C25   H14   S    
C22   C30   S    
C5    C6    A    
C9    C20   S    
C20   O5    A    
C7    C8    A    
C10   C11   S    
O3    Zn1   S    
C15   C16   A    
C16   N2    A    
O6    Zn2   S    
C24   H13   S    
C11   C28   S    
C15   N1    A    
C12   O4    A    
C32   N8    T    
C22   C26   S    
C17   N2    A    
C2    C23   S    
C18   C19   S    
C7    C27   S    
C24   H3    S    
C21   O8    A    
O5    Zn1   S    
C13   C29   S    
C19   H11   S    
C25   C26   S    
C22   C23   S    
C8    H5    S    
C5    C13   S    
C14   C19   S    
C15   H7    S    
C11   Cl1   S    
C31   N7    T    
C12   C26   S    
C12   O3    A    
O7    Zn1   S    
