data_mof_unit_53543.cif
_audit_creation_date              2013-03-05T15:45:32-0500
_audit_creation_method            fapswitch 2.2
_symmetry_space_group_name_H-M    P1
_symmetry_Int_Tables_number       1
_space_group_crystal_system       triclinic
_cell_length_a                    8.387767
_cell_length_b                    14.649755
_cell_length_c                    19.156399
_cell_angle_alpha                 93.697001
_cell_angle_beta                  94.988103
_cell_angle_gamma                 90.740023
_cell_volume                      2339.7130641

loop_
_atom_site_label
_atom_site_type_symbol
_atom_site_description
_atom_site_fract_x
_atom_site_fract_y
_atom_site_fract_z
_atom_type_partial_charge
P1    P     P_3+3 0.937730 0.712710 0.546710 0.408342
O1    O     O_2   0.108370 0.727470 0.525290 -0.375090
O2    O     O_3   0.865330 0.611210 0.531230 -0.422099
O3    O     O_3   0.346360 0.671710 0.401620 -0.383300
O4    O     O_2   0.233427 0.829054 0.447764 -0.349135
O5    O     O_3   0.987482 0.721406 0.638424 -0.602316
O6    O     O_3   0.299776 0.819398 0.318528 -0.451984
H1    H     H_    0.412088 0.706903 0.274011 0.063791
C1    C     C_3   0.347801 0.804083 0.197753 -0.893874
H2    H     H_    0.231710 0.768258 0.181459 0.271463
H3    H     H_    0.332312 0.878973 0.194876 0.288953
P2    P     P_3+3 0.357970 0.428340 0.344000 0.494786
P3    P     P_3+3 0.895405 0.624065 0.277744 0.455162
O7    O     O_2   0.182890 0.456530 0.332150 -0.392075
O8    O     O_3   0.933230 0.625130 0.368420 -0.388594
O9    O     O_2   0.024384 0.563819 0.245585 -0.363469
O10   O     O_3   0.348243 0.309675 0.327488 -0.506423
O11   O     O_3   0.932283 0.734391 0.252047 -0.519691
C2    C     C_3   0.898620 0.797786 0.306916 0.450337
H4    H     H_    0.991611 0.795300 0.351601 0.171932
H5    H     H_    0.779720 0.783880 0.325755 -0.013473
C3    C     C_3   0.899098 0.893774 0.281070 -0.826800
H6    H     H_    0.017159 0.909919 0.262245 0.287449
H7    H     H_    0.804049 0.898972 0.237451 0.252604
C4    C     C_3   0.756386 0.313098 0.322569 0.979591
H8    H     H_    0.664646 0.347248 0.352702 -0.004379
C5    C     C_3   0.862762 0.382857 0.293339 -0.916380
H9    H     H_    0.800709 0.413273 0.247355 0.234843
H10   H     H_    0.896091 0.437326 0.334966 0.255262
H11   H     H_    0.971006 0.349541 0.274984 0.269431
Ba1   Ba    Ba6+2 0.150350 0.545800 0.464500 1.538570
C6    C     C_3   0.853091 0.706279 0.675401 0.352060
H12   H     H_    0.863370 0.638645 0.697095 0.119212
H13   H     H_    0.739460 0.708913 0.642222 0.128713
C7    C     C_3   0.851898 0.774280 0.739128 -0.933353
H14   H     H_    0.972601 0.779737 0.768116 0.264385
H15   H     H_    0.765342 0.750252 0.774979 0.258473
H16   H     H_    0.814121 0.842794 0.723626 0.251552
C8    C     C_3   0.248888 0.270092 0.372621 0.391212
H17   H     H_    0.148694 0.314088 0.385955 0.106112
H18   H     H_    0.320853 0.257025 0.421965 0.087888
C9    C     C_3   0.178190 0.181164 0.336357 -0.693708
H19   H     H_    0.091589 0.196282 0.291663 0.257418
H20   H     H_    0.116350 0.141581 0.373701 0.205168
H21   H     H_    0.272886 0.138651 0.315013 0.326809
P4    P     P_3+3 0.872570 0.287280 0.453240 0.438368
O12   O     O_2   0.701930 0.272470 0.474700 -0.332559
O13   O     O_3   0.944970 0.388780 0.468720 -0.455693
O14   O     O_3   0.463940 0.328280 0.598320 -0.366885
O15   O     O_3   0.852796 0.255395 0.362814 -0.621837
P5    P     P_3+3 0.903622 0.384484 0.725551 0.490380
O16   O     O_3   0.372010 0.546630 0.581240 -0.431880
O17   O     O_3   0.877070 0.374860 0.631520 -0.433536
O18   O     O_2   0.762571 0.439803 0.751659 -0.300302
O19   O     O_3   0.878815 0.276755 0.757779 -0.462847
Ba2   Ba    Ba6+2 0.659830 0.454190 0.535450 1.550354
P6    P     P_3+3 0.365338 0.790528 0.403312 0.518150
C10   C     C_3   0.406077 0.782493 0.272074 0.469890
H22   H     H_    0.526908 0.813979 0.284595 0.052165
H23   H     H_    0.437245 0.781179 0.161371 0.195266
O20   O     O_3   0.438280 0.453360 0.418700 -0.398977
C11   C     C_3   0.422237 0.739543 0.626259 0.425187
H24   H     H_    0.463965 0.707243 0.577085 0.105801
H25   H     H_    0.291201 0.737355 0.624418 0.146860
C12   C     C_3   0.480480 0.838926 0.632697 -1.071443
H26   H     H_    0.610633 0.843648 0.627382 0.242800
H27   H     H_    0.419519 0.876796 0.590040 0.239596
H28   H     H_    0.456211 0.871358 0.684486 0.294990
P7    P     P_3+3 0.450741 0.577380 0.669737 0.412991
O21   O     O_2   0.627420 0.543410 0.667830 -0.362761
O22   O     O_3   0.479591 0.695702 0.685868 -0.582505
H29   H     H_    0.876208 0.944396 0.324538 0.227758
C13   C     C_3   0.872968 0.210507 0.701365 0.525562
H30   H     H_    0.779571 0.226692 0.660183 0.183131
H31   H     H_    0.989876 0.206706 0.678474 -0.052610
C14   C     C_3   0.829754 0.117982 0.726645 -0.835235
H32   H     H_    0.811710 0.066437 0.681447 0.204387
H33   H     H_    0.924150 0.096509 0.766085 0.271650
H34   H     H_    0.716784 0.121756 0.751492 0.330846
P8    P     P_3+3 0.442767 0.210824 0.606269 0.447010
C15   C     C_3   0.338805 0.210252 0.729626 0.072975
H35   H     H_    0.243895 0.160481 0.708540 0.029333
O23   O     O_2   0.583588 0.165839 0.570561 -0.405327
O24   O     O_3   0.479664 0.192105 0.696411 -0.507787
H36   H     H_    0.297251 0.280027 0.719152 0.056963
H37   H     H_    0.248544 0.232670 0.830352 -0.025317
C16   C     C_3   0.359710 0.204492 0.810464 0.657711
C17   C     C_R   0.997922 0.950921 0.549477 0.173488
C18   C     C_R   0.817404 0.811055 0.507134 0.200434
C19   C     C_R   0.670699 0.781970 0.472131 -0.509567
C20   C     C_R   0.564124 0.841270 0.439265 0.069015
C21   C     C_R   0.608398 0.934687 0.435159 0.360167
C22   C     C_R   0.761791 0.967882 0.466941 -0.126407
C23   C     C_R   0.862004 0.908614 0.508037 -0.098992
H38   H     H_    0.635742 0.710565 0.472038 0.183892
C24   C     C_R   0.951059 0.100232 0.498602 -0.094030
C25   C     C_R   0.051941 0.041271 0.537371 0.135935
C26   C     C_R   0.993284 0.196870 0.499275 0.250991
C27   C     C_R   0.141343 0.226777 0.532390 -0.509865
C28   C     C_R   0.248063 0.166511 0.563806 0.205386
C29   C     C_R   0.205819 0.074239 0.564131 -0.278967
C30   C     C_R   0.814280 0.060322 0.460483 -0.051745
H39   H     H_    0.293780 0.028516 0.586163 0.163694
H40   H     H_    0.177907 0.297357 0.530110 0.156813
H41   H     H_    0.756671 0.101190 0.421897 0.239000
C31   C     C_R   0.603027 0.540214 0.300375 -0.514526
C32   C     C_R   0.458801 0.493164 0.279454 0.346367
C33   C     C_R   0.396249 0.492373 0.208833 -0.160651
C34   C     C_R   0.479339 0.536527 0.158874 0.043773
C35   C     C_R   0.628763 0.578795 0.180642 -0.270507
C36   C     C_R   0.691264 0.579655 0.250754 0.233024
C37   C     C_R   0.431617 0.612139 0.044185 -0.198020
C38   C     C_R   0.374075 0.611382 0.972569 0.192990
C39   C     C_R   0.310985 0.528256 0.937809 0.072575
C40   C     C_R   0.288803 0.453125 0.978579 -0.083609
C41   C     C_R   0.339753 0.456390 0.050014 -0.108806
C42   C     C_R   0.415337 0.535118 0.083503 0.102825
C43   C     C_R   0.128366 0.466349 0.834287 -0.291619
C44   C     C_R   0.097850 0.441000 0.762862 0.190062
C45   C     C_R   0.344545 0.520522 0.738827 0.296872
C46   C     C_R   0.377644 0.542935 0.811247 -0.212697
C47   C     C_R   0.270940 0.514584 0.859973 0.060635
C48   C     C_R   0.212631 0.462610 0.717367 -0.150919
H42   H     H_    0.485416 0.582019 0.829305 0.141273
H43   H     H_    0.486842 0.674045 0.069718 0.130381
H44   H     H_    0.283265 0.457261 0.193065 0.150872
H45   H     H_    0.235682 0.389728 0.954528 0.169539
H46   H     H_    0.325420 0.395629 0.078349 0.166200
H47   H     H_    0.041351 0.448166 0.869856 0.171443
H48   H     H_    0.698983 0.608779 0.142844 0.155655
H49   H     H_    0.652226 0.540647 0.354520 0.174553
S1    S     S_3+6 0.520296 0.274382 0.853595 0.041301
O25   O     O_2   0.483569 0.299706 0.927610 -0.304365
O26   O     O_2   0.535543 0.360190 0.816045 -0.255853
O27   O     O_3   0.694832 0.219331 0.856735 -0.447606
H50   H     H_    0.699926 0.186443 0.900431 0.389269
S2    S     S_3+6 0.372104 0.090053 0.838885 -0.005105
O28   O     O_2   0.421810 0.094008 0.916342 -0.206742
O29   O     O_2   0.210073 0.044443 0.826916 -0.334910
O30   O     O_3   0.505390 0.027205 0.797118 -0.508815
H51   H     H_    0.473495 0.030922 0.746511 0.331639
S3    S     S_3+6 0.473807 0.007998 0.388079 -0.044977
O31   O     O_2   0.509476 0.000128 0.312512 -0.253561
O32   O     O_2   0.300850 0.982835 0.391592 -0.283605
O33   O     O_3   0.492859 0.117645 0.418401 -0.526400
H52   H     H_    0.424643 0.121978 0.457805 0.352505
C49   C     C_3   0.055092 0.908389 0.616832 -0.360870
C50   C     C_3   0.114242 0.970072 0.681284 -0.862072
H53   H     H_    0.073695 0.040561 0.676930 0.254332
H54   H     H_    0.069923 0.943069 0.729103 0.301090
H55   H     H_    0.246270 0.971009 0.688570 0.259572
H56   H     H_    0.947665 0.875605 0.633464 0.223435
H57   H     H_    0.148454 0.859276 0.606210 0.245676
C51   C     C_3   0.375775 0.700957 0.936908 -0.427452
C52   C     C_3   0.273370 0.772797 0.972328 -0.751502
H58   H     H_    0.149148 0.746048 0.973535 0.249192
H59   H     H_    0.324195 0.792482 0.026718 0.250738
H60   H     H_    0.269469 0.835167 0.942227 0.282513
H61   H     H_    0.500996 0.727185 0.938349 0.213871
H62   H     H_    0.326963 0.692967 0.881299 0.205995
C53   C     C_3   0.174959 0.436202 0.643003 -0.425837
C54   C     C_3   0.066176 0.509555 0.613700 -0.444201
H63   H     H_    0.966651 0.525086 0.645769 0.198074
H64   H     H_    0.126094 0.576271 0.612105 0.227024
H65   H     H_    0.013477 0.483955 0.562779 0.294970
H66   H     H_    0.276442 0.425123 0.614724 0.254576
H67   H     H_    0.134371 0.364389 0.636389 0.159370
S4    S     S_3+6 0.659812 0.244335 0.250139 0.010726
O34   O     O_2   0.556845 0.172713 0.277251 -0.197046
O35   O     O_2   0.557703 0.302459 0.203008 -0.325488
O36   O     O_3   0.799419 0.193126 0.204128 -0.523647
H68   H     H_    0.738330 0.152455 0.167695 0.389262

loop_
_geom_bond_atom_site_label_1
_geom_bond_atom_site_label_2
_geom_bond_distance
_ccdc_geom_bond_type
O5    C6    1.405057 S    
O36   H68   0.990428 S    
C22   C23   1.439488 A    
P2    O20   1.547317 S    
C24   C30   1.404718 A    
C5    H10   1.106424 S    
C13   H30   1.101694 S    
Ba1   O20   2.955685 S    
C2    H4    1.109550 S    
C14   H34   1.097211 S    
Ba1   O16   2.780446 S    
P8    O24   1.767248 S    
O33   H52   0.985428 S    
C34   C42   1.494770 S    
O27   H50   0.990425 S    
C8    H18   1.105257 S    
C41   C42   1.399531 A    
S2    O29   1.499577 D    
C54   H63   1.096412 S    
P3    O11   1.751115 S    
C7    H15   1.110835 S    
C14   H33   1.108936 S    
C1    C10   1.518886 S    
O10   C8    1.398489 S    
C37   C42   1.408046 A    
C48   C53   1.458201 S    
C52   H59   1.109656 S    
C31   C32   1.399174 A    
C40   C41   1.395295 A    
P1    Ba1   3.426967 S    
C40   H45   1.082509 S    
C33   C34   1.415704 A    
C30   H41   1.068057 S    
P1    O1    1.539250 D    
C43   C47   1.415114 A    
C18   C23   1.471314 A    
P7    O22   1.750931 S    
C43   C44   1.395230 A    
C21   C22   1.439442 A    
C46   H42   1.082290 S    
C11   H25   1.096583 S    
O16   P7    1.792247 S    
H1    C10   1.112021 S    
C4    O15   1.398637 S    
S4    O36   1.681604 S    
C49   C50   1.524854 S    
S1    O25   1.501324 D    
C12   H27   1.109095 S    
C24   C26   1.453887 A    
P2    O10   1.746344 S    
P5    C44   1.880637 S    
C32   C33   1.407131 A    
C50   H55   1.103866 S    
Ba1   Ba2   4.652039 S    
C21   S3    1.794562 S    
C1    H2    1.110797 S    
O7    Ba1   2.813316 S    
O6    C10   1.402714 S    
P5    O19   1.747766 S    
C17   C25   1.432971 A    
C45   C48   1.401681 A    
S4    O35   1.502418 D    
C27   H40   1.079367 S    
P4    C26   1.893977 S    
C29   H39   1.079914 S    
P8    C28   1.850331 S    
C52   H60   1.110787 S    
C13   H31   1.109045 S    
S3    O33   1.673331 S    
C9    H20   1.107837 S    
C16   S2    1.797283 S    
P8    O23   1.549141 D    
C3    H29   1.109983 S    
C37   C38   1.413492 A    
C15   H35   1.104374 S    
C8    C9    1.524191 S    
C54   H64   1.096630 S    
C31   C36   1.402613 A    
C3    H6    1.110705 S    
C4    S4    1.788670 S    
C31   H49   1.082030 S    
S2    O30   1.680731 S    
P4    O13   1.598825 S    
P1    O5    1.766175 S    
C6    C7    1.525898 S    
C19   H38   1.082578 S    
C2    C3    1.520713 S    
O30   H51   0.988147 S    
C39   C40   1.409566 A    
C20   C21   1.422261 A    
C5    H11   1.109511 S    
H37   C16   1.111946 S    
O11   C2    1.406960 S    
C10   H22   1.108545 S    
C35   C36   1.397891 A    
O1    Ba1   2.873864 S    
P1    O2    1.598823 S    
C9    H21   1.105612 S    
C6    H13   1.101202 S    
C16   S1    1.790821 S    
O3    P6    1.743822 S    
C51   H62   1.105875 S    
C11   H24   1.112589 S    
C54   H65   1.077549 S    
O2    Ba2   2.866152 S    
C27   C28   1.392197 A    
C12   H28   1.108273 S    
C24   C25   1.416322 A    
C7    H16   1.107392 S    
C51   C52   1.529196 S    
C53   H67   1.097641 S    
C50   H53   1.097376 S    
O2    Ba1   2.949626 S    
C1    H3    1.110773 S    
C46   C47   1.424957 A    
C15   C16   1.551114 S    
S4    O34   1.497138 D    
P2    O7    1.532464 D    
C12   H26   1.106896 S    
Ba2   O21   2.813328 S    
Ba1   O13   2.865553 S    
P3    O8    1.737442 S    
P2    Ba1   3.403881 S    
C13   C14   1.518461 S    
S3    O32   1.500468 D    
C9    H19   1.109145 S    
C8    H17   1.103193 S    
C15   O24   1.410126 S    
C45   C46   1.407623 A    
C38   C39   1.422636 A    
O17   Ba2   2.793773 S    
O13   Ba2   2.950483 S    
P4    O12   1.539630 D    
P1    C18   1.927291 S    
P6    C20   1.873320 S    
C11   C12   1.523689 S    
C2    H5    1.110486 S    
S3    O31   1.501002 D    
C38   C51   1.518460 S    
C53   H66   1.056788 S    
C50   H54   1.111730 S    
C22   C30   1.434826 A    
P2    C32   1.859709 S    
O8    Ba1   2.793287 S    
C44   C48   1.400100 A    
C4    C5    1.513659 S    
O14   Ba2   2.846908 S    
S2    O28   1.503181 D    
P4    O15   1.757843 S    
P7    C45   1.888649 S    
O14   P8    1.745317 S    
O4    P6    1.544627 D    
O19   C13   1.402312 S    
C1    H23   1.108343 S    
C33   H44   1.082369 S    
C6    H12   1.100439 S    
P5    O18   1.543377 D    
C49   H56   1.096615 S    
C4    H8    1.107042 S    
C51   H61   1.111184 S    
P3    C36   1.842935 S    
C43   H47   1.082948 S    
C53   C54   1.522002 S    
C34   C35   1.408519 A    
C14   H32   1.110280 S    
C19   C20   1.393876 A    
S1    O27   1.678892 S    
C28   C29   1.393536 A    
C17   C49   1.512215 S    
C11   O22   1.398179 S    
C35   H48   1.082879 S    
C3    H7    1.110635 S    
P7    O21   1.572025 D    
C49   H57   1.093475 S    
C25   C29   1.413799 A    
O3    Ba1   2.847618 S    
P5    O17   1.791883 S    
C39   C47   1.499612 S    
S1    O26   1.497469 D    
C26   C27   1.396337 A    
C41   H46   1.082731 S    
P3    O9    1.548975 D    
P4    Ba2   3.427538 S    
C52   H58   1.111112 S    
C17   C23   1.440460 A    
Ba2   O20   2.780036 S    
C7    H14   1.110939 S    
C37   H43   1.081128 S    
C18   C19   1.396964 A    
O6    P6    1.748851 S    
C15   H36   1.109091 S    
O16   Ba2   2.954839 S    
O12   Ba2   2.874418 S    
C5    H9    1.105582 S    
