data_mof_unit_39822.cif
_audit_creation_date              2013-03-05T16:15:20-0500
_audit_creation_method            fapswitch 2.2
_symmetry_space_group_name_H-M    P1
_symmetry_Int_Tables_number       1
_space_group_crystal_system       triclinic
_cell_length_a                    8.274475
_cell_length_b                    17.307348
_cell_length_c                    18.739798
_cell_angle_alpha                 102.798046
_cell_angle_beta                  91.895473
_cell_angle_gamma                 98.56309
_cell_volume                      2581.78701435

loop_
_atom_site_label
_atom_site_type_symbol
_atom_site_description
_atom_site_fract_x
_atom_site_fract_y
_atom_site_fract_z
_atom_type_partial_charge
P1    P     P_3+3 0.038810 0.422920 0.331160 0.471255
O1    O     O_2   0.871520 0.445720 0.321500 -0.403527
O2    O     O_3   0.121030 0.451930 0.411150 -0.365868
O3    O     O_3   0.662190 0.593100 0.375060 -0.391924
O4    O     O_2   0.756284 0.527730 0.245227 -0.395466
O5    O     O_3   0.029536 0.318161 0.309220 -0.586850
O6    O     O_3   0.719462 0.676088 0.261304 -0.484512
H1    H     H_    0.673938 0.744804 0.360960 0.104411
C1    C     C_3   0.693079 0.814332 0.279370 -0.757482
H2    H     H_    0.826239 0.834737 0.293404 0.291839
H3    H     H_    0.666791 0.806457 0.219456 0.271134
P2    P     P_3+3 0.678260 0.686080 0.568600 0.552353
P3    P     P_3+3 0.147222 0.736676 0.415858 0.547478
O7    O     O_2   0.853880 0.696450 0.547730 -0.320228
O8    O     O_3   0.085100 0.636210 0.413950 -0.345590
O9    O     O_2   0.060457 0.786497 0.477817 -0.314448
O10   O     O_3   0.698404 0.711453 0.664419 -0.478581
O11   O     O_3   0.066513 0.751117 0.333092 -0.511232
C2    C     C_3   0.119416 0.695715 0.274456 0.311231
H4    H     H_    0.018874 0.644734 0.253792 0.162687
H5    H     H_    0.226347 0.669190 0.289647 -0.055483
C3    C     C_3   0.170027 0.736735 0.212542 -0.115662
H6    H     H_    0.258696 0.792490 0.235408 0.138475
C4    C     C_3   0.246720 0.741776 0.707886 0.825369
C5    C     C_3   0.187826 0.820430 0.744957 -0.125108
H7    H     H_    0.152439 0.817664 0.801143 0.156219
H8    H     H_    0.289016 0.871781 0.750008 0.166320
Ba1   Ba    Ba6+2 0.853800 0.535410 0.467450 1.623220
C6    C     C_3   0.876100 0.275266 0.315501 0.739217
H9    H     H_    0.799899 0.311543 0.352185 0.049092
C7    C     C_3   0.903910 0.203703 0.346446 -0.801593
H10   H     H_    0.978956 0.165767 0.309966 0.289709
H11   H     H_    0.785166 0.166509 0.351057 0.224132
H12   H     H_    0.971042 0.224885 0.401152 0.234737
C8    C     C_3   0.740047 0.646002 0.689988 0.531161
H13   H     H_    0.840844 0.622094 0.659833 0.092212
H14   H     H_    0.633262 0.597097 0.682084 0.095425
C9    C     C_3   0.793879 0.673015 0.771811 -0.860424
H15   H     H_    0.859340 0.735706 0.785621 0.303795
H16   H     H_    0.875846 0.634486 0.788285 0.200992
H17   H     H_    0.687422 0.668457 0.805405 0.242050
P4    P     P_3+3 0.150900 0.577150 0.668860 0.526564
O12   O     O_2   0.318180 0.554310 0.678550 -0.373622
O13   O     O_3   0.068680 0.548140 0.588860 -0.354563
O14   O     O_3   0.527520 0.406960 0.624950 -0.385373
O15   O     O_3   0.125383 0.677261 0.710519 -0.616635
P5    P     P_3+3 0.064210 0.261547 0.582562 0.485774
O16   O     O_3   0.608500 0.402060 0.457050 -0.414359
O17   O     O_3   0.104610 0.363860 0.586060 -0.382239
O18   O     O_2   0.193593 0.222117 0.536177 -0.341892
O19   O     O_3   0.103031 0.245480 0.670163 -0.518141
Ba2   Ba    Ba6+2 0.336030 0.464660 0.532560 1.616457
P6    P     P_3+3 0.639249 0.584156 0.280706 0.441020
C10   C     C_3   0.639550 0.735611 0.301565 0.386943
H18   H     H_    0.504812 0.719439 0.290071 -0.003685
H19   H     H_    0.625380 0.860986 0.309151 0.201497
O20   O     O_3   0.581210 0.598010 0.542960 -0.413061
C11   C     C_3   0.449196 0.338313 0.303870 0.427454
H20   H     H_    0.357297 0.368329 0.336515 0.107962
H21   H     H_    0.561524 0.382649 0.305082 0.092115
C12   C     C_3   0.377239 0.308011 0.224898 -0.863633
H22   H     H_    0.259439 0.267196 0.222956 0.294063
H23   H     H_    0.355879 0.359068 0.201127 0.191344
H24   H     H_    0.462016 0.274923 0.190391 0.283290
P7    P     P_3+3 0.514452 0.301376 0.426514 0.503343
O21   O     O_2   0.335820 0.303580 0.452320 -0.301032
O22   O     O_3   0.488211 0.273203 0.330634 -0.520426
H25   H     H_    0.232729 0.696349 0.171880 0.079286
C13   C     C_3   0.042608 0.304054 0.722295 0.376008
H26   H     H_    0.132076 0.360635 0.734847 0.143441
H27   H     H_    0.923879 0.316845 0.702584 -0.054402
C14   C     C_3   0.013899 0.274118 0.792249 -0.120882
H28   H     H_    0.938405 0.312271 0.827861 0.110477
H29   H     H_    0.946964 0.211563 0.778548 0.167462
P8    P     P_3+3 0.551748 0.410260 0.717576 0.447923
C15   C     C_3   0.527679 0.257022 0.674526 0.470499
H30   H     H_    0.661551 0.269315 0.669498 -0.009102
O23   O     O_2   0.432081 0.463992 0.755326 -0.395550
O24   O     O_3   0.477403 0.314799 0.730877 -0.481736
H31   H     H_    0.462502 0.255528 0.621394 0.134809
H32   H     H_    0.525998 0.128590 0.647675 0.204430
C16   C     C_3   0.486749 0.174827 0.691782 -0.849271
H33   H     H_    0.352679 0.159668 0.695806 0.301415
H34   H     H_    0.551468 0.174614 0.744603 0.256984
C17   C     C_R   0.992875 0.460446 0.044944 0.025962
C18   C     C_R   0.890586 0.423583 0.090512 0.114812
C19   C     C_R   0.728831 0.388993 0.064837 -0.141707
C20   C     C_R   0.669559 0.390567 0.994469 -0.163790
C21   C     C_R   0.771854 0.425281 0.947807 0.105937
C22   C     C_R   0.934196 0.460186 0.972877 0.034641
C23   C     C_R   0.714410 0.424645 0.876378 -0.223403
C24   C     C_R   0.818377 0.455940 0.827630 -0.045903
C25   C     C_R   0.981120 0.492104 0.852857 -0.004909
C26   C     C_R   0.037547 0.494866 0.926104 0.017096
C27   C     C_R   0.765128 0.451019 0.754106 0.179199
C28   C     C_R   0.874596 0.478932 0.706035 -0.546396
C29   C     C_R   0.033377 0.519067 0.730411 0.285091
C30   C     C_R   0.086621 0.526935 0.805781 -0.077061
C31   C     C_R   0.153861 0.496844 0.071124 0.008197
C32   C     C_R   0.211101 0.499293 0.144081 -0.001932
C33   C     C_R   0.106653 0.463617 0.190877 -0.071901
C34   C     C_R   0.950027 0.422602 0.161329 -0.096691
H35   H     H_    0.647497 0.361305 0.099479 0.150126
H36   H     H_    0.543940 0.363834 0.976262 0.175930
H37   H     H_    0.831520 0.474373 0.649905 0.174016
H38   H     H_    0.588844 0.397868 0.859167 0.211835
H39   H     H_    0.869838 0.391362 0.193351 0.180662
C35   C     C_R   0.241669 0.569019 0.836268 -0.101994
C36   C     C_R   0.300152 0.568709 0.907234 0.113929
C37   C     C_R   0.198174 0.531482 0.952493 0.027198
C38   C     C_R   0.256731 0.531992 0.024556 0.030565
C39   C     C_R   0.461031 0.604363 0.933277 -0.149364
C40   C     C_R   0.520349 0.603096 0.003549 -0.165232
C41   C     C_R   0.418630 0.567717 0.049838 0.107217
C42   C     C_R   0.373382 0.536638 0.169582 -0.039616
C43   C     C_R   0.476361 0.568628 0.121134 -0.229463
C44   C     C_R   0.427243 0.541702 0.243050 0.171824
C45   C     C_R   0.319593 0.511806 0.290310 -0.522057
C46   C     C_R   0.161961 0.470966 0.265562 0.268969
H40   H     H_    0.322687 0.600135 0.804897 0.189901
H41   H     H_    0.541707 0.632770 0.899106 0.146457
H42   H     H_    0.645446 0.630628 0.021966 0.180417
H43   H     H_    0.601752 0.595593 0.138249 0.212743
H44   H     H_    0.362370 0.516781 0.346565 0.171383
C47   C     C_2   0.460946 0.713014 0.467395 -0.304860
C48   C     C_3   0.376201 0.760971 0.423660 0.078309
C49   C     C_2   0.439215 0.849213 0.443380 -0.205822
C50   C     C_2   0.570959 0.879290 0.491360 0.103039
C51   C     C_2   0.648306 0.824931 0.528284 -0.229476
C52   C     C_1   0.586059 0.747959 0.515955 0.326391
C53   C     C_R   0.792593 0.139468 0.536515 -0.280191
C54   C     C_R   0.856552 0.219524 0.541181 0.250277
C55   C     C_R   0.615695 0.234954 0.471059 0.122938
C56   C     C_R   0.557115 0.152159 0.460213 0.215792
C57   C     C_R   0.641562 0.105424 0.497102 -0.032147
C58   C     C_2   0.650726 0.963659 0.502297 -0.157067
C59   C     C_2   0.565576 0.022140 0.495510 -0.075855
C60   C     C_R   0.764147 0.267974 0.512103 -0.518701
H45   H     H_    0.433193 0.008114 0.486192 0.162722
H46   H     H_    0.757467 0.849113 0.564817 0.189789
H47   H     H_    0.861056 0.104762 0.564095 0.165711
H48   H     H_    0.782515 0.976269 0.513631 0.155093
H49   H     H_    0.387090 0.886056 0.411727 0.159858
H50   H     H_    0.423137 0.648465 0.454282 0.161127
H51   H     H_    0.812981 0.330730 0.517575 0.189990
Br1   Br    Br    0.003611 0.846679 0.693251 -0.417376
Br2   Br    Br    0.770773 0.233488 0.217854 -0.521452
Br3   Br    Br    0.218338 0.278514 0.847585 -0.473386
N1    N     N_R   0.425715 0.113422 0.405966 0.244933
O25   O     O_R   0.285148 0.138411 0.407022 -0.331898
O26   O     O_R   0.446156 0.051361 0.355416 -0.375699
N2    N     N_R   0.027890 0.755417 0.175529 0.290646
O27   O     O_R   0.017493 0.829498 0.174728 -0.331248
O28   O     O_R   0.920718 0.697698 0.136224 -0.397421
Br4   Br    Br    0.440839 0.741616 0.766601 -0.579398
Br5   Br    Br    0.284768 0.745055 0.609140 -0.448796

loop_
_geom_bond_atom_site_label_1
_geom_bond_atom_site_label_2
_geom_bond_distance
_ccdc_geom_bond_type
C28   H37   1.081555 S    
C25   C26   1.423481 A    
C43   H43   1.079187 S    
O3    P6    1.741898 S    
C12   H24   1.106226 S    
C35   H40   1.069527 S    
C27   C28   1.407774 A    
C15   O24   1.404722 S    
C19   C20   1.399042 A    
C50   C51   1.487262 S    
H32   C16   1.109580 S    
P8    C27   1.849004 S    
P5    O17   1.738541 S    
Ba1   O20   2.919469 S    
C59   H45   1.085680 S    
C48   C49   1.496974 S    
P2    C52   1.834106 S    
P3    O11   1.751305 S    
P2    Ba1   3.409265 S    
O4    P6    1.539519 D    
O2    Ba1   2.918966 S    
C8    H14   1.110033 S    
O11   C2    1.417210 S    
C53   C57   1.407592 A    
N1    O26   1.301391 A    
P1    C46   1.877349 S    
C9    H15   1.108579 S    
P6    C44   1.849256 S    
O12   Ba2   2.851029 S    
C60   H51   1.081988 S    
C54   C60   1.396612 A    
C42   C43   1.410773 A    
C29   C30   1.436434 A    
C30   C35   1.411285 A    
C35   C36   1.401481 A    
C12   H23   1.107361 S    
P1    O1    1.510739 D    
P4    O15   1.782340 S    
C13   H27   1.107968 S    
C45   C46   1.398625 A    
C32   C33   1.424192 A    
C58   H48   1.084053 S    
O3    Ba1   2.750269 S    
C37   C38   1.417307 A    
N1    O25   1.299158 A    
C47   C52   1.331543 D    
C40   H42   1.083635 S    
C2    H4    1.108737 S    
C42   C44   1.412847 A    
P2    O10   1.747563 S    
P1    Ba1   3.405933 S    
C7    H11   1.108670 S    
C5    Br1   1.942226 S    
O16   P7    1.759130 S    
C21   C23   1.402722 A    
C1    H2    1.109824 S    
C53   H47   1.080906 S    
C4    Br4   1.917404 S    
C5    H7    1.111399 S    
O19   C13   1.405897 S    
C20   C21   1.404394 A    
O13   Ba2   2.919803 S    
C11   C12   1.524659 S    
C45   H44   1.081699 S    
C55   C60   1.400283 A    
C23   H38   1.080055 S    
C12   H22   1.109792 S    
C32   C42   1.418274 A    
P4    O13   1.568380 S    
C39   C40   1.395995 A    
C20   H36   1.083645 S    
C22   C26   1.410552 A    
P5    O18   1.543938 D    
C3    N2    1.458599 S    
P1    O5    1.757415 S    
C33   C46   1.430333 A    
C33   C34   1.412288 A    
C2    C3    1.527808 S    
C4    C5    1.540830 S    
C9    H17   1.102942 S    
C14   H29   1.110719 S    
C36   C39   1.403575 A    
H1    C10   1.110083 S    
C23   C24   1.414368 A    
C18   C19   1.404451 A    
C14   H28   1.107614 S    
P5    O19   1.751974 S    
O14   Ba2   2.749766 S    
P7    O22   1.751504 S    
C11   H20   1.109038 S    
C17   C18   1.407471 A    
C56   N1    1.439765 S    
C26   C37   1.406959 A    
C24   C27   1.412959 A    
P1    O2    1.568219 S    
C8    H13   1.102972 S    
C13   C14   1.525852 S    
C6    H9    1.104404 S    
C17   C31   1.407807 A    
C31   C32   1.421560 A    
O2    Ba2   2.789873 S    
O17   Ba2   2.760896 S    
C31   C38   1.409352 A    
C28   C29   1.401879 A    
C8    C9    1.530801 S    
C7    H12   1.108660 S    
C34   H39   1.075150 S    
C1    H19   1.110396 S    
C49   H49   1.084908 S    
C15   H30   1.107604 S    
C1    H3    1.110749 S    
C3    H25   1.112023 S    
C19   H35   1.083837 S    
P3    C48   1.872213 S    
P2    O7    1.512574 D    
P7    O21   1.573524 D    
C16   H34   1.110736 S    
P3    O8    1.730321 S    
C55   C56   1.409707 A    
P4    C29   1.892999 S    
P4    O12   1.511038 D    
P2    O20   1.576257 S    
C15   C16   1.520068 S    
C49   C50   1.351509 D    
C18   C34   1.404513 A    
Ba2   O21   2.859098 S    
C40   C41   1.402134 A    
C57   C59   1.477728 S    
C10   H18   1.110041 S    
Ba1   O16   2.804262 S    
C2    H5    1.112139 S    
C7    H10   1.111156 S    
C15   H31   1.109873 S    
N2    O28   1.301485 A    
C58   C59   1.341848 D    
C6    Br2   1.936894 S    
C41   C43   1.399904 A    
C17   C22   1.418799 A    
C56   C57   1.415796 A    
C5    H8    1.111656 S    
O10   C8    1.406168 S    
P5    C54   1.836453 S    
O14   P8    1.728024 S    
C4    O15   1.396800 S    
C50   C58   1.476914 S    
C51   C52   1.320907 D    
C39   H41   1.080468 S    
C6    C7    1.522357 S    
C14   Br3   1.937369 S    
C44   C45   1.401231 A    
C9    H16   1.100909 S    
Ba1   Ba2   4.550245 S    
O8    Ba1   2.760289 S    
C47   C48   1.512942 S    
C51   H46   1.085962 S    
P8    O24   1.749341 S    
C24   C25   1.415771 A    
Ba1   O13   2.789279 S    
C38   C41   1.408164 A    
C13   H26   1.110356 S    
P8    O23   1.541046 D    
Ba2   O20   2.803666 S    
C4    Br5   1.899041 S    
C11   O22   1.404857 S    
O16   Ba2   2.918633 S    
O5    C6    1.394560 S    
N2    O27   1.301081 A    
C16   H33   1.110320 S    
P3    O9    1.550164 D    
O6    P6    1.749892 S    
C3    H6    1.112765 S    
O1    Ba1   2.850456 S    
C1    C10   1.519530 S    
C47   H50   1.084224 S    
O6    C10   1.399718 S    
O7    Ba1   2.858910 S    
C21   C22   1.407466 A    
C36   C37   1.404994 A    
C11   H21   1.109830 S    
C25   C30   1.426030 A    
P7    C55   1.840063 S    
C53   C54   1.390103 A    
P4    Ba2   3.406606 S    
