data_mof_unit_21558.cif
_audit_creation_date              2012-12-10T19:24:59-0500
_audit_creation_method            fapswitch 2.2
_symmetry_space_group_name_H-M    P1
_symmetry_Int_Tables_number       1
_space_group_crystal_system       triclinic
_cell_length_a                    15.726092
_cell_length_b                    10.49942
_cell_length_c                    9.811692
_cell_angle_alpha                 90.356988
_cell_angle_beta                  89.845381
_cell_angle_gamma                 89.987364
_cell_volume                      1620.01861226

loop_
_atom_site_label
_atom_site_type_symbol
_atom_type_description
_atom_site_fract_x
_atom_site_fract_y
_atom_site_fract_z
_atom_type_partial_charge
C1    C     C_R   0.499099 0.257878 0.499565 0.924931
C2    C     C_R   0.500901 0.742122 0.500435 0.924929
C3    C     C_3   0.570658 0.960271 0.438335 -0.017987
C4    C     C_3   0.429341 0.039729 0.561665 -0.017988
C5    C     C_3   0.501645 0.877021 0.501036 -0.057878
C6    C     C_3   0.498355 0.122979 0.498964 -0.057878
C7    C     C_3   0.498796 0.959711 0.630445 -0.171260
C8    C     C_3   0.501204 0.040289 0.369555 -0.171259
C9    C     C_3   0.462282 0.401575 0.046774 0.417166
C10   C     C_3   0.537718 0.598425 0.953226 0.417166
C11   C     C_3   0.538342 0.402109 0.951842 0.418243
C12   C     C_3   0.461658 0.597891 0.048158 0.418243
C13   C     C_3   0.422090 0.499483 0.951189 -0.345993
C14   C     C_3   0.577910 0.500517 0.048811 -0.345992
C15   C     C_R   0.338291 0.499932 0.500117 0.908612
C16   C     C_R   0.661709 0.500068 0.499883 0.908610
C17   C     C_3   0.972045 0.439332 0.610533 -0.061035
C18   C     C_3   0.027955 0.560666 0.389468 -0.061030
C19   C     C_3   0.026872 0.379373 0.497059 -0.075397
C20   C     C_3   0.973128 0.620626 0.502942 -0.075397
C21   C     C_1   0.249525 0.499055 0.500308 -0.063418
C22   C     C_1   0.750475 0.500945 0.499692 -0.063419
C23   C     C_3   0.029587 0.558966 0.613499 -0.275302
C24   C     C_3   0.970413 0.441032 0.386502 -0.275299
C25   C     C_3   0.083493 0.498287 0.498658 0.051247
C26   C     C_3   0.916507 0.501711 0.501343 0.051247
C27   C     C_1   0.174320 0.498391 0.499799 0.105475
C28   C     C_1   0.825680 0.501607 0.500202 0.105476
C29   C     C_3   0.568681 0.044968 0.566827 -0.213399
C30   C     C_3   0.431319 0.955032 0.433173 -0.213398
H1    H     H_    0.945138 0.393048 0.293924 0.192516
H2    H     H_    0.054862 0.606950 0.706078 0.192519
H3    H     H_    0.624654 0.085512 0.620519 0.190417
H4    H     H_    0.375346 0.914487 0.379481 0.190416
H5    H     H_    0.497537 0.923982 0.736733 0.198298
H6    H     H_    0.502463 0.076018 0.263266 0.198298
H7    H     H_    0.357393 0.498958 0.906225 0.189690
H8    H     H_    0.642607 0.501042 0.093775 0.189690
N1    N     N_3   0.499940 0.500030 0.863290 -0.114505
N2    N     N_3   0.500060 0.499970 0.136710 -0.114505
O1    O     O_R   0.500000 0.313960 0.616610 -0.558923
O2    O     O_R   0.500000 0.686040 0.383390 -0.558921
O3    O     O_R   0.500040 0.313950 0.383350 -0.593804
O4    O     O_R   0.499960 0.686050 0.616650 -0.593805
O5    O     O_R   0.376760 0.499990 0.616610 -0.619333
O6    O     O_R   0.623240 0.500010 0.383390 -0.619331
O7    O     O_R   0.376790 0.499980 0.383350 -0.559941
O8    O     O_R   0.623210 0.500020 0.616650 -0.559942
Zn1   Zn    Zn3+2 0.499980 0.500010 0.655740 1.071507
Zn2   Zn    Zn3+2 0.500020 0.499990 0.344260 1.071508
C31   C     C_2   0.055455 0.243118 0.492695 0.975525
O9    O     O_2   0.002435 0.158052 0.491727 -0.560021
O10   O     O_R   0.142094 0.213904 0.489450 -0.790606
H9    H     H_    0.153129 0.118776 0.486898 0.374606
C32   C     C_2   0.944545 0.756881 0.507305 0.975528
O11   O     O_2   0.997565 0.841946 0.508292 -0.560021
O12   O     O_R   0.857905 0.786095 0.510527 -0.790609
H10   H     H_    0.846870 0.881223 0.513079 0.374608
C33   C     C_2   0.942120 0.371641 0.735976 0.962483
O13   O     O_2   0.994299 0.327582 0.814805 -0.593902
O14   O     O_R   0.855186 0.359307 0.762385 -0.782815
H11   H     H_    0.843233 0.311903 0.850075 0.360420
C34   C     C_2   0.057880 0.628358 0.264025 0.962475
O15   O     O_2   0.005701 0.672417 0.185197 -0.593902
O16   O     O_R   0.144814 0.640691 0.237616 -0.782814
H12   H     H_    0.156767 0.688095 0.149926 0.360421
C35   C     C_2   0.651034 0.918290 0.368803 0.920309
O17   O     O_2   0.699602 0.998309 0.323128 -0.606263
O18   O     O_R   0.670276 0.788882 0.356487 -0.793947
H13   H     H_    0.725904 0.773053 0.306747 0.365356
C36   C     C_2   0.348965 0.081710 0.631196 0.920311
O19   O     O_2   0.300398 0.001692 0.676874 -0.606261
O20   O     O_R   0.329722 0.211118 0.643508 -0.793949
H14   H     H_    0.274094 0.226948 0.693247 0.365353
O21   O     O_3   0.578390 0.295499 0.894773 -0.721610
H15   H     H_    0.598147 0.244572 0.973293 0.335299
O22   O     O_3   0.421610 0.704501 0.105227 -0.721610
H16   H     H_    0.401853 0.755428 0.026707 0.335299
O23   O     O_3   0.422869 0.294415 0.102288 -0.724872
H17   H     H_    0.403514 0.243243 0.023014 0.340106
O24   O     O_3   0.577131 0.705585 0.897712 -0.724873
H18   H     H_    0.596486 0.756757 0.976986 0.340106

loop_
_geom_bond_atom_site_label_1
_geom_bond_atom_site_label_2
_ccdc_geom_bond_type
O4    Zn1   S    
C32   O11   D    
C34   O16   S    
C7    C29   S    
O20   H14   S    
C15   O7    A    
C16   O8    A    
O24   H18   S    
O22   H16   S    
C17   C23   S    
C18   C24   S    
C17   C26   S    
C24   C26   S    
C20   C32   S    
C8    H6    S    
C11   C14   S    
C18   C34   S    
C29   H3    S    
C9    O23   S    
C3    C29   S    
C9    C13   S    
C1    O3    A    
C2    O4    A    
C13   H7    S    
C21   C27   T    
C33   O13   D    
C22   C28   T    
O14   H11   S    
C18   C25   S    
C4    C7    S    
O1    Zn1   S    
O7    Zn2   S    
C33   O14   S    
C30   H4    S    
C35   O17   D    
O23   H17   S    
C4    C6    S    
C3    C8    S    
C10   C14   S    
C16   O6    A    
C5    C7    S    
C6    C8    S    
O10   H9    S    
C9    N2    S    
C31   O9    D    
C10   N1    S    
C35   O18   S    
C12   N2    S    
O21   H15   S    
C14   H8    S    
C20   C23   S    
O5    Zn1   S    
C12   O22   S    
C11   N1    S    
C9    C11   S    
C10   C12   S    
C17   C33   S    
C1    O1    A    
O8    Zn1   S    
N1    Zn1   S    
O2    Zn2   S    
C32   O12   S    
C2    C5    S    
C15   O5    A    
C36   O20   S    
C5    C30   S    
C16   C22   S    
C7    H5    S    
C3    C35   S    
C3    C5    S    
O3    Zn2   S    
C25   C27   S    
O6    Zn2   S    
C10   O24   S    
C26   C28   S    
C8    C30   S    
C23   H2    S    
C19   C24   S    
C24   H1    S    
C36   O19   D    
C11   O21   S    
O12   H10   S    
C20   C26   S    
C2    O2    A    
N2    Zn2   S    
C17   C19   S    
C18   C20   S    
C23   C25   S    
O18   H13   S    
C19   C25   S    
C13   N1    S    
C14   N2    S    
C34   O15   D    
C19   C31   S    
C15   C21   S    
C6    C29   S    
C12   C13   S    
O16   H12   S    
C1    C6    S    
C31   O10   S    
C4    C36   S    
C4    C30   S    
