data_mof_unit_60911.cif
_audit_creation_date              2012-12-10T18:49:47-0500
_audit_creation_method            fapswitch 2.2
_symmetry_space_group_name_H-M    P1
_symmetry_Int_Tables_number       1
_space_group_crystal_system       triclinic
_cell_length_a                    19.40952
_cell_length_b                    18.127212
_cell_length_c                    10.64791
_cell_angle_alpha                 90.280398
_cell_angle_beta                  90.194875
_cell_angle_gamma                 89.997932
_cell_volume                      3746.29927409

loop_
_atom_site_label
_atom_site_type_symbol
_atom_type_description
_atom_site_fract_x
_atom_site_fract_y
_atom_site_fract_z
_atom_type_partial_charge
C1    C     C_R   0.367417 0.500000 0.499800 0.846241
C2    C     C_R   0.632584 0.500000 0.500203 0.846238
C3    C     C_R   0.963750 0.515829 0.389468 -0.077108
C4    C     C_R   0.036235 0.484202 0.610572 -0.077134
C5    C     C_R   0.035512 0.515816 0.389122 -0.080763
C6    C     C_R   0.964473 0.484207 0.610914 -0.080769
C7    C     C_R   0.071824 0.500004 0.499674 0.137224
C8    C     C_R   0.928166 0.500020 0.500362 0.137271
C9    C     C_R   0.456626 0.720805 0.421850 0.051379
C10   C     C_R   0.543361 0.279194 0.578173 0.051353
C11   C     C_R   0.543346 0.721232 0.578222 0.041242
C12   C     C_R   0.456667 0.278768 0.421754 0.041203
C13   C     C_R   0.455583 0.798366 0.420029 0.160037
C14   C     C_R   0.544406 0.201633 0.579991 0.160035
C15   C     C_R   0.544394 0.798806 0.580079 0.159805
C16   C     C_R   0.455618 0.201194 0.419899 0.159807
C17   C     C_R   0.499993 0.838782 0.500054 -0.054332
C18   C     C_R   0.500007 0.161218 0.499945 -0.054332
C19   C     C_R   0.557282 0.961073 0.455850 -0.075447
C20   C     C_R   0.442718 0.038928 0.544149 -0.075445
C21   C     C_R   0.442720 0.961348 0.544195 -0.080397
C22   C     C_R   0.557281 0.038653 0.455804 -0.080399
C23   C     C_R   0.499999 0.078509 0.499953 0.151263
C24   C     C_R   0.500001 0.921492 0.500046 0.151254
C25   C     C_R   0.499833 0.499782 0.259090 0.879940
C26   C     C_R   0.500167 0.500218 0.740910 0.879930
C27   C     C_3   0.443449 0.535860 0.041788 -0.306722
C28   C     C_3   0.556552 0.464140 0.958212 -0.306743
C29   C     C_3   0.500923 0.570650 0.960162 -0.253754
C30   C     C_3   0.499078 0.429350 0.039838 -0.253756
C31   C     C_3   0.443954 0.466597 0.957467 0.714112
C32   C     C_3   0.556046 0.533403 0.042532 0.714106
C33   C     C_3   0.500506 0.500769 0.877389 -0.189929
C34   C     C_3   0.499495 0.499231 0.122611 -0.189934
C35   C     C_R   0.744722 0.433130 0.499616 -0.194508
C36   C     C_R   0.255281 0.566871 0.499571 -0.194585
C37   C     C_R   0.255284 0.433131 0.499099 -0.167832
C38   C     C_R   0.744713 0.566878 0.501736 -0.168088
C39   C     C_R   0.816529 0.432810 0.499671 0.263553
C40   C     C_R   0.183475 0.567199 0.499518 0.263491
C41   C     C_R   0.183477 0.432806 0.499037 0.262007
C42   C     C_R   0.816520 0.567208 0.501813 0.262139
C43   C     C_R   0.852787 0.500012 0.500683 -0.072742
C44   C     C_R   0.147209 0.500003 0.499346 -0.072601
C45   C     C_R   0.708303 0.500002 0.500516 -0.138768
C46   C     C_R   0.291696 0.500001 0.499493 -0.138861
Cu1   Cu    Cu3+1 0.500000 0.573360 0.500000 0.989024
Cu2   Cu    Cu3+1 0.500000 0.426640 0.500000 0.988982
H1    H     H_    0.396908 0.564240 0.078337 0.187465
H2    H     H_    0.603092 0.435760 0.921663 0.187469
H3    H     H_    0.502612 0.628331 0.925718 0.199589
H4    H     H_    0.497389 0.371669 0.074282 0.199586
H5    H     H_    0.717543 0.380939 0.498491 0.194908
H6    H     H_    0.282464 0.619059 0.500028 0.194876
H7    H     H_    0.282466 0.380942 0.498577 0.197928
H8    H     H_    0.717530 0.619067 0.502914 0.197798
H9    H     H_    0.935890 0.528039 0.303719 0.163291
H10   H     H_    0.064092 0.471998 0.696327 0.163370
H11   H     H_    0.062805 0.528019 0.303107 0.161207
H12   H     H_    0.937177 0.471999 0.696923 0.161108
H13   H     H_    0.422722 0.690045 0.360051 0.159303
H14   H     H_    0.577255 0.309955 0.639991 0.159367
H15   H     H_    0.577219 0.690804 0.640049 0.163677
H16   H     H_    0.422805 0.309196 0.359908 0.163749
H17   H     H_    0.601979 0.931787 0.420949 0.174498
H18   H     H_    0.398020 0.068214 0.579048 0.174496
H19   H     H_    0.398020 0.932280 0.579118 0.172546
H20   H     H_    0.601980 0.067722 0.420881 0.172539
N1    N     N_R   0.500000 0.683620 0.500000 -0.218511
N2    N     N_R   0.500000 0.316380 0.500000 -0.218536
O1    O     O_R   0.400190 0.561980 0.499980 -0.594284
O2    O     O_R   0.599810 0.438020 0.500020 -0.594311
O3    O     O_R   0.599810 0.561980 0.500020 -0.578885
O4    O     O_R   0.400190 0.438020 0.499980 -0.578921
O5    O     O_R   0.499980 0.561940 0.316860 -0.562507
O6    O     O_R   0.500020 0.438060 0.683140 -0.562524
O7    O     O_R   0.500020 0.561940 0.683140 -0.592364
O8    O     O_R   0.499980 0.438060 0.316860 -0.592375
F1    F     F_    0.385921 0.432073 0.909739 -0.629368
F2    F     F_    0.614079 0.567927 0.090261 -0.629341
Br1   Br    Br    0.863030 0.339331 0.495723 -0.386263
Br2   Br    Br    0.136997 0.660701 0.502368 -0.386368
Br3   Br    Br    0.136987 0.339311 0.495981 -0.374455
Br4   Br    Br    0.863021 0.660690 0.505949 -0.374309
Br5   Br    Br    0.394579 0.846198 0.304035 -0.405655
Br6   Br    Br    0.605395 0.153800 0.696007 -0.405690
Br7   Br    Br    0.605384 0.847282 0.696114 -0.395391
Br8   Br    Br    0.394643 0.152716 0.303840 -0.395397

loop_
_geom_bond_atom_site_label_1
_geom_bond_atom_site_label_2
_ccdc_geom_bond_type
C14   Br6   S    
C27   C29   S    
C14   C18   A    
C8    C43   S    
C1    O1    A    
C9    H13   S    
C1    O4    A    
C20   H18   S    
C9    N1    A    
C38   C42   A    
C29   C32   S    
C11   H15   S    
C30   C31   S    
C12   H16   S    
C1    C46   S    
C35   H5    S    
C41   Br3   S    
C29   C33   S    
Cu2   O8    S    
Cu2   O6    S    
Cu1   N1    S    
C38   C45   A    
C9    C13   A    
C28   H2    S    
C12   C16   A    
C26   O6    A    
C31   C33   S    
C36   C46   A    
C25   C34   S    
C2    C45   S    
C21   H19   S    
C6    H12   S    
C10   H14   S    
C11   C15   A    
Cu2   O2    S    
C4    C7    A    
C2    O2    A    
C27   C34   S    
C17   C24   S    
C5    H11   S    
C27   C31   S    
C18   C23   S    
C26   O7    A    
Cu2   O4    S    
C36   C40   A    
C19   C22   A    
C42   Br4   S    
Cu1   O3    S    
C4    C6    A    
C3    C8    A    
C10   C14   A    
C39   Br1   S    
C5    C7    A    
C30   C34   S    
C6    C8    A    
C25   O8    A    
C25   O5    A    
C32   C34   S    
C35   C39   A    
C40   Br2   S    
C32   F2    S    
C26   C33   S    
Cu1   Cu2   S    
C20   C23   A    
C28   C32   S    
C22   H20   S    
C7    C44   S    
Cu1   O1    S    
C2    O3    A    
C10   N2    A    
C28   C33   S    
C41   C44   A    
C42   C43   A    
Cu1   O7    S    
C4    H10   S    
C35   C45   A    
C3    H9    S    
C15   Br7   S    
C29   H3    S    
C15   C17   A    
C12   N2    A    
Cu2   N2    S    
C3    C5    A    
C39   C43   A    
C11   N1    A    
C31   F1    S    
C13   C17   A    
C28   C30   S    
C19   C24   A    
Cu1   O5    S    
C30   H4    S    
C19   H17   S    
C37   C41   A    
C36   H6    S    
C37   H7    S    
C40   C44   A    
C38   H8    S    
C20   C21   A    
C16   C18   A    
C21   C24   A    
C13   Br5   S    
C16   Br8   S    
C22   C23   A    
C37   C46   A    
C27   H1    S    
