data_mof_unit_36086.cif
_audit_creation_date              2012-12-11T20:00:37-0500
_audit_creation_method            fapswitch 2.2
_symmetry_space_group_name_H-M    P1
_symmetry_Int_Tables_number       1
_space_group_crystal_system       triclinic
_cell_length_a                    8.317937
_cell_length_b                    16.168578
_cell_length_c                    26.808823
_cell_angle_alpha                 72.928311
_cell_angle_beta                  96.17376
_cell_angle_gamma                 96.418528
_cell_volume                      3414.41528837

loop_
_atom_site_label
_atom_site_type_symbol
_atom_type_description
_atom_site_fract_x
_atom_site_fract_y
_atom_site_fract_z
_atom_type_partial_charge
Ba1   Ba    Ba6+2 0.337820 0.939830 0.518500 1.671297
Ba2   Ba    Ba6+2 0.851970 0.060110 0.481480 1.651751
C1    C     C_3   0.984904 0.549942 0.609028 -0.174530
C2    C     C_R   0.403583 0.383008 0.186472 0.580822
C3    C     C_2   0.238117 0.240688 0.271668 -0.106986
C4    C     C_3   0.532488 0.581858 0.616021 0.324938
C5    C     C_3   0.191240 0.183590 0.325087 0.006546
C6    C     C_1   0.468338 0.139069 0.340882 0.027537
C7    C     C_2   0.509993 0.187713 0.293972 -0.122650
C8    C     C_2   0.389533 0.242771 0.256239 0.202459
C9    C     C_R   0.504859 0.396742 0.101754 -0.080798
C10   C     C_R   0.536961 0.308638 0.120189 -0.029896
C11   C     C_R   0.604539 0.271724 0.086894 -0.063110
C12   C     C_3   0.959402 0.627260 0.628499 0.346954
C13   C     C_R   0.436230 0.433690 0.135021 -0.049556
C14   C     C_2   0.338935 0.152418 0.360882 -0.252156
C15   C     C_2   0.838534 0.839826 0.639610 -0.233800
C16   C     C_3   0.451489 0.512755 0.660251 -0.182156
C17   C     C_R   0.632436 0.457933 0.963567 0.019571
C18   C     C_R   0.568964 0.589279 0.983348 0.020147
C19   C     C_R   0.620929 0.548996 0.948097 0.049817
C20   C     C_R   0.674036 0.419992 0.925868 -0.102131
C21   C     C_R   0.710019 0.470297 0.875717 -0.064866
C22   C     C_R   0.708213 0.560918 0.860914 -0.031472
C23   C     C_3   0.242979 0.097164 0.670979 0.328329
C24   C     C_R   0.664504 0.600542 0.897219 -0.079826
C25   C     C_R   0.666213 0.691748 0.882957 -0.028670
C26   C     C_R   0.707824 0.741904 0.832290 0.583838
C27   C     C_R   0.749293 0.612620 0.810562 0.591033
C28   C     C_3   0.605942 0.883848 0.391682 0.311325
C29   C     C_2   0.940208 0.752200 0.728105 -0.115270
C30   C     C_3   0.987781 0.811664 0.675377 -0.055601
C31   C     C_1   0.714792 0.858712 0.659865 0.029340
C32   C     C_2   0.675262 0.813729 0.707795 -0.116869
C33   C     C_2   0.792188 0.754829 0.744536 0.230521
C34   C     C_3   0.198944 0.166667 0.694422 -0.395874
C35   C     C_R   0.603744 0.408249 0.016059 0.023231
C36   C     C_R   0.540379 0.447650 0.049941 0.033162
C37   C     C_R   0.509715 0.536984 0.032117 0.019296
C38   C     C_R   0.637216 0.320158 0.036143 -0.100584
C39   C     C_R   0.392869 0.519224 0.115351 -0.059889
C40   C     C_3   0.562525 0.806758 0.369633 -0.404793
C41   C     C_R   0.588307 0.680923 0.969800 -0.113501
C42   C     C_R   0.631949 0.730989 0.920394 -0.067169
C43   C     C_R   0.418416 0.568885 0.063830 0.047850
C44   C     C_2   0.436798 0.233789 0.535241 -0.213583
C45   C     C_3   0.647551 0.363032 0.368129 0.311171
C46   C     C_R   0.802744 0.758070 0.491936 -0.257810
C47   C     C_2   0.240402 0.313028 0.561120 -0.143720
C48   C     C_2   0.281248 0.237537 0.557199 -0.008912
C49   C     C_2   0.521726 0.307399 0.509190 0.036233
C50   C     C_3   0.463966 0.394663 0.505571 -0.046195
C51   C     C_3   0.359801 0.391369 0.550196 0.004097
C52   C     C_3   0.775665 0.050783 0.672501 0.259427
C53   C     C_2   0.602528 0.461966 0.504971 -0.068792
C54   C     C_2   0.575236 0.545459 0.487132 -0.086264
C55   C     C_R   0.846153 0.612553 0.460763 0.028078
C56   C     C_3   0.710880 0.429138 0.319120 -0.357896
C57   C     C_R   0.706817 0.614289 0.485405 -0.047952
C58   C     C_R   0.959753 0.684425 0.450040 -0.150024
C59   C     C_R   0.932371 0.759382 0.462783 0.035776
C60   C     C_R   0.687287 0.686657 0.502411 -0.033981
C61   C     C_3   0.748460 0.044465 0.729076 -0.207780
C62   C     C_3   0.095029 0.864887 0.340794 0.333932
C63   C     C_3   0.943885 0.817240 0.320030 -0.218305
C64   C     C_3   0.695959 0.129132 0.733949 -0.435719
C65   C     C_3   0.185826 0.925606 0.295350 -0.306331
C66   C     C_3   0.986030 0.750341 0.294404 -0.473677
C67   C     C_3   0.099428 0.367330 0.397059 0.335594
C68   C     C_3   0.273621 0.014032 0.714855 -0.311227
C69   C     C_3   0.012036 0.467977 0.654030 -0.403150
C70   C     C_3   0.572767 0.454774 0.696859 -0.503194
C71   C     C_3   0.464001 0.359364 0.363914 -0.306572
C72   C     C_3   0.321380 0.647238 0.042750 -0.419691
C73   C     C_3   0.494723 0.146844 0.541255 -0.226183
C74   C     C_3   0.114289 0.465097 0.389872 -0.383852
C75   C     C_R   0.499094 0.258741 0.171304 0.592305
H1    H     H_    0.915407 0.679438 0.594153 -0.072013
H2    H     H_    0.871451 0.782114 0.353150 0.077249
H3    H     H_    0.866744 0.864554 0.291770 0.124168
H4    H     H_    0.877518 0.536207 0.583530 0.045524
H5    H     H_    0.302313 0.183844 0.720418 0.087068
H6    H     H_    0.170118 0.226279 0.663135 0.078589
H7    H     H_    0.841570 0.424170 0.317631 0.142201
H8    H     H_    0.648586 0.415967 0.283097 0.114477
H9    H     H_    0.691537 0.496223 0.318751 0.126682
H10   H     H_    0.197289 0.338472 0.426464 -0.006830
H11   H     H_    0.981743 0.340218 0.412987 0.118363
H12   H     H_    0.596429 0.823380 0.328724 0.124135
H13   H     H_    0.221396 0.497568 0.368505 0.116973
H14   H     H_    0.599720 0.632907 0.632222 -0.008635
H15   H     H_    0.632633 0.204510 0.099993 0.119300
H16   H     H_    0.029355 0.712495 0.754040 0.096364
H17   H     H_    0.740791 0.437575 0.848514 0.114271
H18   H     H_    0.676351 0.350848 0.933582 0.066750
H19   H     H_    0.692623 0.286972 0.013834 0.067520
H20   H     H_    0.145864 0.276551 0.244830 0.105898
H21   H     H_    0.328627 0.546265 0.139227 0.123598
H22   H     H_    0.575548 0.715469 0.997762 0.082943
H23   H     H_    0.430989 0.787823 0.369946 0.114951
H24   H     H_    0.615831 0.550796 0.598731 -0.022765
H25   H     H_    0.559798 0.820293 0.720970 0.111428
H26   H     H_    0.336163 0.138760 0.402954 0.071198
H27   H     H_    0.125061 0.317119 0.575302 0.081922
H28   H     H_    0.063105 0.683224 0.429079 0.080844
H29   H     H_    0.784179 0.815787 0.502449 0.057874
H30   H     H_    0.389138 0.545285 0.683008 0.146616
H31   H     H_    0.452331 0.563272 0.474132 0.104089
H32   H     H_    0.359830 0.470962 0.643300 0.120672
H33   H     H_    0.738877 0.892629 0.398922 0.007112
H34   H     H_    0.838812 0.115020 0.653997 0.083795
H35   H     H_    0.547135 0.869897 0.428892 0.072205
H36   H     H_    0.625821 0.749996 0.393650 0.063568
H37   H     H_    0.666784 0.120160 0.774750 0.134792
H38   H     H_    0.795424 0.181687 0.724173 0.117332
H39   H     H_    0.587168 0.149046 0.707168 0.136851
H40   H     H_    0.275323 0.970910 0.309900 0.132289
H41   H     H_    0.251715 0.887981 0.276697 0.082222
H42   H     H_    0.100731 0.965448 0.265477 0.102137
H43   H     H_    0.065760 0.703554 0.321874 0.126952
H44   H     H_    0.872831 0.713668 0.283922 0.144499
H45   H     H_    0.858818 0.001248 0.673328 0.004550
H46   H     H_    0.047412 0.782714 0.258071 0.142610
H47   H     H_    0.865285 0.608335 0.656982 0.014836
H48   H     H_    0.161126 0.987044 0.734954 0.095856
H49   H     H_    0.312029 0.964525 0.698466 0.125193
H50   H     H_    0.370510 0.027034 0.744103 0.080035
H51   H     H_    0.357666 0.119713 0.651453 0.020786
H52   H     H_    0.091471 0.142907 0.717486 0.112629
H53   H     H_    0.112607 0.480316 0.682272 0.158283
H54   H     H_    0.901087 0.445396 0.675216 0.121793
H55   H     H_    0.042049 0.415678 0.638327 0.107788
H56   H     H_    0.655394 0.990274 0.743879 0.146371
H57   H     H_    0.620395 0.413750 0.676029 0.126322
H58   H     H_    0.674381 0.494478 0.711207 0.190434
H59   H     H_    0.511346 0.411421 0.730975 0.146769
H60   H     H_    0.685297 0.299227 0.368809 0.104532
H61   H     H_    0.412802 0.350576 0.325756 0.132095
H62   H     H_    0.427107 0.420695 0.367717 0.127389
H63   H     H_    0.416064 0.303778 0.395386 0.028793
H64   H     H_    0.126899 0.477290 0.428844 0.089588
H65   H     H_    0.004915 0.495043 0.367858 0.128167
H66   H     H_    0.630894 0.187488 0.282475 0.135252
H67   H     H_    0.863189 0.029588 0.754023 0.095905
H68   H     H_    0.640751 0.801046 0.911872 0.117536
H69   H     H_    0.199364 0.632798 0.058154 0.120247
H70   H     H_    0.383459 0.703001 0.055394 0.116259
H71   H     H_    0.298028 0.664661 0.999568 0.128201
H72   H     H_    0.830621 0.841502 0.598620 0.056368
H73   H     H_    0.627770 0.147851 0.550921 0.148161
H74   H     H_    0.439426 0.098205 0.573843 0.114556
H75   H     H_    0.457748 0.126003 0.505537 0.129284
H76   H     H_    0.723012 0.443275 0.521262 0.089514
H77   H     H_    0.178041 0.816168 0.363883 0.037608
H78   H     H_    0.090967 0.566633 0.584970 0.156631
N1    N     N_R   0.432796 0.295849 0.204096 -0.421449
N2    N     N_R   0.748150 0.702254 0.796500 -0.420978
O1    O     O_2   0.431310 0.922990 0.623550 -0.454319
O2    O     O_2   0.854944 0.307562 0.502337 -0.496094
O3    O     O_3   0.711387 0.388424 0.412921 -0.604944
O4    O     O_3   0.663280 0.983100 0.563360 -0.477311
O5    O     O_3   0.016420 0.932050 0.462720 -0.455646
O6    O     O_2   0.959730 0.164640 0.549160 -0.443538
O7    O     O_3   0.113092 0.077471 0.636900 -0.638244
O8    O     O_2   0.884053 0.231619 0.335839 -0.508033
O9    O     O_3   0.110900 0.349282 0.349150 -0.610379
O10   O     O_2   0.522634 0.181745 0.186163 -0.600193
O11   O     O_2   0.785502 0.577661 0.779139 -0.618399
O12   O     O_3   0.048798 0.916277 0.370464 -0.620484
O13   O     O_2   0.349522 0.416827 0.215628 -0.603033
O14   O     O_2   0.710057 0.820989 0.820334 -0.619841
O15   O     O_3   0.126250 0.812630 0.574830 -0.457906
O16   O     O_2   0.305031 0.777601 0.665045 -0.468545
O17   O     O_3   0.625342 0.043601 0.643669 -0.654297
O18   O     O_3   0.105365 0.652136 0.653884 -0.577072
O19   O     O_2   0.229950 0.835370 0.450810 -0.457197
O20   O     O_3   0.517580 0.797570 0.545130 -0.468693
O21   O     O_2   0.368052 0.707713 0.482416 -0.485325
O22   O     O_3   0.411055 0.617622 0.578035 -0.580637
O23   O     O_2   0.758370 0.077020 0.376420 -0.447892
O24   O     O_3   0.526390 0.016840 0.436620 -0.496595
O25   O     O_3   0.063420 0.187310 0.425160 -0.478639
O26   O     O_3   0.552839 0.958280 0.354626 -0.630569
O27   O     O_3   0.173250 0.067890 0.537260 -0.456552
O28   O     O_3   0.672100 0.202370 0.454860 -0.505479
P1    P     P_3+3 0.610630 0.953360 0.619150 0.988601
P2    P     P_3+3 0.057260 0.861390 0.437850 0.999494
P3    P     P_3+3 0.499244 0.700229 0.528216 0.954439
P4    P     P_3+3 0.579040 0.046590 0.380840 1.014155
P5    P     P_3+3 0.690434 0.301292 0.470239 0.920890
P6    P     P_3+3 0.128103 0.764852 0.642680 1.009230
P7    P     P_3+3 0.136148 0.139746 0.572157 0.952778
P8    P     P_3+3 0.063069 0.237297 0.357880 0.959767

loop_
_geom_bond_atom_site_label_1
_geom_bond_atom_site_label_2
_ccdc_geom_bond_type
C68   H50   S    
C53   C54   D    
Ba1   O19   S    
C63   H2    S    
C62   H77   S    
C4    O22   S    
C20   H18   S    
C16   H32   S    
C19   C24   A    
Ba2   O5    S    
C47   H27   S    
C7    H66   S    
O28   P5    S    
Ba1   P1    S    
C24   C25   A    
C32   H25   S    
O20   P3    S    
C2    O13   D    
C28   H33   S    
C61   H56   S    
C27   O11   D    
C72   H71   S    
Ba1   O1    S    
C17   C19   A    
C23   H51   S    
C41   H22   S    
C32   C33   S    
C35   C38   A    
C40   H23   S    
O23   P4    D    
C75   N1    Am   
O18   P6    S    
C36   C37   A    
C70   H59   S    
C52   C61   S    
C34   H6    S    
C4    H14   S    
O1    P1    D    
C59   P2    S    
Ba2   O4    S    
C67   C74   S    
Ba1   Ba2   S    
Ba2   O25   S    
C4    H24   S    
C62   O12   S    
C16   H30   S    
C54   H31   S    
C11   C38   A    
C17   C35   A    
C69   H55   S    
C67   O9    S    
O24   P4    S    
C25   C42   A    
C46   H29   S    
C34   H5    S    
C6    C7    D    
C1    H4    S    
C21   C22   A    
Ba2   P4    S    
O6    P7    D    
C5    P8    S    
C48   P7    S    
C7    C8    S    
C73   H75   S    
C67   H10   S    
C50   C53   S    
C37   C43   A    
O21   P3    D    
C74   H64   S    
C68   H49   S    
C52   H45   S    
C61   C64   S    
Ba1   O4    S    
C6    C14   D    
C63   H3    S    
C67   H11   S    
O2    P5    D    
Ba1   O20   S    
C38   H19   S    
O26   P4    S    
C66   H46   S    
C1    H78   S    
C44   C73   S    
Ba1   O27   S    
C31   C32   D    
C45   O3    S    
Ba1   P2    S    
O15   P6    S    
C16   C70   S    
C4    C16   S    
C12   H47   S    
C64   H38   S    
C49   C50   S    
C62   C65   S    
C72   H70   S    
C17   C20   A    
C45   C71   S    
C8    N1    S    
C23   O7    S    
C3    C5    S    
C18   C37   A    
Ba1   O24   S    
C70   H58   S    
C27   N2    Am   
O22   P3    S    
C71   H62   S    
C29   H16   S    
C44   C49   D    
O16   P6    D    
C30   P6    S    
C28   H35   S    
C58   C59   A    
Ba2   O24   S    
C35   C36   A    
C9    C36   A    
C1    C69   S    
C41   C42   A    
C33   N2    S    
O4    P1    S    
C56   H9    S    
C56   H7    S    
C26   O14   D    
C70   H57   S    
C29   C30   S    
C6    P4    S    
C61   H67   S    
C63   C66   S    
C10   C75   A    
C45   H60   S    
O27   P7    S    
C42   H68   S    
C15   C31   D    
O25   P8    S    
Ba2   O27   S    
C18   C19   A    
C65   H40   S    
O12   P2    S    
C31   P1    S    
C49   P5    S    
C64   H39   S    
C68   H48   S    
C5    C14   S    
C2    N1    Am   
C3    H20   S    
Ba1   O5    S    
C9    C13   A    
C11   H15   S    
C14   H26   S    
C29   C33   D    
C56   H8    S    
C46   C60   A    
C25   C26   A    
C18   C41   A    
C50   C51   S    
O19   P2    D    
C60   P3    S    
C53   H76   S    
C12   O18   S    
C57   C60   A    
C64   H37   S    
C23   C34   S    
C39   H21   S    
Ba2   O6    S    
C72   H69   S    
C15   H72   S    
C22   C24   A    
C55   C58   A    
O8    P8    D    
C66   H44   S    
C9    C10   A    
C54   C57   S    
C28   O26   S    
C71   H63   S    
C1    C12   S    
C75   O10   D    
C44   C48   S    
Ba1   O15   S    
Ba2   O23   S    
C21   H17   S    
C40   H12   S    
C62   C63   S    
C52   O17   S    
C2    C13   A    
Ba2   O28   S    
O3    P5    S    
C3    C8    D    
C40   H36   S    
C34   H52   S    
C66   H43   S    
C69   H53   S    
C46   C59   A    
O5    P2    S    
C47   C51   S    
C26   N2    Am   
C52   H34   S    
C28   C40   S    
C12   H1    S    
C65   H41   S    
C55   C57   A    
C13   C39   A    
C69   H54   S    
C22   C27   A    
O9    P8    S    
C10   C11   A    
C47   C48   D    
C71   H61   S    
C73   H74   S    
C15   C30   S    
C39   C43   A    
C20   C21   A    
C43   C72   S    
C23   C68   S    
C73   H73   S    
O7    P7    S    
C65   H42   S    
O17   P1    S    
C58   H28   S    
C74   H13   S    
C45   C56   S    
C74   H65   S    
