data_mof_unit_67568.cif
_audit_creation_date              2013-03-05T15:41:22-0500
_audit_creation_method            fapswitch 2.2
_symmetry_space_group_name_H-M    P1
_symmetry_Int_Tables_number       1
_space_group_crystal_system       triclinic
_cell_length_a                    10.673592
_cell_length_b                    8.808631
_cell_length_c                    7.523534
_cell_angle_alpha                 103.451034
_cell_angle_beta                  94.005353
_cell_angle_gamma                 92.966694
_cell_volume                      684.58887641

loop_
_atom_site_label
_atom_site_type_symbol
_atom_site_description
_atom_site_fract_x
_atom_site_fract_y
_atom_site_fract_z
_atom_type_partial_charge
O1    O     O_R   0.509190 0.286130 0.619780 -0.544672
O2    O     O_R   0.490810 0.713870 0.380220 -0.540288
O3    O     O_R   0.485310 0.256770 0.308360 -0.534165
O4    O     O_R   0.514690 0.743230 0.691640 -0.550326
C1    C     C_R   0.494927 0.200249 0.453696 0.798485
C2    C     C_R   0.504869 0.799720 0.546442 0.754080
O5    O     O_R   0.328790 0.514640 0.655680 -0.572843
O6    O     O_R   0.671210 0.485360 0.344320 -0.570063
O7    O     O_R   0.304910 0.485280 0.344260 -0.548838
O8    O     O_R   0.695090 0.514720 0.655740 -0.546521
C3    C     C_R   0.260541 0.504592 0.502992 0.796072
C4    C     C_R   0.739813 0.499338 0.497547 0.802647
Cu1   Cu    Cu3+1 0.514140 0.517380 0.684380 1.152808
Cu2   Cu    Cu3+1 0.485860 0.482620 0.315620 1.160427
N1    N     N_2   0.464560 0.456420 0.038510 0.058147
N2    N     N_2   0.535440 0.543580 0.961490 0.054384
C5    C     C_3   0.038562 0.376987 0.537419 0.224560
C6    C     C_3   0.961211 0.637743 0.464076 0.195566
C7    C     C_3   0.952460 0.385902 0.370246 0.246678
C8    C     C_3   0.048677 0.629058 0.631126 0.229802
C9    C     C_3   0.875938 0.502474 0.495000 -0.161225
C10   C     C_3   0.125087 0.510754 0.506882 -0.119117
C11   C     C_3   0.963067 0.494349 0.666015 -0.240418
C12   C     C_3   0.037988 0.520885 0.335369 -0.228081
H1    H     H_    0.934618 0.485158 0.802342 0.210500
H2    H     H_    0.068935 0.531423 0.200794 0.213464
C13   C     C_2   0.476850 0.033084 0.432679 0.076647
C14   C     C_2   0.522212 0.966975 0.568459 0.062446
N3    N     N_2   0.901356 0.252426 0.227980 -0.413693
H3    H     H_    0.826335 0.277574 0.148539 0.319144
C15   C     C_3   0.994797 0.170454 0.119765 -0.641589
H4    H     H_    0.947963 0.069632 0.015285 0.227653
H5    H     H_    0.064444 0.125934 0.208126 0.266369
H6    H     H_    0.045407 0.249386 0.049028 0.245347
N4    N     N_2   0.094592 0.760462 0.779854 -0.411116
H7    H     H_    0.022882 0.821880 0.840225 0.245855
C16   C     C_3   0.198482 0.858363 0.745792 -0.519698
H8    H     H_    0.206311 0.971577 0.849590 0.261065
H9    H     H_    0.184987 0.880984 0.607007 0.225172
H10   H     H_    0.287215 0.801614 0.759668 0.268979
N5    N     N_2   0.078478 0.233052 0.575599 -0.441800
H11   H     H_    0.158667 0.249075 0.663204 0.303500
C17   C     C_3   0.978870 0.141277 0.630049 -0.572107
H12   H     H_    0.014619 0.033156 0.657203 0.236395
H13   H     H_    0.900967 0.110254 0.520005 0.281667
H14   H     H_    0.942361 0.207737 0.757184 0.246920
N6    N     N_2   0.913963 0.779994 0.429348 -0.438277
H15   H     H_    0.821225 0.794712 0.455024 0.272152
C18   C     C_3   0.949613 0.821295 0.264049 -0.551304
H16   H     H_    0.926849 0.722574 0.142646 0.259908
H17   H     H_    0.051754 0.855205 0.277361 0.262134
H18   H     H_    0.896922 0.921161 0.241849 0.252460
N7    N     N_R   0.352051 0.391887 0.942160 0.249220
O9    O     O_R   0.251693 0.468911 0.969946 -0.369790
O10   O     O_R   0.338517 0.240842 0.881528 -0.384589
N8    N     N_R   0.650517 0.600340 0.054917 0.258567
O11   O     O_R   0.747173 0.517400 0.021663 -0.395627
O12   O     O_R   0.669360 0.749707 0.126213 -0.352935
N9    N     N_R   0.394145 0.946452 0.278592 0.132883
O13   O     O_R   0.291741 0.871474 0.305633 -0.412563
O14   O     O_R   0.411974 0.959563 0.113506 -0.262075
N10   N     N_R   0.604140 0.053669 0.723636 0.132799
O15   O     O_R   0.589300 0.035105 0.887488 -0.250011
O16   O     O_R   0.703967 0.134010 0.697915 -0.411167

loop_
_geom_bond_atom_site_label_1
_geom_bond_atom_site_label_2
_geom_bond_distance
_ccdc_geom_bond_type
O6    Cu2   1.973331 S    
C17   H12   1.100748 S    
C15   H5    1.109400 S    
N3    H3    1.029843 S    
N6    C18   1.444311 S    
C6    C9    1.532504 S    
C17   H13   1.107509 S    
N5    H11   1.025822 S    
C3    C10   1.451676 S    
C5    C10   1.528740 S    
C5    C11   1.544002 S    
C8    C11   1.542106 S    
O6    C4    1.298851 A    
O7    Cu2   1.959006 S    
C18   H18   1.106561 S    
C6    N6    1.446377 S    
C13   C14   1.361589 D    
N2    N8    1.380244 S    
C7    C12   1.543447 S    
C15   H6    1.109904 S    
N9    O13   1.300439 A    
C16   H9    1.108808 S    
C13   N9    1.442664 S    
N7    O9    1.300765 A    
O5    C3    1.298940 A    
N5    C17   1.441402 S    
C1    C13   1.445155 S    
N10   O15   1.299952 A    
O3    Cu2   1.977129 S    
O8    C4    1.293740 A    
O2    C2    1.296302 A    
O1    C1    1.295589 A    
N1    N7    1.380847 S    
C10   C12   1.559456 S    
O4    C2    1.301627 A    
C7    C9    1.532312 S    
C16   H8    1.109642 S    
N8    O12   1.299420 A    
C16   H10   1.103294 S    
C6    C8    1.531400 S    
O7    C3    1.293148 A    
C9    C11   1.551769 S    
O2    Cu2   1.978143 S    
C17   H14   1.106630 S    
C6    C12   1.550237 S    
N9    O14   1.299870 A    
C5    N5    1.442138 S    
O1    Cu1   1.978141 S    
N7    O10   1.299121 A    
N1    N2    1.306019 D    
C7    N3    1.446419 S    
O5    Cu1   1.973329 S    
C11   H1    1.109202 S    
N8    O11   1.299892 A    
N4    C16   1.443089 S    
C12   H2    1.109105 S    
N3    C15   1.446864 S    
C18   H16   1.107748 S    
Cu1   N2    2.038637 S    
O4    Cu1   1.977130 S    
C18   H17   1.106760 S    
Cu2   N1    2.038637 S    
N10   O16   1.299255 A    
C5    C7    1.524662 S    
Cu1   Cu2   2.712983 S    
C8    N4    1.447113 S    
C4    C9    1.453334 S    
O8    Cu1   1.959006 S    
C15   H4    1.109451 S    
C2    C14   1.444378 S    
N6    H15   1.030658 S    
C8    C10   1.538239 S    
O3    C1    1.302651 A    
N4    H7    1.030514 S    
C14   N10   1.443720 S    
