data_mof_unit_12661.cif
_audit_creation_date              2012-12-10T16:37:26-0500
_audit_creation_method            fapswitch 2.2
_symmetry_space_group_name_H-M    P1
_symmetry_Int_Tables_number       1
_space_group_crystal_system       triclinic
_cell_length_a                    16.737858
_cell_length_b                    16.800217
_cell_length_c                    16.849597
_cell_angle_alpha                 66.32495
_cell_angle_beta                  66.550682
_cell_angle_gamma                 66.490763
_cell_volume                      3816.350853

loop_
_atom_site_label
_atom_site_type_symbol
_atom_type_description
_atom_site_fract_x
_atom_site_fract_y
_atom_site_fract_z
_atom_type_partial_charge
C1    C     C_R   0.412226 0.014549 0.673734 -0.241019
C2    C     C_R   0.399063 0.660549 0.058775 -0.278872
C3    C     C_3   0.741732 0.417931 0.232231 -0.860666
C4    C     C_3   0.268267 0.609756 0.852072 -0.379045
C5    C     C_3   0.353401 0.620137 0.772624 -0.895220
C6    C     C_3   0.242625 0.841726 0.621160 -0.378014
C7    C     C_3   0.256094 0.767108 0.582840 -0.878764
C8    C     C_3   0.731488 0.146542 0.391016 -0.377721
C9    C     C_3   0.646372 0.225696 0.378475 -0.896515
C10   C     C_3   0.613505 0.263686 0.861971 -0.372629
C11   C     C_3   0.635153 0.346951 0.784891 -0.902336
C12   C     C_3   0.377184 0.753598 0.152974 -0.395301
C13   C     C_R   0.977821 0.588198 0.328711 -0.240510
C14   C     C_3   0.406115 0.714967 0.239188 -0.900680
C15   C     C_3   0.857622 0.612250 0.264401 -0.374688
C16   C     C_3   0.778641 0.629160 0.347881 -0.893280
C17   C     C_3   0.144989 0.376457 0.759485 -0.371392
C18   C     C_3   0.223572 0.411956 0.742470 -0.861712
C19   C     C_R   0.048463 0.400883 0.666076 -0.295866
C20   C     C_R   0.965476 0.179006 0.436694 0.915976
C21   C     C_R   0.034591 0.820622 0.563681 0.914654
C22   C     C_R   0.179244 0.436712 0.965371 0.901151
C23   C     C_R   0.820646 0.562813 0.036059 0.919404
C24   C     C_R   0.436651 0.964932 0.179348 0.928121
C25   C     C_R   0.563562 0.033921 0.820821 0.895746
C26   C     C_R   0.562595 0.820636 0.036428 0.932701
C27   C     C_R   0.601692 0.938984 0.339832 -0.296160
C28   C     C_R   0.436685 0.179192 0.965439 0.897119
C29   C     C_R   0.034740 0.563190 0.821320 0.922558
C30   C     C_R   0.966550 0.436021 0.179228 0.904047
C31   C     C_R   0.820792 0.034320 0.563375 0.899947
C32   C     C_R   0.179424 0.963780 0.437182 0.916639
C33   C     C_R   0.449448 0.052696 0.706422 0.197927
C34   C     C_R   0.560985 0.913457 0.298845 0.187305
C35   C     C_R   0.088124 0.694322 0.447312 0.197796
C36   C     C_R   0.925389 0.297908 0.556839 0.185025
C37   C     C_R   0.698246 0.439999 0.093258 0.185046
C38   C     C_R   0.063900 0.655848 0.402682 -0.264610
C39   C     C_R   0.297301 0.551157 0.936914 0.198793
C40   C     C_R   0.302201 0.905025 0.559755 0.185784
C41   C     C_R   0.702769 0.061369 0.449732 0.198909
C42   C     C_R   0.551112 0.293461 0.945224 0.198818
C43   C     C_R   0.440073 0.700523 0.085028 0.205640
C44   C     C_R   0.941502 0.550580 0.294590 0.198648
C45   C     C_R   0.078121 0.441020 0.704284 0.189550
C46   C     C_R   0.548718 0.000375 0.549132 0.013774
C47   C     C_R   0.466315 0.950654 0.465551 0.017692
C48   C     C_R   0.033150 0.536860 0.541315 0.017084
C49   C     C_R   0.956831 0.334943 0.596525 -0.295856
C50   C     C_R   0.984896 0.454175 0.457277 0.014379
C51   C     C_R   0.534926 0.534831 0.045936 0.016965
C52   C     C_R   0.452136 0.451381 0.996916 0.014942
C53   C     C_R   0.593311 0.992263 0.460619 0.033480
C54   C     C_R   0.422461 0.957094 0.554655 0.044405
C55   C     C_R   0.020932 0.449612 0.586659 0.046897
C56   C     C_R   0.001890 0.539847 0.409928 0.033810
C57   C     C_R   0.447348 0.580177 0.033724 0.039376
C58   C     C_R   0.538900 0.404819 0.011409 0.034102
C59   C     C_R   0.553716 0.963095 0.420526 0.045805
C60   C     C_R   0.657058 0.397177 0.070045 -0.293589
C61   C     C_R   0.461980 0.986050 0.595220 0.033601
C62   C     C_R   0.407584 0.540168 0.004856 0.033938
C63   C     C_R   0.578565 0.445294 0.040212 0.043949
C64   C     C_R   0.990939 0.410566 0.546674 0.047184
C65   C     C_R   0.029698 0.579773 0.451010 0.035116
C66   C     C_R   0.544337 0.040253 0.676267 0.043961
C67   C     C_R   0.464523 0.929027 0.330282 0.076377
C68   C     C_R   0.058699 0.669883 0.542698 0.063982
C69   C     C_R   0.944084 0.326919 0.460701 0.081350
C70   C     C_R   0.668773 0.536541 0.071449 0.080050
C71   C     C_R   0.331538 0.590521 0.971173 -0.244828
C72   C     C_R   0.325705 0.455942 0.954712 0.046214
C73   C     C_R   0.332049 0.926015 0.463550 0.078829
C74   C     C_R   0.674547 0.043629 0.544643 0.045136
C75   C     C_R   0.456204 0.324073 0.957577 0.043276
C76   C     C_R   0.536653 0.670121 0.067348 0.065782
C77   C     C_R   0.953008 0.456069 0.326435 0.045291
C78   C     C_R   0.060552 0.537435 0.673843 0.076167
C79   C     C_R   0.593724 0.049487 0.723349 -0.134339
C80   C     C_R   0.409140 0.938914 0.278294 -0.117757
C81   C     C_R   0.054277 0.721864 0.594561 -0.123458
C82   C     C_R   0.343636 0.928017 0.602371 -0.293387
C83   C     C_R   0.944658 0.277309 0.408056 -0.115214
C84   C     C_R   0.721445 0.591343 0.060814 -0.116898
C85   C     C_R   0.277432 0.406470 0.947914 -0.129697
C86   C     C_R   0.278961 0.937562 0.408853 -0.115621
C87   C     C_R   0.722651 0.051058 0.593821 -0.130329
C88   C     C_R   0.406623 0.276844 0.948995 -0.134589
C89   C     C_R   0.591248 0.721918 0.059424 -0.130656
C90   C     C_R   0.948628 0.405895 0.277444 -0.129896
C91   C     C_R   0.056005 0.591752 0.723785 -0.118721
C92   C     C_R   0.680716 0.056395 0.680823 -0.301193
C93   C     C_R   0.669084 0.026353 0.410557 -0.243612
C94   C     C_R   0.319369 0.939668 0.319254 -0.336854
C95   C     C_R   0.054608 0.681353 0.683146 -0.334765
C96   C     C_R   0.943131 0.318627 0.319556 -0.322637
C97   C     C_R   0.681079 0.681195 0.058195 -0.333415
C98   C     C_R   0.319448 0.319283 0.942497 -0.302482
C99   C     C_R   0.590146 0.025721 0.590929 0.004934
C100  C     C_R   0.421080 0.934926 0.419862 -0.018597
C101  C     C_R   0.049114 0.581817 0.586687 -0.006870
C102  C     C_R   0.961890 0.411774 0.414539 -0.009662
C103  C     C_R   0.580224 0.580536 0.061380 -0.009910
C104  C     C_R   0.588518 0.325957 0.983270 -0.241994
C105  C     C_R   0.410465 0.409611 0.971965 0.004542
C106  C     C_3   0.386780 0.136215 0.736127 -0.372617
C107  C     C_3   0.364256 0.213478 0.653362 -0.902231
C108  C     C_3   0.626429 0.852416 0.238652 -0.368544
C109  C     C_3   0.591940 0.776441 0.248504 -0.877822
C110  C     C_3   0.171461 0.728871 0.398222 -0.397163
C111  C     C_3   0.250924 0.661896 0.436878 -0.896963
C112  C     C_3   0.857468 0.243874 0.621586 -0.370095
C113  C     C_3   0.778899 0.260466 0.586294 -0.858284
C114  C     C_3   0.756868 0.378901 0.157537 -0.383443
H1    H     H_    0.339863 0.022817 0.700211 0.139888
H2    H     H_    0.326614 0.687313 0.067340 0.132607
H3    H     H_    0.971436 0.660091 0.300790 0.138060
H4    H     H_    0.056442 0.328708 0.693388 0.136902
H5    H     H_    0.718380 0.060482 0.717977 0.192480
H6    H     H_    0.278102 0.949009 0.278558 0.198417
H7    H     H_    0.049197 0.721746 0.722620 0.201802
H8    H     H_    0.943566 0.280075 0.280835 0.196757
H9    H     H_    0.722168 0.721989 0.049262 0.200765
H10   H     H_    0.281644 0.281827 0.938985 0.193090
H11   H     H_    0.426785 0.218385 0.595987 0.266863
H12   H     H_    0.673879 0.931707 0.312361 0.134782
H13   H     H_    0.315294 0.202711 0.632209 0.262621
H14   H     H_    0.334505 0.278732 0.668844 0.261422
H15   H     H_    0.323409 0.122300 0.787657 0.190485
H16   H     H_    0.418720 0.159823 0.765635 0.209806
H17   H     H_    0.648184 0.726363 0.215551 0.248676
H18   H     H_    0.564513 0.741754 0.320854 0.256411
H19   H     H_    0.538722 0.803070 0.214515 0.248263
H20   H     H_    0.647853 0.891634 0.166997 0.228090
H21   H     H_    0.690800 0.818131 0.258193 0.190480
H22   H     H_    0.230739 0.640645 0.511753 0.267145
H23   H     H_    0.082160 0.678190 0.329599 0.133310
H24   H     H_    0.278163 0.600166 0.414146 0.267433
H25   H     H_    0.305151 0.693889 0.415899 0.254139
H26   H     H_    0.192314 0.736192 0.324854 0.198279
H27   H     H_    0.159461 0.796333 0.403339 0.224947
H28   H     H_    0.746470 0.334317 0.561858 0.254987
H29   H     H_    0.800556 0.229693 0.531560 0.237684
H30   H     H_    0.727496 0.228151 0.641549 0.240827
H31   H     H_    0.891391 0.170533 0.644824 0.228093
H32   H     H_    0.825331 0.264625 0.684707 0.186641
H33   H     H_    0.773200 0.473393 0.206545 0.236258
H34   H     H_    0.946271 0.309388 0.668900 0.137701
H35   H     H_    0.667974 0.443500 0.264422 0.257397
H36   H     H_    0.773890 0.364226 0.284456 0.246308
H37   H     H_    0.739152 0.313766 0.192547 0.191438
H38   H     H_    0.829782 0.358293 0.121283 0.233472
H39   H     H_    0.382773 0.667066 0.776002 0.263987
H40   H     H_    0.405513 0.553442 0.772787 0.265135
H41   H     H_    0.336721 0.646764 0.708156 0.262057
H42   H     H_    0.231195 0.579284 0.835635 0.208382
H43   H     H_    0.222944 0.677478 0.859482 0.188300
H44   H     H_    0.223932 0.793707 0.527975 0.248541
H45   H     H_    0.682802 0.324389 0.082326 0.135127
H46   H     H_    0.329552 0.734035 0.556897 0.258057
H47   H     H_    0.223523 0.715243 0.636680 0.249036
H48   H     H_    0.260611 0.806296 0.685986 0.192214
H49   H     H_    0.170014 0.879068 0.641788 0.233282
H50   H     H_    0.618566 0.220904 0.331201 0.263609
H51   H     H_    0.593237 0.226240 0.444234 0.265556
H52   H     H_    0.662533 0.290651 0.351456 0.261720
H53   H     H_    0.766906 0.164359 0.422042 0.207959
H54   H     H_    0.778188 0.138233 0.324238 0.188997
H55   H     H_    0.572213 0.404048 0.779949 0.266643
H56   H     H_    0.307630 0.663458 0.957841 0.138802
H57   H     H_    0.683593 0.368924 0.795556 0.262539
H58   H     H_    0.665191 0.331332 0.719933 0.260823
H59   H     H_    0.677229 0.212352 0.875534 0.190244
H60   H     H_    0.581600 0.233599 0.838915 0.209221
H61   H     H_    0.389721 0.649722 0.278635 0.274688
H62   H     H_    0.479758 0.700935 0.225744 0.259501
H63   H     H_    0.370537 0.764885 0.278371 0.259194
H64   H     H_    0.368403 0.827020 0.126272 0.242023
H65   H     H_    0.306790 0.749325 0.173420 0.179917
H66   H     H_    0.775988 0.564843 0.403271 0.268066
H67   H     H_    0.317617 0.916211 0.674837 0.134632
H68   H     H_    0.785657 0.677719 0.372336 0.262462
H69   H     H_    0.713542 0.656678 0.331825 0.261824
H70   H     H_    0.869376 0.677630 0.216000 0.189457
H71   H     H_    0.837288 0.581516 0.230871 0.209027
H72   H     H_    0.275415 0.356564 0.774228 0.242407
H73   H     H_    0.255616 0.436502 0.668798 0.255486
H74   H     H_    0.201571 0.467164 0.772917 0.237750
H75   H     H_    0.110567 0.354362 0.832549 0.229381
H76   H     H_    0.176886 0.312368 0.740186 0.186924
H77   H     H_    0.693064 0.039700 0.337885 0.139453
H78   H     H_    0.660871 0.299160 0.975236 0.139560
O1    O     O_R   0.982940 0.138950 0.510160 -0.628693
O2    O     O_R   0.982940 0.510160 0.138950 -0.636516
O3    O     O_R   0.861050 0.017060 0.489840 -0.634149
O4    O     O_R   0.138950 0.982940 0.510160 -0.629514
O5    O     O_R   0.867700 0.025880 0.612340 -0.626078
O6    O     O_R   0.132300 0.974120 0.387660 -0.641480
O7    O     O_R   0.025880 0.612340 0.867700 -0.638968
O8    O     O_R   0.974120 0.387660 0.132300 -0.628470
O9    O     O_R   0.612340 0.867700 0.025880 -0.629782
O10   O     O_R   0.387660 0.132300 0.974120 -0.630021
O11   O     O_R   0.387660 0.974120 0.132300 -0.643525
O12   O     O_R   0.017060 0.861050 0.489840 -0.638294
O13   O     O_R   0.612340 0.025880 0.867700 -0.630455
O14   O     O_R   0.132300 0.387660 0.974120 -0.627039
O15   O     O_R   0.867700 0.612340 0.025880 -0.637518
O16   O     O_R   0.974120 0.132300 0.387660 -0.636309
O17   O     O_R   0.025880 0.867700 0.612340 -0.630747
O18   O     O_R   0.138950 0.510160 0.982940 -0.634881
O19   O     O_R   0.861050 0.489840 0.017060 -0.630568
O20   O     O_R   0.510160 0.982940 0.138950 -0.629046
O21   O     O_R   0.489840 0.017060 0.861050 -0.635490
O22   O     O_R   0.489840 0.861050 0.017060 -0.640538
O23   O     O_R   0.510160 0.138950 0.982940 -0.636427
O24   O     O_R   0.017060 0.489840 0.861050 -0.630885
Zn1   Zn    Zn3+2 0.004880 0.004880 0.583590 0.904590
Zn2   Zn    Zn3+2 0.995120 0.995120 0.416410 0.915888
Zn3   Zn    Zn3+2 0.004880 0.583590 0.004880 0.914963
Zn4   Zn    Zn3+2 0.995120 0.416410 0.995120 0.904854
Zn5   Zn    Zn3+2 0.583590 0.004880 0.004880 0.910005
Zn6   Zn    Zn3+2 0.416410 0.995120 0.995120 0.907680

loop_
_geom_bond_atom_site_label_1
_geom_bond_atom_site_label_2
_ccdc_geom_bond_type
C10   H60   S    
C48   C55   A    
C12   H64   S    
C46   C99   A    
C24   O11   A    
C11   H57   S    
C10   C42   S    
C50   C64   A    
O10   Zn6   S    
C30   O8    A    
O11   Zn6   S    
C60   H45   S    
C114  H38   S    
C32   O4    A    
C6    H49   S    
C72   C85   A    
C53   C59   A    
C2    C57   A    
C111  H25   S    
C57   C62   A    
C7    H44   S    
C69   C102  A    
C108  C109  S    
C26   C89   S    
O1    Zn1   S    
C66   C79   A    
C15   H71   S    
C82   H67   S    
C42   C75   A    
C14   H61   S    
C25   O21   A    
C60   C63   A    
C68   C81   A    
C44   C77   A    
C92   H5    S    
C17   C45   S    
C107  H14   S    
C12   C43   S    
C81   C95   A    
C27   H12   S    
C16   H68   S    
C111  H22   S    
C106  C107  S    
C83   C96   A    
C51   C103  A    
C56   C65   A    
C104  H78   S    
C18   H73   S    
C43   C76   A    
C112  H31   S    
C22   O14   A    
C28   C88   S    
C22   C85   S    
O13   Zn5   S    
C110  C111  S    
C32   O6    A    
C85   C98   A    
O22   Zn6   S    
C10   H59   S    
C41   C74   A    
C2    H2    S    
C24   C80   S    
C41   C93   A    
C6    H48   S    
C19   H4    S    
C21   O17   A    
C8    C9    S    
C29   O7    A    
C5    H40   S    
C36   C112  S    
C14   H62   S    
C39   C72   A    
C4    C39   S    
C45   C78   A    
C51   C57   A    
O9    Zn5   S    
C74   C87   A    
C70   C84   A    
C42   C104  A    
C30   C90   S    
C76   C89   A    
C13   C56   A    
C23   O15   A    
C95   H7    S    
C76   C103  A    
C11   H58   S    
C49   C64   A    
C87   C92   A    
C55   C64   A    
C78   C101  A    
C21   O12   A    
O19   Zn4   S    
C77   C102  A    
O6    Zn2   S    
C94   H6    S    
C114  H37   S    
O5    Zn1   S    
O23   Zn5   S    
C86   C94   A    
C112  C113  S    
C33   C66   A    
O4    Zn1   S    
C6    C7    S    
O20   Zn5   S    
C93   H77   S    
C27   C34   A    
O16   Zn2   S    
C77   C90   A    
C16   H69   S    
C47   C59   A    
C3    H35   S    
C23   C84   S    
C33   C106  S    
C46   C61   A    
C109  H19   S    
C9    H51   S    
C37   C60   A    
C40   C82   A    
C26   O9    A    
C31   C87   S    
C68   C101  A    
C107  H11   S    
C108  H21   S    
C73   C100  A    
C70   C103  A    
C29   O24   A    
C37   C114  S    
C8    H54   S    
C17   H75   S    
C5    H41   S    
C48   C65   A    
C53   C93   A    
C18   H72   S    
C50   C56   A    
O18   Zn3   S    
C113  H29   S    
C49   H34   S    
O12   Zn2   S    
C66   C99   A    
C9    H50   S    
C98   H10   S    
C108  H20   S    
C109  H17   S    
C69   C83   A    
C8    H53   S    
C47   C100  A    
C50   C102  A    
C7    H47   S    
O21   Zn6   S    
C4    H43   S    
C24   O20   A    
C38   C65   A    
C2    C43   A    
C32   C86   S    
C15   H70   S    
C35   C38   A    
C109  H18   S    
C17   C18   S    
C71   H56   S    
C51   C63   A    
C8    C41   S    
C79   C92   A    
C74   C99   A    
C35   C110  S    
C52   C58   A    
C67   C100  A    
C47   C54   A    
C4    H42   S    
C12   C14   S    
C52   C105  A    
C11   H55   S    
O8    Zn4   S    
C6    C40   S    
C110  H27   S    
C58   C104  A    
C84   C97   A    
C80   C94   A    
C20   O1    A    
C54   C82   A    
C36   C69   A    
C19   C55   A    
C58   C63   A    
C106  H16   S    
C9    H52   S    
C3    H36   S    
C39   C71   A    
O14   Zn4   S    
C25   C79   S    
C106  H15   S    
C67   C80   A    
O24   Zn4   S    
C21   C81   S    
C4    C5    S    
C3    C114  S    
C1    C61   A    
C34   C67   A    
C15   C44   S    
C13   H3    S    
C19   C45   A    
C90   C96   A    
O2    Zn3   S    
C7    H46   S    
C54   C61   A    
C78   C91   A    
C1    H1    S    
O15   Zn3   S    
C113  H30   S    
C96   H8    S    
C26   O22   A    
C17   H76   S    
C34   C108  S    
C31   O5    A    
C110  H26   S    
C28   O10   A    
C97   H9    S    
C52   C62   A    
C3    H33   S    
C31   O3    A    
C30   O2    A    
C23   O19   A    
C35   C68   A    
C28   O23   A    
C5    H39   S    
C48   C101  A    
C22   O18   A    
C46   C53   A    
C18   H74   S    
C38   H23   S    
C112  H32   S    
C62   C71   A    
O3    Zn2   S    
C73   C86   A    
C14   H63   S    
C10   C11   S    
C1    C33   A    
C91   C95   A    
O7    Zn3   S    
C16   H66   S    
C75   C88   A    
C12   H65   S    
C72   C105  A    
C25   O13   A    
C20   C83   S    
C89   C97   A    
C113  H28   S    
C20   O16   A    
C27   C59   A    
C107  H13   S    
C75   C105  A    
C40   C73   A    
C37   C70   A    
C13   C44   A    
C88   C98   A    
C36   C49   A    
C15   C16   S    
C111  H24   S    
O17   Zn1   S    
C29   C91   S    
