data_mof_unit_37545.cif
_audit_creation_date              2012-12-11T16:35:15-0500
_audit_creation_method            fapswitch 2.2
_symmetry_space_group_name_H-M    P1
_symmetry_Int_Tables_number       1
_space_group_crystal_system       triclinic
_cell_length_a                    6.92953
_cell_length_b                    17.662666
_cell_length_c                    19.525892
_cell_angle_alpha                 109.113373
_cell_angle_beta                  90.390613
_cell_angle_gamma                 90.620435
_cell_volume                      2257.8367908

loop_
_atom_site_label
_atom_site_type_symbol
_atom_type_description
_atom_site_fract_x
_atom_site_fract_y
_atom_site_fract_z
_atom_type_partial_charge
O1    O     O_R   0.505700 0.440210 0.561730 -0.542647
O2    O     O_R   0.169350 0.406300 0.412660 -0.537164
O3    O     O_R   0.005650 0.559790 0.438270 -0.542042
C1    C     C_R   0.337945 0.383340 0.384719 0.697758
O4    O     O_R   0.175560 0.430650 0.559600 -0.544818
O5    O     O_R   0.011900 0.584320 0.586250 -0.535601
C2    C     C_R   0.344646 0.415533 0.581095 0.683471
O6    O     O_R   0.499450 0.415680 0.413750 -0.534354
O7    O     O_3   0.341370 0.550390 0.508570 -0.367979
V1    V     V_3+5 0.063940 0.490650 0.498410 1.410731
O8    O     O_R   0.682570 0.593700 0.587340 -0.537806
C3    C     C_R   0.852655 0.616650 0.614935 0.697461
O9    O     O_R   0.676370 0.569350 0.440400 -0.544381
C4    C     C_R   0.845261 0.584534 0.418977 0.684318
V2    V     V_3+5 0.564750 0.509350 0.501590 1.413132
O10   O     O_3   0.837190 0.449610 0.491430 -0.367668
C5    C     C_R   0.042652 0.716808 0.315591 -0.145311
H1    H     H_    0.178822 0.745891 0.312198 0.100573
C6    C     C_R   0.031173 0.670916 0.361908 -0.167475
H2    H     H_    0.159263 0.665214 0.391857 0.120430
C7    C     C_R   0.856327 0.633885 0.370279 -0.047131
C8    C     C_R   0.693395 0.643561 0.330829 -0.167657
H3    H     H_    0.556900 0.615246 0.335431 0.113394
C9    C     C_R   0.705506 0.688442 0.283621 -0.147614
H4    H     H_    0.577983 0.692467 0.252759 0.098528
C10   C     C_R   0.880255 0.726055 0.275382 0.092528
C11   C     C_R   0.733169 0.818041 0.214202 -0.147548
H5    H     H_    0.599476 0.818382 0.242626 0.101703
C12   C     C_R   0.744308 0.863050 0.167156 -0.158763
H6    H     H_    0.618256 0.895699 0.160285 0.118259
C13   C     C_R   0.916273 0.866970 0.130494 -0.054006
C14   C     C_R   0.076779 0.824451 0.142008 -0.172372
H7    H     H_    0.211361 0.825866 0.114541 0.121965
C15   C     C_R   0.064915 0.778508 0.188355 -0.145941
H8    H     H_    0.190338 0.745079 0.194223 0.100507
C16   C     C_R   0.892961 0.774690 0.225371 0.088921
H9    H     H_    0.601538 0.653708 0.928162 0.114606
C17   C     C_R   0.066960 0.894830 0.750262 -0.142112
C18   C     C_R   0.136510 0.902761 0.686164 -0.124287
C19   C     C_R   0.117350 0.839624 0.621446 -0.120022
C20   C     C_R   0.028657 0.768073 0.620363 -0.130503
C21   C     C_R   0.958670 0.757804 0.684786 0.069625
C22   C     C_R   0.978031 0.822563 0.751106 0.069388
C23   C     C_R   0.866883 0.685181 0.683620 -0.186482
C24   C     C_R   0.794041 0.677370 0.748742 0.068161
C25   C     C_R   0.813244 0.742163 0.815053 0.069417
C26   C     C_R   0.905084 0.814788 0.816232 -0.186810
C27   C     C_R   0.705389 0.605039 0.749595 -0.143642
C28   C     C_R   0.635655 0.597160 0.813689 -0.123305
C29   C     C_R   0.654508 0.660351 0.878380 -0.120937
C30   C     C_R   0.743136 0.731912 0.879460 -0.130869
H10   H     H_    0.082719 0.946251 0.798811 0.105594
H11   H     H_    0.204310 0.958469 0.686678 0.120060
H12   H     H_    0.170177 0.846287 0.571652 0.114243
H13   H     H_    0.014122 0.721450 0.568321 0.103558
H14   H     H_    0.690011 0.553501 0.701080 0.110783
H15   H     H_    0.567957 0.541445 0.813201 0.120218
H16   H     H_    0.757525 0.778561 0.931489 0.105485
H17   H     H_    0.592412 0.482514 0.195932 0.119024
C31   C     C_R   0.226377 0.219807 0.372016 -0.141171
C32   C     C_R   0.181050 0.141698 0.368910 -0.117914
C33   C     C_R   0.214464 0.078013 0.306069 -0.125189
C34   C     C_R   0.293578 0.091905 0.245815 -0.137098
C35   C     C_R   0.339020 0.170651 0.246810 0.073771
C36   C     C_R   0.304539 0.236050 0.311430 0.067594
C37   C     C_R   0.420770 0.184377 0.185218 -0.187916
C38   C     C_R   0.468453 0.263852 0.188714 0.067922
C39   C     C_R   0.434009 0.329248 0.253336 0.074239
C40   C     C_R   0.352214 0.315534 0.314935 -0.188382
C41   C     C_R   0.546518 0.280089 0.128104 -0.140717
C42   C     C_R   0.591756 0.358195 0.131187 -0.117143
C43   C     C_R   0.558386 0.421878 0.194029 -0.125769
C44   C     C_R   0.479435 0.407981 0.254312 -0.135406
H18   H     H_    0.199817 0.267001 0.422529 0.108641
H19   H     H_    0.120795 0.130497 0.415751 0.115971
H20   H     H_    0.180302 0.017371 0.304126 0.119785
H21   H     H_    0.320637 0.040028 0.198896 0.103102
H22   H     H_    0.573029 0.232901 0.077582 0.107534
H23   H     H_    0.651877 0.369392 0.084322 0.115179
H24   H     H_    0.452392 0.459834 0.301235 0.101411
C45   C     C_R   0.542536 0.286607 0.687136 -0.146676
H25   H     H_    0.679268 0.259777 0.692199 0.101501
C46   C     C_R   0.530933 0.332241 0.640634 -0.167562
H26   H     H_    0.659623 0.340045 0.612348 0.123063
C47   C     C_R   0.355467 0.366378 0.630016 -0.055222
C48   C     C_R   0.192064 0.354126 0.667557 -0.162696
H27   H     H_    0.055065 0.380211 0.661287 0.117759
C49   C     C_R   0.204249 0.309440 0.714938 -0.143552
H28   H     H_    0.076230 0.303321 0.744234 0.098833
C50   C     C_R   0.379628 0.274689 0.725344 0.089019
C51   C     C_R   0.233354 0.180220 0.784621 -0.148805
H29   H     H_    0.100087 0.177946 0.754749 0.103289
C52   C     C_R   0.244670 0.135115 0.831553 -0.165069
H30   H     H_    0.119050 0.100591 0.836969 0.116514
C53   C     C_R   0.416276 0.133466 0.869933 -0.050284
C54   C     C_R   0.576042 0.178643 0.860506 -0.167541
H31   H     H_    0.710107 0.179176 0.889517 0.121019
C55   C     C_R   0.563896 0.224794 0.814341 -0.142768
H32   H     H_    0.688704 0.260273 0.810067 0.100063
C56   C     C_R   0.392452 0.226122 0.775410 0.090582
O11   O     O_R   0.273230 0.084330 0.086440 -0.533845
O12   O     O_R   0.596660 0.069390 0.940470 -0.544746
O13   O     O_R   0.760270 0.915710 0.913690 -0.534870
C57   C     C_R   0.427498 0.084476 0.918995 0.683468
O14   O     O_R   0.603330 0.093680 0.087390 -0.538109
O15   O     O_R   0.766990 0.940160 0.061660 -0.542411
C58   C     C_R   0.434826 0.116611 0.115422 0.696602
O16   O     O_R   0.266510 0.059870 0.938470 -0.541529
O17   O     O_3   0.431050 0.949630 0.991510 -0.368052
V3    V     V_3+5 0.708490 0.009340 0.001580 1.411485
O18   O     O_R   0.096270 0.930570 0.059390 -0.544953
C59   C     C_R   0.927473 0.915680 0.081165 0.684243
O19   O     O_R   0.089600 0.906290 0.912460 -0.538597
C60   C     C_R   0.919438 0.883332 0.884939 0.697872
V4    V     V_3+5 0.207670 0.990600 0.998190 1.413661
O20   O     O_3   0.935250 0.050360 0.008480 -0.366726

loop_
_geom_bond_atom_site_label_1
_geom_bond_atom_site_label_2
_ccdc_geom_bond_type
O11   C58   A    
C26   C60   S    
O14   V3    S    
C52   H30   S    
C41   H22   S    
C20   C21   A    
C53   C54   A    
C37   C58   S    
C1    O6    A    
C42   H23   S    
C45   H25   S    
O15   C59   A    
C47   C48   A    
C32   H19   S    
O14   C58   A    
C33   C34   A    
O13   V3    S    
C5    C10   A    
O16   V4    S    
C6    C7    A    
C9    C10   A    
O5    C3    A    
C17   C18   A    
C48   C49   A    
C11   C12   A    
V2    O10   S    
C28   H15   S    
C15   H8    S    
C18   H11   S    
C20   H13   S    
O8    V2    S    
C13   C14   A    
C39   C40   A    
C54   C55   A    
C13   C59   S    
C41   C42   A    
O1    V2    S    
C51   C56   A    
O7    V1    S    
H17   C43   S    
C34   H21   S    
C37   C38   A    
C52   C53   A    
O9    C4    A    
C33   H20   S    
C21   C23   A    
C50   C56   S    
C1    C40   S    
C45   C46   A    
C29   C30   A    
C38   C39   A    
O13   C60   A    
C9    H4    S    
C51   H29   S    
O4    C2    A    
C48   H27   S    
C39   C44   A    
C24   C25   A    
C25   C30   A    
C17   C22   A    
C31   C32   A    
C35   C37   A    
O2    C1    A    
C12   H6    S    
C51   C52   A    
C46   H26   S    
C54   H31   S    
C5    H1    S    
C30   H16   S    
O12   C57   A    
O3    C4    A    
C45   C50   A    
C10   C16   S    
C19   C20   A    
C46   C47   A    
C49   C50   A    
C31   C36   A    
C55   H32   S    
O6    V2    S    
C55   C56   A    
O9    V2    S    
O11   V4    S    
C8    C9    A    
O12   V3    S    
C21   C22   A    
O2    V1    S    
V3    O20   S    
C57   O16   A    
C53   C57   S    
C4    C7    S    
O19   C60   A    
O15   V3    S    
C24   C27   A    
C27   H14   S    
C25   C26   A    
C27   C28   A    
O18   C59   A    
O1    C2    A    
C23   C24   A    
C43   C44   A    
O5    V1    S    
O8    C3    A    
C11   C16   A    
C19   H12   S    
C38   C41   A    
C35   C36   A    
C6    H2    S    
O7    V2    S    
O4    V1    S    
C12   C13   A    
O3    V1    S    
V1    O10   S    
O17   V3    S    
C14   H7    S    
H9    C29   S    
C2    C47   S    
C36   C40   A    
C31   H18   S    
C5    C6    A    
C44   H24   S    
C15   C16   A    
C32   C33   A    
O17   V4    S    
C34   C35   A    
C18   C19   A    
C42   C43   A    
C17   H10   S    
C49   H28   S    
C3    C23   S    
C28   C29   A    
C11   H5    S    
C8    H3    S    
O18   V4    S    
C7    C8    A    
C22   C26   A    
V4    O20   S    
C14   C15   A    
O19   V4    S    
