data_mof_unit_58471.cif
_audit_creation_date              2013-03-05T15:40:48-0500
_audit_creation_method            fapswitch 2.2
_symmetry_space_group_name_H-M    P1
_symmetry_Int_Tables_number       1
_space_group_crystal_system       triclinic
_cell_length_a                    7.769909
_cell_length_b                    8.665378
_cell_length_c                    14.888772
_cell_angle_alpha                 91.481667
_cell_angle_beta                  85.824161
_cell_angle_gamma                 93.655629
_cell_volume                      997.526920945

loop_
_atom_site_label
_atom_site_type_symbol
_atom_site_description
_atom_site_fract_x
_atom_site_fract_y
_atom_site_fract_z
_atom_type_partial_charge
O1    O     O_R   0.389250 0.738570 0.505970 -0.585235
O2    O     O_R   0.610750 0.261430 0.494030 -0.585218
O3    O     O_R   0.678390 0.711620 0.490370 -0.594175
O4    O     O_R   0.321610 0.288380 0.509630 -0.594175
C1    C     C_R   0.545078 0.793903 0.496382 0.911158
C2    C     C_R   0.454921 0.206098 0.503631 0.911256
O5    O     O_R   0.355420 0.513510 0.639950 -0.604557
O6    O     O_R   0.644580 0.486490 0.360050 -0.604550
O7    O     O_R   0.644560 0.486560 0.624350 -0.613572
O8    O     O_R   0.355440 0.513440 0.375650 -0.613583
C3    C     C_R   0.502259 0.501119 0.672616 0.944436
C4    C     C_R   0.497742 0.498881 0.327384 0.944530
Zn1   Zn    Zn3+2 0.306940 0.517990 0.510420 1.083743
Zn2   Zn    Zn3+2 0.693060 0.482010 0.489580 1.083744
C5    C     C_R   0.437099 0.362135 0.186989 0.260265
C6    C     C_R   0.562956 0.637837 0.813007 0.260286
C7    C     C_R   0.493326 0.496978 0.232369 -0.166580
C8    C     C_R   0.506687 0.503011 0.767629 -0.166598
C9    C     C_R   0.548354 0.631832 0.188010 -0.251785
C10   C     C_R   0.451694 0.368146 0.811986 -0.251677
C11   C     C_R   0.551052 0.635625 0.094906 0.126626
C12   C     C_R   0.449062 0.364337 0.905087 0.126673
C13   C     C_R   0.497667 0.499550 0.046955 0.003898
C14   C     C_R   0.502460 0.500407 0.953038 0.003873
C15   C     C_R   0.440208 0.362385 0.093049 -0.008718
C16   C     C_R   0.559913 0.637571 0.906943 -0.008739
C17   C     C_R   0.606112 0.772310 0.049171 0.077226
C18   C     C_R   0.394065 0.227637 0.950818 0.077158
C19   C     C_R   0.608997 0.772090 0.955495 -0.206875
C20   C     C_R   0.391187 0.227849 0.044494 -0.206800
H1    H     H_    0.588844 0.733309 0.227169 0.191837
H2    H     H_    0.411180 0.266674 0.772830 0.191918
H3    H     H_    0.649559 0.878157 0.921050 0.202293
H4    H     H_    0.350656 0.121767 0.078931 0.202358
C21   C     C_2   0.569389 0.955897 0.500774 0.023625
C22   C     C_2   0.430605 0.044104 0.499265 0.023642
N1    N     N_2   0.950330 0.457950 0.475660 -0.143992
N2    N     N_2   0.049670 0.542050 0.524340 -0.143984
H5    H     H_    0.013815 0.382336 0.432455 0.237817
H6    H     H_    0.986185 0.617664 0.567545 0.237843
N3    N     N_R   0.380468 0.225831 0.236496 0.189764
O9    O     O_R   0.488098 0.157910 0.282966 -0.390743
O10   O     O_R   0.219353 0.173971 0.238555 -0.350877
N4    N     N_R   0.619537 0.774149 0.763500 0.189718
O11   O     O_R   0.511803 0.842201 0.717169 -0.390684
O12   O     O_R   0.780686 0.825886 0.761301 -0.350799
N5    N     N_3   0.658335 0.910966 0.098000 -0.416344
H7    H     H_    0.778250 0.893937 0.122546 0.216286
H8    H     H_    0.677859 0.004908 0.054940 0.197411
N6    N     N_3   0.341864 0.088982 0.901986 -0.416279
H9    H     H_    0.221743 0.105844 0.877645 0.216284
H10   H     H_    0.322811 0.994960 0.944998 0.197442
N7    N     N_R   0.742014 0.017099 0.514462 0.237316
O13   O     O_R   0.857725 0.024674 0.446819 -0.285689
O14   O     O_R   0.784020 0.060502 0.594701 -0.284923
N8    N     N_R   0.257975 0.982904 0.485589 0.237313
O15   O     O_R   0.142289 0.975301 0.553242 -0.285685
O16   O     O_R   0.215933 0.939556 0.405348 -0.284900

loop_
_geom_bond_atom_site_label_1
_geom_bond_atom_site_label_2
_geom_bond_distance
_ccdc_geom_bond_type
C4    C7    1.417203 S    
N6    H10   1.045748 S    
O7    Zn2   2.014330 S    
C3    C8    1.417191 S    
N1    N2    1.278515 D    
C22   N8    1.437122 S    
N1    H5    1.029388 S    
N8    O16   1.301186 A    
C21   N7    1.437123 S    
C10   C12   1.386034 A    
N3    O10   1.301306 A    
N3    O9    1.300981 A    
C6    N4    1.436461 S    
C21   C22   1.362746 D    
O6    C4    1.284098 A    
C13   C14   1.396295 A    
C9    H1    1.084916 S    
O3    C1    1.291008 A    
C18   C20   1.393216 A    
N6    H9    1.045562 S    
C11   C17   1.408630 A    
N5    H8    1.045842 S    
C12   C18   1.408604 A    
N7    O13   1.300366 A    
N4    O11   1.300914 A    
Zn2   N1    2.018132 S    
O5    C3    1.284102 A    
O7    C3    1.285380 A    
C14   C16   1.418767 A    
Zn1   N2    2.018132 S    
O2    C2    1.273031 A    
O3    Zn2   1.999845 S    
O8    C4    1.285391 A    
O1    C1    1.273025 A    
C1    C21   1.404879 S    
O4    C2    1.290998 A    
N2    H6    1.029390 S    
C2    C22   1.404868 S    
C8    C10   1.385508 A    
N7    O14   1.301188 A    
C11   C13   1.417518 A    
C6    C16   1.397129 A    
O2    Zn2   1.977722 S    
C12   C14   1.417509 A    
C5    C15   1.397143 A    
C17   C19   1.393226 A    
C20   H4    1.082129 S    
C19   H3    1.082120 S    
O5    Zn1   1.993542 S    
C13   C15   1.418781 A    
O1    Zn1   1.977721 S    
N8    O15   1.300361 A    
C5    N3    1.436491 S    
C16   C19   1.402372 A    
C6    C8    1.396304 A    
C10   H2    1.084915 S    
C17   N5    1.439584 S    
C15   C20   1.402396 A    
C5    C7    1.396340 A    
O6    Zn2   1.993543 S    
C7    C9    1.385507 A    
C18   N6    1.439560 S    
N5    H7    1.045642 S    
O4    Zn1   1.999846 S    
N4    O12   1.301176 A    
C9    C11   1.386044 A    
O8    Zn1   2.014332 S    
