data_mof_unit_19400.cif
_audit_creation_date              2012-12-10T18:04:02-0500
_audit_creation_method            fapswitch 2.2
_symmetry_space_group_name_H-M    P1
_symmetry_Int_Tables_number       1
_space_group_crystal_system       triclinic
_cell_length_a                    10.825168
_cell_length_b                    9.557531
_cell_length_c                    10.875692
_cell_angle_alpha                 89.977853
_cell_angle_beta                  90.377448
_cell_angle_gamma                 90.013195
_cell_volume                      1125.19499767

loop_
_atom_site_label
_atom_site_type_symbol
_atom_type_description
_atom_site_fract_x
_atom_site_fract_y
_atom_site_fract_z
_atom_type_partial_charge
C1    C     C_R   0.262192 0.499957 0.500151 0.798574
C2    C     C_R   0.737802 0.499978 0.500010 0.825589
C3    C     C_R   0.400168 0.074041 0.457660 0.090932
C4    C     C_R   0.599943 0.074105 0.542072 0.095252
C5    C     C_R   0.400680 0.925765 0.456378 0.068673
C6    C     C_R   0.599378 0.925810 0.543497 0.062154
C7    C     C_R   0.496625 0.498923 0.262149 0.867382
C8    C     C_R   0.505467 0.499805 0.737171 0.904736
C9    C     C_R   0.454750 0.609508 0.059587 -0.122463
C10   C     C_R   0.450052 0.606047 0.933753 -0.042423
C11   C     C_R   0.489705 0.492626 0.128242 -0.165134
C12   C     C_R   0.505728 0.497267 0.870149 -0.259637
C13   C     C_R   0.516216 0.367653 0.061788 0.288612
C14   C     C_R   0.546849 0.378840 0.936574 0.328155
C15   C     C_3   0.467324 0.760001 0.922241 0.276653
C16   C     C_3   0.480960 0.763369 0.063161 0.244210
C17   C     C_R   0.063847 0.372846 0.501865 -0.158944
C18   C     C_R   0.936078 0.372858 0.501849 -0.117117
C19   C     C_R   0.871702 0.500007 0.500295 -0.009769
C20   C     C_R   0.128278 0.499985 0.500448 -0.014293
C21   C     C_R   0.936120 0.627159 0.499074 -0.162559
C22   C     C_R   0.063901 0.627151 0.499253 -0.129288
Cu1   Cu    Cu3+1 0.500000 0.640660 0.500000 1.038277
Cu2   Cu    Cu3+1 0.500000 0.359340 0.500000 1.065613
H1    H     H_    0.551659 0.787953 0.869800 0.149640
H2    H     H_    0.409835 0.823956 0.113269 0.174915
H3    H     H_    0.111847 0.273416 0.502981 0.154665
H4    H     H_    0.888036 0.273440 0.503009 0.157287
H5    H     H_    0.888103 0.726580 0.497880 0.158653
H6    H     H_    0.111950 0.726572 0.498312 0.161632
H7    H     H_    0.319548 0.128883 0.423961 0.139008
H8    H     H_    0.680415 0.129064 0.576108 0.147554
H9    H     H_    0.321061 0.870706 0.420447 0.110216
H10   H     H_    0.678987 0.870777 0.579472 0.115814
N1    N     N_R   0.500000 0.852070 0.500000 -0.161504
N2    N     N_R   0.500000 0.147940 0.500000 -0.173038
O1    O     O_R   0.319640 0.618740 0.499990 -0.588619
O2    O     O_R   0.680360 0.618740 0.500010 -0.598409
O3    O     O_R   0.319620 0.381170 0.499990 -0.605847
O4    O     O_R   0.680380 0.381170 0.500010 -0.586273
O5    O     O_R   0.499990 0.618810 0.319660 -0.556356
O6    O     O_R   0.500010 0.618810 0.680340 -0.570548
O7    O     O_R   0.499960 0.381240 0.319650 -0.522468
O8    O     O_R   0.500040 0.381240 0.680350 -0.535763
S1    S     S_3+6 0.485797 0.197852 0.121257 0.081974
O9    O     O_2   0.591655 0.150382 0.200971 -0.170634
O10   O     O_2   0.369029 0.199590 0.195225 -0.335218
O11   O     O_3   0.465250 0.084124 0.006247 -0.425311
H11   H     H_    0.395891 0.124213 0.958027 0.374178
S2    S     S_3+6 0.663588 0.267665 0.876089 0.062750
O12   O     O_2   0.605836 0.145243 0.811145 -0.258965
O13   O     O_2   0.742221 0.347701 0.786877 -0.334237
O14   O     O_3   0.754372 0.209236 0.991122 -0.435575
H12   H     H_    0.821976 0.157882 0.949995 0.383115
S3    S     S_3+6 0.328824 0.838108 0.860391 0.015107
O15   O     O_2   0.364427 0.955566 0.775815 -0.294396
O16   O     O_2   0.256852 0.731343 0.787893 -0.279735
O17   O     O_3   0.238718 0.900453 0.973273 -0.534668
H13   H     H_    0.171441 0.951441 0.930371 0.381263
S4    S     S_3+6 0.637282 0.801553 0.110391 0.049383
O18   O     O_2   0.688954 0.916783 0.032159 -0.196158
O19   O     O_2   0.638352 0.847627 0.242432 -0.257595
O20   O     O_3   0.726828 0.658818 0.095029 -0.547026
H14   H     H_    0.805619 0.683114 0.136631 0.378004

loop_
_geom_bond_atom_site_label_1
_geom_bond_atom_site_label_2
_ccdc_geom_bond_type
S2    O13   D    
Cu1   Cu2   S    
C4    N2    A    
C22   H6    S    
C13   C14   A    
Cu1   O2    S    
C11   C13   A    
C9    C10   A    
C2    O2    A    
C7    C11   S    
Cu1   O5    S    
C1    O1    A    
C8    C12   S    
C6    H10   S    
Cu2   O3    S    
S3    O15   D    
C7    O5    A    
C17   C18   A    
C2    C19   S    
C15   S3    S    
Cu2   N2    S    
S1    O9    D    
C3    H7    S    
C13   S1    S    
C9    C11   A    
C8    O8    A    
C4    H8    S    
Cu1   O6    S    
C10   C12   A    
C3    N2    A    
S4    O20   S    
C5    N1    A    
C21   C22   A    
O11   H11   S    
C19   C21   A    
C9    C16   S    
C12   C14   A    
S2    O12   D    
Cu1   N1    S    
C10   C15   S    
S3    O16   D    
C16   H2    S    
Cu2   O8    S    
S3    O17   S    
S2    O14   S    
C15   H1    S    
C14   S2    S    
C8    O6    A    
C15   C16   S    
C17   H3    S    
C2    O4    A    
C17   C20   A    
C18   H4    S    
C6    N1    A    
S4    O19   D    
C4    C6    A    
C16   S4    S    
S1    O10   D    
C7    O7    A    
Cu2   O7    S    
C1    O3    A    
C18   C19   A    
C1    C20   S    
Cu1   O1    S    
S1    O11   S    
Cu2   O4    S    
O17   H13   S    
O14   H12   S    
C21   H5    S    
O20   H14   S    
C20   C22   A    
S4    O18   D    
C3    C5    A    
C5    H9    S    
