data_mof_unit_22750.cif
_audit_creation_date              2013-03-05T15:47:19-0500
_audit_creation_method            fapswitch 2.2
_symmetry_space_group_name_H-M    P1
_symmetry_Int_Tables_number       1
_space_group_crystal_system       triclinic
_cell_length_a                    19.439716
_cell_length_b                    11.344456
_cell_length_c                    18.655283
_cell_angle_alpha                 89.999986
_cell_angle_beta                  89.398596
_cell_angle_gamma                 89.999843
_cell_volume                      4113.87894237

loop_
_atom_site_label
_atom_site_type_symbol
_atom_site_description
_atom_site_fract_x
_atom_site_fract_y
_atom_site_fract_z
_atom_type_partial_charge
O1    O     O_R   0.214130 0.708570 0.829890 -0.514846
O2    O     O_R   0.785870 0.708570 0.170110 -0.514848
O3    O     O_R   0.714130 0.208570 0.829890 -0.514864
O4    O     O_R   0.285870 0.208570 0.170110 -0.514843
O5    O     O_R   0.236050 0.959150 0.825270 -0.465545
O6    O     O_R   0.763950 0.959150 0.174730 -0.465569
O7    O     O_R   0.736050 0.459150 0.825270 -0.465611
O8    O     O_R   0.263950 0.459150 0.174730 -0.465562
C1    C     C_R   0.272659 0.042673 0.854275 0.587778
C2    C     C_R   0.727342 0.042674 0.145725 0.587747
C3    C     C_R   0.772659 0.542672 0.854276 0.587796
C4    C     C_R   0.227341 0.542673 0.145725 0.587741
O9    O     O_R   0.332100 0.076650 0.832310 -0.537912
O10   O     O_R   0.667900 0.076650 0.167690 -0.537925
O11   O     O_R   0.832100 0.576650 0.832310 -0.537894
O12   O     O_R   0.167900 0.576650 0.167690 -0.537934
O13   O     O_R   0.446500 0.918620 0.826240 -0.501638
O14   O     O_R   0.553500 0.918620 0.173760 -0.501597
O15   O     O_R   0.946500 0.418620 0.826240 -0.501618
O16   O     O_R   0.053500 0.418620 0.173760 -0.501607
C5    C     C_R   0.444278 0.817335 0.862564 0.529576
C6    C     C_R   0.555722 0.817335 0.137435 0.529593
C7    C     C_R   0.944281 0.317335 0.862561 0.529610
C8    C     C_R   0.055725 0.317334 0.137437 0.529603
O17   O     O_R   0.457310 0.715830 0.831280 -0.504324
O18   O     O_R   0.542690 0.715830 0.168720 -0.504396
O19   O     O_R   0.957310 0.215830 0.831280 -0.504400
O20   O     O_R   0.042690 0.215830 0.168720 -0.504370
O21   O     O_R   0.321000 0.623520 0.824130 -0.514195
O22   O     O_R   0.679000 0.623520 0.175870 -0.514181
O23   O     O_R   0.821000 0.123520 0.824130 -0.514167
O24   O     O_R   0.179000 0.123520 0.175870 -0.514198
C9    C     C_R   0.261843 0.641520 0.854758 0.547581
C10   C     C_R   0.738157 0.641520 0.145242 0.547592
C11   C     C_R   0.761842 0.141519 0.854758 0.547599
C12   C     C_R   0.238157 0.141520 0.145242 0.547579
O25   O     O_R   0.213990 0.710040 0.667000 -0.519881
O26   O     O_R   0.786010 0.710040 0.333000 -0.519886
O27   O     O_R   0.713990 0.210040 0.667000 -0.519936
O28   O     O_R   0.286010 0.210040 0.333000 -0.519883
O29   O     O_R   0.235920 0.960520 0.674260 -0.504709
O30   O     O_R   0.764080 0.960520 0.325740 -0.504817
O31   O     O_R   0.735920 0.460520 0.674260 -0.505095
O32   O     O_R   0.264080 0.460520 0.325740 -0.504772
C13   C     C_R   0.276459 0.037447 0.643998 0.576661
C14   C     C_R   0.723581 0.037546 0.355963 0.576794
C15   C     C_R   0.776395 0.537604 0.644055 0.576942
C16   C     C_R   0.223581 0.537542 0.355965 0.576772
O33   O     O_R   0.331960 0.078120 0.669410 -0.521034
O34   O     O_R   0.668040 0.078120 0.330590 -0.521081
O35   O     O_R   0.831960 0.578120 0.669410 -0.520939
O36   O     O_R   0.168040 0.578120 0.330590 -0.521125
O37   O     O_R   0.446360 0.919990 0.675230 -0.517273
O38   O     O_R   0.553640 0.919990 0.324770 -0.517149
O39   O     O_R   0.946360 0.419990 0.675230 -0.517148
O40   O     O_R   0.053640 0.419990 0.324770 -0.517160
C17   C     C_R   0.471851 0.823515 0.647094 0.556579
C18   C     C_R   0.528152 0.823515 0.352909 0.556435
C19   C     C_R   0.971854 0.323512 0.647094 0.556419
C20   C     C_R   0.028146 0.323513 0.352904 0.556478
O41   O     O_R   0.457170 0.717300 0.668380 -0.504066
O42   O     O_R   0.542830 0.717300 0.331620 -0.504300
O43   O     O_R   0.957170 0.217300 0.668380 -0.504312
O44   O     O_R   0.042830 0.217300 0.331620 -0.504288
O45   O     O_R   0.320870 0.624890 0.673130 -0.495539
O46   O     O_R   0.679130 0.624890 0.326870 -0.495520
O47   O     O_R   0.820870 0.124890 0.673130 -0.495482
O48   O     O_R   0.179130 0.124890 0.326870 -0.495560
C21   C     C_R   0.272219 0.680477 0.636151 0.541139
C22   C     C_R   0.727775 0.680510 0.363843 0.541206
C23   C     C_R   0.772216 0.180470 0.636155 0.541260
C24   C     C_R   0.227775 0.180499 0.363843 0.541172
Cr1   Cr    Cr6+3 0.229620 0.836040 0.749110 1.052084
Cr2   Cr    Cr6+3 0.770380 0.836040 0.250890 1.052038
Cr3   Cr    Cr6+3 0.729620 0.336040 0.749110 1.051895
Cr4   Cr    Cr6+3 0.270380 0.336040 0.250890 1.052071
Cr5   Cr    Cr6+3 0.387630 0.990680 0.750730 1.008934
Cr6   Cr    Cr6+3 0.612370 0.990680 0.249270 1.008995
Cr7   Cr    Cr6+3 0.887630 0.490680 0.750730 1.009054
Cr8   Cr    Cr6+3 0.112370 0.490680 0.249270 1.008966
Cr9   Cr    Cr6+3 0.386020 0.676590 0.749210 1.030023
Cr10  Cr    Cr6+3 0.613980 0.676590 0.250790 1.029994
Cr11  Cr    Cr6+3 0.886020 0.176590 0.749210 1.030037
Cr12  Cr    Cr6+3 0.113980 0.176590 0.250790 1.029972
O49   O     O_3   0.334430 0.834430 0.749680 -0.325570
O50   O     O_3   0.665570 0.834430 0.250320 -0.325549
O51   O     O_3   0.834430 0.334430 0.749680 -0.325507
O52   O     O_3   0.165570 0.334430 0.250320 -0.325541
C25   C     C_3   0.479965 0.917072 0.036224 -0.109205
C26   C     C_3   0.520035 0.917072 0.963776 -0.109216
C27   C     C_3   0.979969 0.417070 0.036224 -0.109210
C28   C     C_3   0.020036 0.417070 0.963775 -0.109213
C29   C     C_3   0.431536 0.819603 0.008055 -0.143416
C30   C     C_3   0.568465 0.819603 0.991945 -0.143414
C31   C     C_3   0.931539 0.319602 0.008056 -0.143413
C32   C     C_3   0.068465 0.319600 0.991942 -0.143416
H1    H     H_    0.376775 0.806786 0.020001 0.125595
H2    H     H_    0.623226 0.806786 0.980000 0.125593
H3    H     H_    0.876779 0.306788 0.020003 0.125598
H4    H     H_    0.123225 0.306786 0.979995 0.125599
H5    H     H_    0.465324 0.997558 0.066401 0.122723
H6    H     H_    0.534676 0.997559 0.933599 0.122712
H7    H     H_    0.965329 0.497558 0.066400 0.122721
H8    H     H_    0.034676 0.497557 0.933598 0.122721
C33   C     C_3   0.471511 0.821283 0.936453 0.032951
C34   C     C_3   0.528490 0.821283 0.063547 0.032953
C35   C     C_3   0.971511 0.321282 0.936452 0.032950
C36   C     C_3   0.028493 0.321281 0.063546 0.032947
C37   C     C_3   0.519336 0.724680 0.964092 -0.089381
C38   C     C_3   0.480665 0.724679 0.035908 -0.089402
C39   C     C_3   0.019336 0.224678 0.964090 -0.089390
C40   C     C_3   0.980668 0.224679 0.035907 -0.089391
H9    H     H_    0.529555 0.642076 0.934689 0.229808
H10   H     H_    0.470446 0.642075 0.065310 0.229795
H11   H     H_    0.029554 0.142073 0.934689 0.229795
H12   H     H_    0.970448 0.142074 0.065309 0.229796
C41   C     C_3   0.310513 0.524966 0.042599 0.226144
C42   C     C_3   0.689488 0.524964 0.957401 0.226143
C43   C     C_3   0.810513 0.024966 0.042599 0.226143
C44   C     C_3   0.189488 0.024966 0.957401 0.226143
H13   H     H_    0.312711 0.430056 0.049694 0.137806
H14   H     H_    0.687290 0.430055 0.950306 0.137803
H15   H     H_    0.812711 0.930057 0.049694 0.137807
H16   H     H_    0.187290 0.930056 0.950306 0.137805
C45   C     C_3   0.321417 0.554389 0.962672 -0.184482
C46   C     C_3   0.678584 0.554387 0.037328 -0.184487
C47   C     C_3   0.821417 0.054388 0.962672 -0.184484
C48   C     C_3   0.178584 0.054389 0.037327 -0.184482
H17   H     H_    0.364927 0.616942 0.956162 0.163276
H18   H     H_    0.635073 0.616938 0.043839 0.163278
H19   H     H_    0.864927 0.116940 0.956161 0.163278
H20   H     H_    0.135073 0.116941 0.043838 0.163278
H21   H     H_    0.335317 0.472712 0.932823 0.093581
H22   H     H_    0.664686 0.472710 0.067177 0.093584
H23   H     H_    0.835316 0.972711 0.932823 0.093592
H24   H     H_    0.164685 0.972712 0.067177 0.093579
H25   H     H_    0.665002 0.935503 0.047340 0.088881
H26   H     H_    0.334999 0.935502 0.952660 0.088881
H27   H     H_    0.165002 0.435502 0.047338 0.088881
H28   H     H_    0.834999 0.435501 0.952662 0.088878
H29   H     H_    0.709776 0.934604 0.925575 0.113258
H30   H     H_    0.290225 0.934605 0.074426 0.113252
H31   H     H_    0.209776 0.434605 0.925573 0.113251
H32   H     H_    0.790227 0.434606 0.074427 0.113252
C49   C     C_3   0.179432 0.521260 0.026187 -0.274185
C50   C     C_3   0.820569 0.521260 0.973813 -0.274195
C51   C     C_3   0.679432 0.021261 0.026187 -0.274184
C52   C     C_3   0.320568 0.021260 0.973813 -0.274189
C53   C     C_3   0.239846 0.705453 0.056428 -0.245820
C54   C     C_3   0.760154 0.705452 0.943573 -0.245804
C55   C     C_3   0.739846 0.205454 0.056427 -0.245820
C56   C     C_3   0.260155 0.205453 0.943572 -0.245818
C57   C     C_3   0.240435 0.572823 0.069922 0.082978
C58   C     C_3   0.759566 0.572822 0.930078 0.082975
C59   C     C_3   0.740435 0.072824 0.069922 0.082977
C60   C     C_3   0.259566 0.072823 0.930078 0.082967
H33   H     H_    0.194286 0.748674 0.081739 0.123952
H34   H     H_    0.805714 0.748673 0.918261 0.123970
H35   H     H_    0.694287 0.248675 0.081739 0.123956
H36   H     H_    0.305715 0.248674 0.918261 0.123954
H37   H     H_    0.286043 0.744896 0.080640 0.167851
H38   H     H_    0.713956 0.744896 0.919360 0.167873
H39   H     H_    0.786044 0.244898 0.080639 0.167849
H40   H     H_    0.213957 0.244897 0.919360 0.167850
C61   C     C_3   0.254688 0.609077 0.931881 0.013693
C62   C     C_3   0.745313 0.609077 0.068119 0.013693
C63   C     C_3   0.754688 0.109077 0.931881 0.013694
C64   C     C_3   0.245313 0.109077 0.068119 0.013693
C65   C     C_3   0.195188 0.522798 0.945054 -0.275345
C66   C     C_3   0.804813 0.522799 0.054946 -0.275343
C67   C     C_3   0.695188 0.022798 0.945055 -0.275347
C68   C     C_3   0.304812 0.022798 0.054946 -0.275342
C69   C     C_3   0.237821 0.723545 0.974565 -0.250503
C70   C     C_3   0.762178 0.723545 0.025435 -0.250515
C71   C     C_3   0.737822 0.223545 0.974565 -0.250504
C72   C     C_3   0.262178 0.223545 0.025435 -0.250503
H41   H     H_    0.273126 0.792837 0.958260 0.091597
H42   H     H_    0.726872 0.792836 0.041739 0.091598
H43   H     H_    0.773127 0.292836 0.958260 0.091603
H44   H     H_    0.226874 0.292837 0.041739 0.091599
H45   H     H_    0.184369 0.748871 0.960907 0.142734
H46   H     H_    0.815630 0.748872 0.039094 0.142734
H47   H     H_    0.684370 0.248871 0.960907 0.142734
H48   H     H_    0.315630 0.248871 0.039094 0.142734
H49   H     H_    0.632350 0.075469 0.035577 0.153604
H50   H     H_    0.367651 0.075468 0.964423 0.153603
H51   H     H_    0.132349 0.575468 0.035576 0.153603
H52   H     H_    0.867652 0.575467 0.964423 0.153602
H53   H     H_    0.148748 0.550720 0.915302 0.144731
H54   H     H_    0.851253 0.550723 0.084697 0.144731
H55   H     H_    0.648748 0.050720 0.915304 0.144718
H56   H     H_    0.351253 0.050721 0.084697 0.144734
C73   C     C_3   0.497840 0.703299 0.460109 -0.239401
C74   C     C_3   0.502185 0.703302 0.539895 -0.239219
C75   C     C_3   0.997820 0.203285 0.460102 -0.239295
C76   C     C_3   0.002163 0.203279 0.539892 -0.239320
H57   H     H_    0.533359 0.634390 0.440120 0.143602
H58   H     H_    0.466681 0.634378 0.559887 0.143569
H59   H     H_    0.033339 0.134376 0.440114 0.143604
H60   H     H_    0.966630 0.134388 0.559876 0.143615
H61   H     H_    0.447652 0.669403 0.443498 0.154043
H62   H     H_    0.552378 0.669429 0.556496 0.154334
H63   H     H_    0.947631 0.169403 0.443481 0.154003
H64   H     H_    0.052348 0.169372 0.556513 0.154025
H65   H     H_    0.612171 0.856599 0.448365 0.097486
H66   H     H_    0.387835 0.856550 0.551631 0.097431
H67   H     H_    0.112158 0.356480 0.448375 0.097482
H68   H     H_    0.887857 0.356443 0.551611 0.097503
H69   H     H_    0.603204 0.864235 0.576944 0.153729
H70   H     H_    0.396818 0.864142 0.423079 0.154111
H71   H     H_    0.103193 0.364128 0.576923 0.154018
H72   H     H_    0.896801 0.364198 0.423085 0.154035
C77   C     C_3   0.565526 0.898101 0.468233 -0.230088
C78   C     C_3   0.434479 0.898071 0.531773 -0.230178
C79   C     C_3   0.065525 0.398048 0.468228 -0.230113
C80   C     C_3   0.934479 0.398064 0.531771 -0.230108
C81   C     C_3   0.442471 0.900309 0.448727 -0.264165
C82   C     C_3   0.557534 0.900340 0.551281 -0.264023
C83   C     C_3   0.942470 0.400325 0.448728 -0.264111
C84   C     C_3   0.057536 0.400294 0.551273 -0.264136
C85   C     C_3   0.507397 0.830758 0.429903 0.069289
C86   C     C_3   0.492616 0.830758 0.570103 0.069521
C87   C     C_3   0.007385 0.330746 0.429898 0.069340
C88   C     C_3   0.992612 0.330742 0.570099 0.069292
H73   H     H_    0.447321 0.992746 0.429427 0.115910
H74   H     H_    0.552653 0.992777 0.570573 0.115832
H75   H     H_    0.947340 0.492767 0.429440 0.115904
H76   H     H_    0.052682 0.492735 0.570568 0.115920
H77   H     H_    0.432675 0.990851 0.550595 0.132957
H78   H     H_    0.567309 0.990881 0.449409 0.132968
H79   H     H_    0.932655 0.490840 0.550613 0.132989
H80   H     H_    0.067342 0.490829 0.449400 0.132988
C89   C     C_3   0.185723 0.675532 0.453646 -0.239072
C90   C     C_3   0.814323 0.675494 0.546337 -0.238921
C91   C     C_3   0.685677 0.175459 0.453671 -0.239065
C92   C     C_3   0.314317 0.175454 0.546331 -0.239054
H81   H     H_    0.131830 0.654093 0.439690 0.130079
H82   H     H_    0.868206 0.653958 0.560280 0.130003
H83   H     H_    0.631792 0.153986 0.439708 0.130061
H84   H     H_    0.368209 0.153973 0.560268 0.129998
H85   H     H_    0.197009 0.762771 0.429625 0.172834
H86   H     H_    0.803119 0.762780 0.570338 0.172949
H87   H     H_    0.696929 0.262736 0.429679 0.172820
H88   H     H_    0.303056 0.262686 0.570374 0.172886
C93   C     C_3   0.188014 0.683302 0.534480 -0.246980
C94   C     C_3   0.812014 0.683250 0.465506 -0.246991
C95   C     C_3   0.687974 0.183166 0.534507 -0.246980
C96   C     C_3   0.311999 0.183279 0.465502 -0.246943
H89   H     H_    0.169374 0.770100 0.552549 0.128099
H90   H     H_    0.830683 0.770030 0.447434 0.128096
H91   H     H_    0.669272 0.269902 0.552603 0.128097
H92   H     H_    0.330633 0.270093 0.447458 0.128069
H93   H     H_    0.148415 0.623140 0.557690 0.137501
H94   H     H_    0.851574 0.623014 0.442294 0.137517
H95   H     H_    0.648420 0.122914 0.557710 0.137450
H96   H     H_    0.351586 0.123128 0.442262 0.137568
H97   H     H_    0.683096 0.960465 0.490530 0.117111
H98   H     H_    0.316973 0.960478 0.509383 0.117193
H99   H     H_    0.183023 0.460535 0.490523 0.117159
H100  H     H_    0.816891 0.460406 0.509601 0.117019
H101  H     H_    0.730854 0.968787 0.597225 0.197470
H102  H     H_    0.269185 0.968845 0.402708 0.197600
H103  H     H_    0.230723 0.468865 0.597242 0.197518
H104  H     H_    0.769242 0.468914 0.402808 0.197562
C97   C     C_3   0.236377 0.476818 0.480651 -0.300522
C98   C     C_3   0.763517 0.476864 0.519389 -0.300369
C99   C     C_3   0.736441 0.976805 0.480638 -0.300562
C100  C     C_3   0.263629 0.976782 0.519300 -0.300600
C101  C     C_3   0.313042 0.627044 0.432122 -0.054584
C102  C     C_3   0.686971 0.627271 0.567925 -0.054699
C103  C     C_3   0.813008 0.127175 0.432106 -0.054577
C104  C     C_3   0.186997 0.127050 0.567880 -0.054499
C105  C     C_3   0.239723 0.580376 0.427734 0.056564
C106  C     C_3   0.760257 0.580453 0.572286 0.056703
C107  C     C_3   0.739717 0.080385 0.427732 0.056586
C108  C     C_3   0.260309 0.080317 0.572238 0.056523
H105  H     H_    0.349415 0.550919 0.432178 0.118955
H106  H     H_    0.650525 0.551231 0.567928 0.118844
H107  H     H_    0.849424 0.051110 0.432146 0.118943
H108  H     H_    0.150605 0.050951 0.567827 0.118949
C109  C     C_3   0.261282 0.642676 0.560353 0.037114
C110  C     C_3   0.738719 0.642738 0.439655 0.037082
C111  C     C_3   0.761275 0.142664 0.560355 0.037135
C112  C     C_3   0.238718 0.142688 0.439640 0.037136
C113  C     C_3   0.263620 0.508418 0.554834 -0.236762
C114  C     C_3   0.736331 0.508503 0.445189 -0.236744
C115  C     C_3   0.763700 0.008415 0.554808 -0.236847
C116  C     C_3   0.236345 0.008425 0.445149 -0.236777
C117  C     C_3   0.317543 0.687768 0.506308 -0.285774
C118  C     C_3   0.682490 0.687915 0.493710 -0.285731
C119  C     C_3   0.817483 0.187882 0.506299 -0.285795
C120  C     C_3   0.182485 0.187799 0.493704 -0.285777
H109  H     H_    0.309303 0.779117 0.495183 0.120131
H110  H     H_    0.690760 0.779262 0.504802 0.119929
H111  H     H_    0.809140 0.279224 0.495212 0.120164
H112  H     H_    0.190741 0.279160 0.504824 0.120117
H113  H     H_    0.367480 0.671641 0.529784 0.104271
H114  H     H_    0.632543 0.671799 0.470245 0.104276
H115  H     H_    0.867443 0.171832 0.529754 0.104224
H116  H     H_    0.132535 0.171674 0.470244 0.104241
H117  H     H_    0.262145 0.400756 0.458155 0.117424
H118  H     H_    0.737587 0.400888 0.541877 0.117508
H119  H     H_    0.762237 0.900780 0.458129 0.117505
H120  H     H_    0.237871 0.900719 0.541792 0.117386
H121  H     H_    0.316984 0.474684 0.561288 0.133189
H122  H     H_    0.682953 0.474834 0.438699 0.133212
H123  H     H_    0.817088 0.974778 0.561224 0.133186
H124  H     H_    0.182967 0.974741 0.438740 0.133119
C121  C     C_2   0.332896 0.700435 0.366886 0.528046
O53   O     O_2   0.298308 0.785064 0.349067 -0.560598
O54   O     O_R   0.388299 0.664762 0.323695 -0.681555
H125  H     H_    0.395686 0.718213 0.280735 0.362581
C122  C     C_2   0.667223 0.700835 0.633137 0.527784
O55   O     O_2   0.702154 0.785019 0.651103 -0.560139
O56   O     O_R   0.611519 0.665816 0.676152 -0.681917
H126  H     H_    0.604243 0.719330 0.719107 0.362426
C123  C     C_2   0.832812 0.200609 0.366875 0.528036
O57   O     O_2   0.798173 0.285180 0.349063 -0.560529
O58   O     O_R   0.888228 0.165034 0.323676 -0.681589
H127  H     H_    0.895584 0.218505 0.280720 0.362534
C124  C     C_2   0.167169 0.200440 0.633122 0.528160
O59   O     O_2   0.201782 0.285037 0.650947 -0.560507
O60   O     O_R   0.111758 0.164805 0.676311 -0.681571
H128  H     H_    0.104383 0.218256 0.719273 0.362557
F1    F     F_    0.362749 0.570710 0.083541 -0.675825
F2    F     F_    0.637251 0.570709 0.916459 -0.675788
F3    F     F_    0.862750 0.070712 0.083541 -0.675819
F4    F     F_    0.137251 0.070711 0.916458 -0.675824

loop_
_geom_bond_atom_site_label_1
_geom_bond_atom_site_label_2
_geom_bond_distance
_ccdc_geom_bond_type
O4    C12   1.289628 A    
C97   H117  1.080372 S    
O25   C21   1.308175 A    
C102  C106  1.523423 S    
C99   H119  1.080373 S    
C80   C83   1.555531 S    
Cr7   O51   2.052410 S    
C93   H89   1.100881 S    
H71   C84   1.092690 S    
C99   C107  1.535455 S    
C69   H45   1.110292 S    
O39   C19   1.309026 A    
C31   H3    1.095006 S    
C75   H63   1.096436 S    
C52   H50   1.114999 S    
O21   C9    1.294944 A    
C12   C64   1.490162 S    
C73   H61   1.096419 S    
C53   C57   1.525595 S    
O44   Cr12  2.087188 S    
C78   C86   1.545545 S    
C3    C58   1.474431 S    
C3    O11   1.281322 A    
C56   C60   1.525594 S    
C1    C60   1.474430 S    
C25   C34   1.529891 S    
C24   C112  1.494993 S    
C55   C59   1.525595 S    
C76   H64   1.096465 S    
C51   C59   1.560274 S    
C73   C74   1.491699 S    
C29   C38   1.533665 S    
C74   C86   1.562263 S    
O2    C10   1.289628 A    
C103  H107  1.116150 S    
C32   C36   1.538411 S    
C100  C116  1.529416 S    
O17   Cr9   2.123063 S    
C103  C119  1.549232 S    
O9    Cr5   2.097178 S    
C61   C65   1.533070 S    
C62   C70   1.556401 S    
O16   Cr8   1.999034 S    
O60   H128  1.013993 S    
C63   C67   1.533072 S    
C22   C110  1.495139 S    
C93   H93   1.113040 S    
C117  H109  1.069283 S    
O28   Cr4   2.119351 S    
C92   C108  1.578005 S    
O22   Cr10  1.968865 S    
O15   C7    1.334391 A    
C80   C88   1.545519 S    
C102  C118  1.549270 S    
O46   Cr10  2.000034 S    
C50   C58   1.560274 S    
O48   C24   1.334789 A    
C7    C35   1.482464 S    
C47   C63   1.553457 S    
C91   H87   1.107434 S    
C76   C88   1.562287 S    
C41   C57   1.547849 S    
H100  C98   1.068067 S    
C96   C112  1.577535 S    
O31   Cr3   1.988816 S    
C71   H47   1.110286 S    
C72   H48   1.110286 S    
C25   H5    1.108280 S    
Cr12  O52   2.052310 S    
C26   C33   1.529894 S    
C27   H7    1.108279 S    
O7    Cr3   1.997128 S    
C17   O41   1.299483 A    
C43   H15   1.085698 S    
C13   C108  1.461508 S    
C30   C37   1.533668 S    
C19   O43   1.299464 A    
C20   O44   1.299470 A    
H104  C114  1.107035 S    
C117  H113  1.084707 S    
Cr8   O52   2.052405 S    
C79   C84   1.555584 S    
C89   C93   1.511682 S    
O46   C22   1.334844 A    
C47   H19   1.109777 S    
C19   C88   1.490149 S    
C28   H8    1.108276 S    
C75   C76   1.491783 S    
C83   H75   1.112431 S    
C45   H17   1.109778 S    
C16   O36   1.269833 A    
C112  C120  1.565574 S    
C124  O59   1.220273 D    
C46   H18   1.109775 S    
C78   H77   1.109999 S    
O31   C15   1.300764 A    
C82   H74   1.112417 S    
C96   H92   1.100868 S    
H101  C115  1.106949 S    
H102  C116  1.106976 S    
O47   Cr11  2.000036 S    
H103  C113  1.107059 S    
C92   C96   1.511644 S    
C39   C40   1.529339 S    
H97   C99   1.067605 S    
C65   H53   1.110819 S    
H98   C100  1.067606 S    
C70   H46   1.110288 S    
C68   H56   1.110818 S    
C101  C117  1.549225 S    
C5    O17   1.314412 A    
O24   C12   1.294946 A    
O30   C14   1.300754 A    
O45   C21   1.334804 A    
C122  O56   1.398619 S    
H29   C67   1.100600 S    
C42   H14   1.085696 S    
O32   Cr4   1.988815 S    
C26   H6    1.108278 S    
C1    O9    1.281320 A    
C10   C62   1.490161 S    
C110  C118  1.565653 S    
O11   Cr7   2.097178 S    
H26   C52   1.085624 S    
C98   H118  1.080988 S    
O27   Cr3   2.119352 S    
O3    Cr3   2.107903 S    
C38   H10   1.102814 S    
C97   C113  1.529558 S    
C99   C115  1.529487 S    
C104  H108  1.116151 S    
C18   C85   1.490129 S    
C75   H59   1.105210 S    
C121  O54   1.398109 S    
C32   C39   1.533662 S    
O22   C10   1.294944 A    
C79   H80   1.110055 S    
C4    O12   1.281322 A    
C120  H112  1.069434 S    
C2    O10   1.281323 A    
C27   C28   1.552828 S    
C55   H35   1.113107 S    
C45   C61   1.553459 S    
O5    C1    1.305808 A    
O3    C11   1.289628 A    
O8    C4    1.305805 A    
C100  C108  1.535480 S    
C103  C123  1.520936 S    
C101  H105  1.116155 S    
Cr1   O49   2.037700 S    
C90   H86   1.107419 S    
Cr3   O51   2.037700 S    
C62   C66   1.533070 S    
C93   C109  1.577495 S    
C20   C87   1.490130 S    
C29   H1    1.095017 S    
C40   H12   1.102813 S    
C63   C71   1.556402 S    
O26   Cr2   2.119351 S    
C97   C105  1.535442 S    
C64   C72   1.556402 S    
C102  C122  1.521194 S    
C33   C37   1.530130 S    
O27   C23   1.308115 A    
O28   C24   1.308164 A    
C54   C70   1.541812 S    
C118  H110  1.069226 S    
C35   C39   1.530129 S    
C9    C61   1.490161 S    
C8    O20   1.314404 A    
C2    C59   1.474434 S    
C77   C82   1.555638 S    
C95   H91   1.100804 S    
C14   C107  1.461488 S    
O40   Cr8   1.973987 S    
C23   C111  1.495025 S    
O41   Cr9   2.087187 S    
H66   C78   1.083621 S    
C74   H58   1.105196 S    
C32   H4    1.094998 S    
O33   Cr5   2.119210 S    
C42   C58   1.547849 S    
O5    Cr1   1.997128 S    
O35   Cr7   2.119210 S    
O29   Cr1   1.988816 S    
O32   C16   1.300736 A    
C72   H44   1.084934 S    
C41   F1    1.378453 S    
C41   C45   1.540439 S    
Cr9   O49   2.052305 S    
C81   H73   1.112424 S    
C43   C47   1.540439 S    
C18   O42   1.299485 A    
Cr11  O51   2.052305 S    
O26   C22   1.308128 A    
O20   Cr12  2.123060 S    
C91   C107  1.578101 S    
C118  H114  1.084765 S    
C15   C106  1.461544 S    
C113  H121  1.113437 S    
H70   C81   1.092626 S    
C49   H51   1.114998 S    
C50   H52   1.114999 S    
C47   H23   1.112868 S    
C31   C40   1.533661 S    
C48   H24   1.112867 S    
C94   H90   1.100904 S    
C30   H2    1.095015 S    
C74   H62   1.096354 S    
H32   C66   1.100597 S    
C44   C60   1.547847 S    
C80   H79   1.110092 S    
C84   H76   1.112438 S    
C90   H82   1.109174 S    
C123  O58   1.398082 S    
C95   C111  1.577514 S    
C77   C85   1.545594 S    
H27   C49   1.085624 S    
O6    Cr2   1.997127 S    
C8    C36   1.482466 S    
C70   H42   1.084937 S    
C76   H60   1.105220 S    
C73   C85   1.562256 S    
O42   Cr10  2.087188 S    
H65   C77   1.083611 S    
O56   H126  1.014075 S    
O18   Cr10  2.123060 S    
O14   C6    1.334433 A    
C81   C85   1.526284 S    
C54   H38   1.104217 S    
O34   Cr6   2.119213 S    
C26   C30   1.547742 S    
C17   C86   1.490108 S    
C109  C113  1.527209 S    
O24   Cr12  1.968865 S    
C49   C65   1.541181 S    
O30   Cr2   1.988815 S    
C55   C71   1.541811 S    
C111  C115  1.527190 S    
O48   Cr12  2.000034 S    
C112  C116  1.527267 S    
H28   C50   1.085624 S    
O37   C17   1.308989 A    
C15   O35   1.269843 A    
C94   H94   1.113052 S    
C111  C119  1.565529 S    
Cr10  O50   2.052310 S    
O40   C20   1.309013 A    
O43   Cr11  2.087187 S    
O7    C3    1.305807 A    
O21   Cr9   1.968869 S    
O39   Cr7   1.973983 S    
O13   Cr5   1.999031 S    
C98   C114  1.529564 S    
O45   Cr9   2.000036 S    
C13   O33   1.269829 A    
C104  C108  1.523548 S    
C89   C105  1.578069 S    
H67   C79   1.083645 S    
C67   H55   1.110819 S    
O15   Cr7   1.999031 S    
C31   C35   1.538406 S    
O23   C11   1.294945 A    
C120  H116  1.084788 S    
C53   H37   1.104219 S    
C66   H54   1.110819 S    
C54   H34   1.113108 S    
C91   H83   1.109137 S    
C27   C36   1.529889 S    
H25   C51   1.085624 S    
C115  H123  1.113404 S    
C46   C62   1.553458 S    
O6    C2    1.305805 A    
C44   C48   1.540441 S    
H72   C83   1.092658 S    
C101  C105  1.523447 S    
O1    Cr1   2.107903 S    
C102  H106  1.116293 S    
O19   Cr11  2.123063 S    
O29   C13   1.300780 A    
C37   C38   1.529351 S    
C90   C94   1.511634 S    
C122  O55   1.220762 D    
C98   C106  1.535405 S    
C43   F3    1.378451 S    
C94   C110  1.577455 S    
O47   C23   1.334768 A    
O13   C5    1.334431 A    
C83   C87   1.526315 S    
O58   H127  1.013993 S    
C36   C40   1.530132 S    
C64   C68   1.533072 S    
C6    O18   1.314412 A    
C104  C124  1.520946 S    
C52   C60   1.560273 S    
O12   Cr8   2.097177 S    
C25   C26   1.552845 S    
O36   Cr8   2.119213 S    
C53   H33   1.113108 S    
C5    C33   1.482428 S    
C77   H78   1.110008 S    
O38   Cr6   1.973987 S    
C95   H95   1.113021 S    
O54   H125  1.013996 S    
C56   H36   1.113107 S    
C119  H111  1.069374 S    
C28   C32   1.547734 S    
C4    C57   1.474432 S    
C100  H120  1.080268 S    
O1    C9    1.289626 A    
C121  O53   1.220254 D    
C51   H49   1.114998 S    
C103  C107  1.523401 S    
H69   C82   1.092738 S    
C61   C69   1.556403 S    
O23   Cr11  1.968869 S    
C41   H13   1.085698 S    
C29   C33   1.538416 S    
C116  H124  1.113400 S    
O16   C8    1.334422 A    
C124  O60   1.398097 S    
C11   C63   1.490166 S    
C7    O19   1.314374 A    
C119  H115  1.084791 S    
Cr4   O52   2.037696 S    
O2    Cr2   2.107904 S    
C37   H9    1.102816 S    
C49   C57   1.560276 S    
C16   C105  1.461507 S    
Cr6   O50   2.052405 S    
C114  H122  1.113505 S    
H68   C80   1.083652 S    
C25   C29   1.547742 S    
C48   H20   1.109775 S    
C46   H22   1.112866 S    
C91   C95   1.511690 S    
C51   C67   1.541179 S    
C82   C86   1.526342 S    
C101  C121  1.520971 S    
C21   C109  1.494958 S    
H31   C65   1.100599 S    
C71   H43   1.084936 S    
C6    C34   1.482427 S    
C27   C31   1.547737 S    
C92   H84   1.109168 S    
C56   C72   1.541813 S    
H99   C97   1.067610 S    
C28   C35   1.529890 S    
C69   H41   1.084943 S    
Cr2   O50   2.037696 S    
C56   H40   1.104215 S    
C89   H85   1.107400 S    
O14   Cr6   1.999034 S    
C44   F4    1.378453 S    
C110  C114  1.526993 S    
C55   H39   1.104215 S    
C50   C66   1.541181 S    
O8    Cr4   1.997127 S    
O37   Cr5   1.973983 S    
C84   C88   1.526264 S    
H30   C68   1.100599 S    
O38   C18   1.308987 A    
C45   H21   1.112869 S    
O25   Cr1   2.119352 S    
C30   C34   1.538416 S    
C43   C59   1.547851 S    
C78   C81   1.555593 S    
C79   C87   1.545521 S    
C96   H96   1.113020 S    
C14   O34   1.269805 A    
C89   H81   1.109185 S    
C90   C106  1.578227 S    
C92   H88   1.107405 S    
C104  C120  1.549196 S    
C75   C87   1.562281 S    
C73   H57   1.105224 S    
C52   C68   1.541182 S    
C53   C69   1.541814 S    
O10   Cr6   2.097177 S    
C123  O57   1.220244 D    
O4    Cr4   2.107904 S    
Cr5   O49   2.052410 S    
C42   F2    1.378453 S    
C34   C38   1.530131 S    
C54   C58   1.525594 S    
C48   C64   1.553456 S    
C39   H11   1.102815 S    
C42   C46   1.540438 S    
C44   H16   1.085702 S    
C109  C117  1.565636 S    
