data_mof_unit_10334.cif
_audit_creation_date              2013-03-05T16:34:52-0500
_audit_creation_method            fapswitch 2.2
_symmetry_space_group_name_H-M    P1
_symmetry_Int_Tables_number       1
_space_group_crystal_system       triclinic
_cell_length_a                    15.027937
_cell_length_b                    9.080455
_cell_length_c                    7.794032
_cell_angle_alpha                 89.860568
_cell_angle_beta                  90.000014
_cell_angle_gamma                 89.999876
_cell_volume                      1063.5743986

loop_
_atom_site_label
_atom_site_type_symbol
_atom_site_description
_atom_site_fract_x
_atom_site_fract_y
_atom_site_fract_z
_atom_type_partial_charge
O1    O     O_R   0.500000 0.288390 0.642760 -0.595379
O2    O     O_R   0.500000 0.711610 0.357240 -0.595373
O3    O     O_R   0.500000 0.711610 0.642760 -0.568915
O4    O     O_R   0.500000 0.288390 0.357240 -0.568916
H1    H     H_    0.919522 0.130711 0.437098 0.175148
H2    H     H_    0.080477 0.869286 0.562911 0.175139
H3    H     H_    0.919519 0.869285 0.562908 0.175144
H4    H     H_    0.080480 0.130712 0.437093 0.175139
C1    C     C_R   0.500000 0.220068 0.500131 0.878817
C2    C     C_R   0.500000 0.779932 0.499869 0.878821
O5    O     O_R   0.370260 0.500000 0.642800 -0.588786
O6    O     O_R   0.629740 0.500000 0.357200 -0.588786
O7    O     O_R   0.629740 0.500000 0.642800 -0.588793
O8    O     O_R   0.370260 0.500000 0.357200 -0.588786
C3    C     C_R   0.328685 0.500001 0.500000 0.937319
C4    C     C_R   0.671315 0.499997 0.500000 0.937311
Cu1   Cu    Cu3+1 0.500000 0.500000 0.669080 1.016346
Cu2   Cu    Cu3+1 0.500000 0.500000 0.330920 1.016350
N1    N     N_1   0.500000 0.500000 0.076820 -0.054037
N2    N     N_1   0.500000 0.500000 0.923180 -0.054038
C5    C     C_R   0.813079 0.634422 0.512184 0.354174
C6    C     C_R   0.186921 0.365576 0.487812 0.354170
C7    C     C_R   0.813080 0.365573 0.487817 0.354173
C8    C     C_R   0.186920 0.634424 0.512188 0.354169
C9    C     C_R   0.767510 0.499997 0.500001 -0.256654
C10   C     C_R   0.232490 0.500000 0.500000 -0.256659
C11   C     C_R   0.906387 0.365736 0.480929 0.026639
C12   C     C_R   0.093613 0.634262 0.519074 0.026644
C13   C     C_R   0.906386 0.634260 0.519072 0.026642
C14   C     C_R   0.093614 0.365738 0.480927 0.026644
C15   C     C_R   0.953134 0.499999 0.500000 -0.021457
C16   C     C_R   0.046866 0.499999 0.500000 -0.021456
C17   C     C_R   0.953754 0.234308 0.456254 -0.189112
C18   C     C_R   0.046246 0.765690 0.543750 -0.189114
C19   C     C_R   0.953752 0.765689 0.543749 -0.189116
C20   C     C_R   0.046248 0.234309 0.456252 -0.189117
C21   C     C_1   0.500000 0.065402 0.500178 -0.178719
C22   C     C_1   0.500000 0.934598 0.499822 -0.178732
O9    O     O_3   0.765652 0.764721 0.526044 -0.594493
C23   C     C_3   0.754230 0.824366 0.360057 -0.314770
H5    H     H_    0.720098 0.745903 0.272573 0.173520
H6    H     H_    0.818978 0.858920 0.303757 0.169046
H7    H     H_    0.711556 0.923616 0.369317 0.209977
O10   O     O_3   0.234348 0.235277 0.473945 -0.594487
C24   C     C_3   0.245773 0.175627 0.639928 -0.314763
H8    H     H_    0.288445 0.076375 0.630660 0.209980
H9    H     H_    0.181025 0.141075 0.696234 0.169044
H10   H     H_    0.279908 0.254086 0.727412 0.173517
O11   O     O_3   0.765655 0.235272 0.473952 -0.594483
C25   C     C_3   0.754230 0.175628 0.639938 -0.314807
H11   H     H_    0.720038 0.254060 0.727378 0.173549
H12   H     H_    0.818984 0.141170 0.696303 0.169023
H13   H     H_    0.711608 0.076316 0.630659 0.210015
O12   O     O_3   0.234346 0.764724 0.526056 -0.594487
C26   C     C_3   0.245771 0.824374 0.360073 -0.314767
H14   H     H_    0.181022 0.858921 0.303765 0.169043
H15   H     H_    0.279909 0.745916 0.272591 0.173517
H16   H     H_    0.288440 0.923629 0.369342 0.209983

loop_
_geom_bond_atom_site_label_1
_geom_bond_atom_site_label_2
_geom_bond_distance
_ccdc_geom_bond_type
C8    O12   1.385707 S    
C25   H12   1.112294 S    
C26   H14   1.112266 S    
C21   C22   1.187774 T    
O7    Cu1   1.960454 S    
O2    Cu2   1.932931 S    
C8    C12   1.403239 A    
C13   C19   1.403237 A    
O1    Cu1   1.932932 S    
N1    N2    1.197476 T    
C5    O9    1.385708 S    
C14   C20   1.403238 A    
C2    C22   1.404435 S    
O4    Cu2   1.931939 S    
Cu1   N2    1.980463 S    
O5    C3    1.276363 A    
C1    C21   1.404435 S    
Cu1   Cu2   2.635631 S    
C12   C18   1.403239 A    
C13   C15   1.415228 A    
O3    C2    1.273517 A    
C24   H8    1.108612 S    
C11   C17   1.403239 A    
C14   C16   1.415229 A    
C26   H16   1.108612 S    
H3    C19   1.082846 S    
O6    C4    1.276363 A    
C23   H6    1.112264 S    
C23   H5    1.112663 S    
C8    C10   1.403031 A    
O3    Cu1   1.931938 S    
C7    C11   1.403240 A    
C26   H15   1.112663 S    
H4    C20   1.082846 S    
C18   C19   1.389991 A    
C6    O10   1.385708 S    
C7    O11   1.385708 S    
C25   H13   1.108630 S    
O9    C23   1.411757 S    
C11   C15   1.415227 A    
O2    C2    1.274371 A    
O1    C1    1.274371 A    
H2    C18   1.082846 S    
C12   C16   1.415229 A    
C17   C20   1.389988 A    
C24   H9    1.112265 S    
O10   C24   1.411756 S    
C7    C9    1.403031 A    
C6    C10   1.403029 A    
O7    C4    1.276363 A    
O6    Cu2   1.960454 S    
C4    C9    1.445614 S    
O11   C25   1.411754 S    
C5    C9    1.403030 A    
O8    C3    1.276364 A    
Cu2   N1    1.980463 S    
C3    C10   1.445614 S    
C6    C14   1.403239 A    
C25   H11   1.112677 S    
O4    C1    1.273518 A    
O12   C26   1.411756 S    
C5    C13   1.403240 A    
O8    Cu2   1.960456 S    
C23   H7    1.108611 S    
O5    Cu1   1.960456 S    
C15   C16   1.408587 A    
C24   H10   1.112663 S    
H1    C17   1.082847 S    
