data_mof_unit_10952.cif
_audit_creation_date              2012-12-10T20:41:53-0500
_audit_creation_method            fapswitch 2.2
_symmetry_space_group_name_H-M    P1
_symmetry_Int_Tables_number       1
_space_group_crystal_system       triclinic
_cell_length_a                    14.995101
_cell_length_b                    15.24217
_cell_length_c                    9.898621
_cell_angle_alpha                 89.494605
_cell_angle_beta                  89.483973
_cell_angle_gamma                 89.940767
_cell_volume                      2262.22701883

loop_
_atom_site_label
_atom_site_type_symbol
_atom_type_description
_atom_site_fract_x
_atom_site_fract_y
_atom_site_fract_z
_atom_type_partial_charge
C1    C     C_R   0.382314 0.877492 0.500415 0.879885
C2    C     C_R   0.926986 0.528303 0.072131 0.194177
C3    C     C_R   0.574990 0.981283 0.072243 -0.144196
C4    C     C_R   0.074988 0.481276 0.072243 -0.144201
C5    C     C_R   0.576218 0.983189 0.929102 0.427842
C6    C     C_R   0.076216 0.483182 0.929102 0.427841
C7    C     C_R   0.426639 0.027606 0.929761 0.147168
C8    C     C_R   0.926641 0.527611 0.929761 0.147162
C9    C     C_3   0.336444 0.986843 0.929832 -0.514355
C10   C     C_3   0.836443 0.486853 0.929832 -0.514343
C11   C     C_3   0.336055 0.990296 0.082610 -0.477029
C12   C     C_R   0.381988 0.121951 0.499943 0.885995
C13   C     C_3   0.836054 0.490306 0.082610 -0.477026
C14   C     C_R   0.622702 0.117173 0.499074 0.872984
C15   C     C_R   0.622194 0.882267 0.499851 0.874947
C16   C     C_R   0.122702 0.617172 0.499074 0.872986
C17   C     C_R   0.122193 0.382266 0.499851 0.874946
C18   C     C_R   0.293829 0.229929 0.621948 0.138297
C19   C     C_R   0.305085 0.756722 0.618475 0.137588
C20   C     C_R   0.793840 0.729939 0.621945 0.138297
C21   C     C_R   0.805081 0.256727 0.618478 0.137586
C22   C     C_R   0.326501 0.197675 0.500028 -0.111550
C23   C     C_R   0.882314 0.377492 0.500416 0.879883
C24   C     C_R   0.328077 0.800413 0.498944 -0.109349
C25   C     C_R   0.826501 0.697675 0.500025 -0.111547
C26   C     C_R   0.828076 0.300414 0.498946 -0.109349
C27   C     C_R   0.307094 0.241632 0.378652 -0.225146
C28   C     C_R   0.300836 0.765610 0.374843 -0.220652
C29   C     C_R   0.807083 0.741622 0.378645 -0.225149
C30   C     C_R   0.800840 0.265606 0.374845 -0.220654
C31   C     C_R   0.742561 0.806624 0.378616 -0.223230
C32   C     C_R   0.736509 0.200625 0.373744 -0.223016
C33   C     C_R   0.242570 0.306633 0.378623 -0.223230
C34   C     C_R   0.881988 0.621951 0.499943 0.885994
C35   C     C_R   0.236505 0.700628 0.373742 -0.223016
C36   C     C_R   0.698280 0.826707 0.499951 -0.111999
C37   C     C_R   0.700228 0.170870 0.496795 -0.102412
C38   C     C_R   0.198278 0.326705 0.499953 -0.112005
C39   C     C_R   0.200230 0.670868 0.496794 -0.102410
C40   C     C_R   0.730169 0.794024 0.621949 0.165907
C41   C     C_R   0.741503 0.192487 0.617201 0.135139
C42   C     C_R   0.230156 0.294011 0.621951 0.165929
C43   C     C_R   0.241509 0.692481 0.617198 0.135132
C44   C     C_3   0.680491 0.753423 0.738147 -0.447324
C45   C     C_3   0.250973 0.182317 0.737909 -0.520257
C46   C     C_3   0.702010 0.219454 0.749277 -0.469608
C47   C     C_3   0.180467 0.253398 0.738127 -0.447332
C48   C     C_3   0.202023 0.719438 0.749283 -0.469617
C49   C     C_3   0.272174 0.790584 0.750862 -0.506930
C50   C     C_3   0.750992 0.682338 0.737923 -0.520261
C51   C     C_3   0.772163 0.290596 0.750858 -0.506928
C52   C     C_R   0.426984 0.028299 0.072131 0.194182
H1    H     H_    0.336722 0.222071 0.283325 0.173263
H2    H     H_    0.710588 0.179475 0.277565 0.174712
H3    H     H_    0.223379 0.336190 0.283278 0.172875
H4    H     H_    0.210581 0.679483 0.277563 0.174712
H5    H     H_    0.682224 0.794706 0.830006 0.246093
H6    H     H_    0.711345 0.168685 0.829259 0.213889
H7    H     H_    0.182185 0.294673 0.829995 0.246088
H8    H     H_    0.211366 0.668667 0.829257 0.213883
H9    H     H_    0.613216 0.729392 0.709921 0.198223
H10   H     H_    0.632971 0.245470 0.740079 0.210336
H11   H     H_    0.113197 0.229365 0.709876 0.198216
H12   H     H_    0.323456 0.792705 0.279085 0.167306
H13   H     H_    0.132983 0.745452 0.740098 0.210341
H14   H     H_    0.293357 0.183046 0.829449 0.211777
H15   H     H_    0.321834 0.779789 0.831998 0.202631
H16   H     H_    0.793387 0.683069 0.829453 0.211778
H17   H     H_    0.821817 0.279803 0.832002 0.202631
H18   H     H_    0.224575 0.117066 0.708795 0.199957
H19   H     H_    0.243263 0.857601 0.742242 0.205968
H20   H     H_    0.724586 0.617087 0.708824 0.199957
H21   H     H_    0.743256 0.357615 0.742226 0.205966
H22   H     H_    0.635271 0.965468 0.126619 0.166312
H23   H     H_    0.836703 0.722053 0.283316 0.173263
H24   H     H_    0.135268 0.465456 0.126619 0.166312
H25   H     H_    0.284668 0.028836 0.883470 0.201866
H26   H     H_    0.339781 0.919319 0.892058 0.213894
H27   H     H_    0.784669 0.528851 0.883471 0.201863
H28   H     H_    0.839773 0.419329 0.892058 0.213892
H29   H     H_    0.655825 0.998325 0.778428 0.377831
H30   H     H_    0.155827 0.498323 0.778435 0.377820
H31   H     H_    0.823464 0.292698 0.279088 0.167309
H32   H     H_    0.287061 0.037921 0.124304 0.200649
H33   H     H_    0.335180 0.924383 0.131360 0.211152
H34   H     H_    0.787063 0.537934 0.124305 0.200646
H35   H     H_    0.835175 0.424393 0.131360 0.211154
H36   H     H_    0.723361 0.836173 0.283269 0.172877
N1    N     N_R   0.499140 1.000000 0.142800 -0.142730
N2    N     N_R   0.999140 0.500000 0.142800 -0.142728
N3    N     N_R   0.499160 1.000000 0.857150 -0.160237
N4    N     N_R   0.999160 0.500000 0.857150 -0.160233
O1    O     O_R   0.408400 0.908380 0.614690 -0.614078
O2    O     O_R   0.591610 0.908390 0.614650 -0.615320
O3    O     O_R   0.091610 0.591610 0.614650 -0.648590
O4    O     O_R   0.091610 0.408390 0.614650 -0.615305
O5    O     O_R   0.591590 0.091600 0.385310 -0.621879
O6    O     O_R   0.591590 0.908400 0.385310 -0.628253
O7    O     O_R   0.091590 0.591600 0.385310 -0.621879
O8    O     O_R   0.091590 0.408400 0.385310 -0.628254
O9    O     O_3   0.656710 0.967990 0.866435 -0.799676
O10   O     O_3   0.156707 0.467976 0.866433 -0.799659
O11   O     O_R   0.408400 0.091620 0.614690 -0.611035
O12   O     O_R   0.908400 0.408380 0.614690 -0.614077
O13   O     O_R   0.908400 0.591620 0.614690 -0.611035
O14   O     O_R   0.408370 0.908370 0.385350 -0.621386
O15   O     O_R   0.408370 0.091630 0.385350 -0.618771
O16   O     O_R   0.908370 0.408370 0.385350 -0.621386
O17   O     O_R   0.908370 0.591630 0.385350 -0.618773
O18   O     O_R   0.591610 0.091610 0.614650 -0.648590
Zn1   Zn    Zn3+2 0.500010 1.000000 0.653130 0.941967
Zn2   Zn    Zn3+2 0.000010 0.500000 0.653130 0.941970
Zn3   Zn    Zn3+2 0.499980 0.000000 0.346870 0.938377
Zn4   Zn    Zn3+2 0.999980 0.500000 0.346870 0.938377

loop_
_geom_bond_atom_site_label_1
_geom_bond_atom_site_label_2
_ccdc_geom_bond_type
C33   H3    S    
C21   C26   A    
O7    Zn4   S    
H29   O9    S    
C27   C33   A    
C9    H26   S    
O4    Zn2   S    
C46   H10   S    
C7    C52   A    
C38   C42   A    
O3    Zn2   S    
C18   C42   A    
C47   H11   S    
C20   C40   A    
C20   C25   A    
N3    Zn1   S    
C12   C22   S    
O2    Zn1   S    
O11   Zn1   S    
C23   C26   S    
O16   Zn4   S    
C30   H31   S    
C2    N2    A    
C2    C13   S    
C50   H20   S    
O18   Zn1   S    
O15   Zn3   S    
C20   C50   S    
C11   C52   S    
C28   C35   A    
C13   H34   S    
C41   C46   S    
C8    N4    A    
C48   H13   S    
C43   C48   S    
C1    O14   A    
C17   C38   S    
N2    Zn4   S    
C45   H18   S    
C46   H6    S    
C52   N1    A    
C15   O2    A    
C32   H2    S    
C19   C43   A    
C48   H8    S    
C4    N2    A    
C45   C47   S    
C25   C29   A    
N1    Zn3   S    
O14   Zn3   S    
C51   H21   S    
C36   C40   A    
O8    Zn4   S    
C12   O11   A    
C4    C6    A    
O12   Zn2   S    
C10   H28   S    
N4    Zn2   S    
O6    Zn3   S    
C39   C43   A    
C46   C51   S    
C3    H22   S    
C35   C39   A    
C19   C49   S    
C23   O12   A    
C44   H5    S    
C7    N3    A    
C13   H35   S    
H30   O10   S    
C17   O4    A    
C9    H25   S    
C32   C37   A    
C9    C11   S    
C5    N3    A    
O17   Zn4   S    
O1    Zn1   S    
C21   C41   A    
C28   H12   S    
C8    C10   S    
C48   C49   S    
O13   Zn2   S    
C26   C30   A    
C22   C27   A    
C44   H9    S    
C15   O6    A    
O5    Zn3   S    
C18   C45   S    
C15   C36   S    
C21   C51   S    
C14   O5    A    
C44   C50   S    
C14   O18   A    
C16   O3    A    
C31   H36   S    
C49   H15   S    
C35   H4    S    
C18   C22   A    
C34   O13   A    
C2    C8    A    
C24   C28   A    
C3    C5    A    
C10   C13   S    
C12   O15   A    
C10   H27   S    
C27   H1    S    
C16   O7    A    
C29   H23   S    
C11   H32   S    
C25   C34   S    
C33   C38   A    
C5    O9    S    
C3    N1    A    
C19   C24   A    
C29   C31   A    
C14   C37   S    
C30   C32   A    
C11   H33   S    
C6    N4    A    
C23   O16   A    
C42   C47   S    
C6    O10   S    
C37   C41   A    
C17   O8    A    
C4    H24   S    
C16   C39   S    
C47   H7    S    
C7    C9    S    
C40   C44   S    
C1    C24   S    
C1    O1    A    
C49   H19   S    
C45   H14   S    
C34   O17   A    
C31   C36   A    
C51   H17   S    
C50   H16   S    
