data_mof_unit_14184.cif
_audit_creation_date              2012-10-26T19:59:14-0400
_audit_creation_method            fapswitch 2.2
_symmetry_space_group_name_H-M    P1
_symmetry_Int_Tables_number       1
_space_group_crystal_system       triclinic
_cell_length_a                    7.43234
_cell_length_b                    8.69107
_cell_length_c                    15.808018
_cell_angle_alpha                 94.278124
_cell_angle_beta                  75.18334
_cell_angle_gamma                 103.151053
_cell_volume                      961.129648537

loop_
_atom_site_label
_atom_site_type_symbol
_atom_type_description
_atom_site_fract_x
_atom_site_fract_y
_atom_site_fract_z
_atom_type_partial_charge
C1    C     C_R   0.545096 0.800181 0.502612 0.558005
C2    C     C_R   0.615795 0.511483 0.333633 0.552088
C3    C     C_R   0.314419 0.474675 0.761860 0.000720
C4    C     C_R   0.685581 0.525323 0.238139 0.000720
C5    C     C_R   0.067981 0.377074 0.890003 -0.114841
C6    C     C_R   0.932017 0.622920 0.109996 -0.114843
C7    C     C_R   0.122203 0.414580 0.801538 -0.107419
C8    C     C_R   0.877796 0.585413 0.198461 -0.107417
C9    C     C_R   0.447169 0.510362 0.813270 -0.067243
C10   C     C_R   0.552830 0.489639 0.186730 -0.067242
C11   C     C_R   0.392184 0.490624 0.904093 0.035639
C12   C     C_R   0.454904 0.199819 0.497388 0.558005
C13   C     C_R   0.607813 0.509375 0.095907 0.035639
C14   C     C_R   0.203543 0.408334 0.940354 -0.007737
C15   C     C_R   0.796453 0.591662 0.059646 -0.007737
C16   C     C_R   0.524654 0.533733 0.957592 0.003826
C17   C     C_R   0.475341 0.466267 0.042409 0.003827
C18   C     C_R   0.295921 0.358266 0.069749 0.210264
C19   C     C_R   0.704072 0.641737 0.930252 0.210260
C20   C     C_R   0.157908 0.343047 0.022740 -0.081979
C21   C     C_R   0.842086 0.656953 0.977261 -0.081981
C22   C     C_2   0.570534 0.968062 0.503872 -0.135730
C23   C     C_2   0.429466 0.031938 0.496128 -0.135730
C24   C     C_R   0.384205 0.488517 0.666367 0.552088
Cl1   Cl    Cl    0.245188 0.213653 0.150499 -0.628207
Cl2   Cl    Cl    0.754796 0.786359 0.849507 -0.628202
Cu1   Cu    Cu3+1 0.322120 0.483240 0.490330 0.995504
Cu2   Cu    Cu3+1 0.677880 0.516760 0.509670 0.995503
H1    H     H_    0.019169 0.266449 0.046958 0.170798
H2    H     H_    0.293500 0.960560 0.488823 0.141509
H3    H     H_    0.004055 0.615198 0.568923 0.251213
H4    H     H_    0.995945 0.384802 0.431077 0.251214
H5    H     H_    0.980823 0.733554 0.953044 0.170798
H6    H     H_    0.403725 0.459115 0.219381 0.187810
H7    H     H_    0.596275 0.540892 0.780620 0.187808
H8    H     H_    0.983010 0.614209 0.236833 0.148261
H9    H     H_    0.016990 0.385782 0.763166 0.148260
H10   H     H_    0.921829 0.317999 0.918235 0.142916
H11   H     H_    0.078168 0.681993 0.081764 0.142915
H12   H     H_    0.706500 0.039440 0.511177 0.141509
N1    N     N_2   0.945180 0.542040 0.524240 -0.257376
N2    N     N_2   0.054820 0.457960 0.475760 -0.257375
O1    O     O_R   0.384450 0.714270 0.493720 -0.507034
O2    O     O_R   0.615550 0.285730 0.506280 -0.507034
O3    O     O_R   0.684880 0.742590 0.510050 -0.487986
O4    O     O_R   0.315120 0.257410 0.489950 -0.487986
O5    O     O_R   0.265540 0.477900 0.617090 -0.504690
O6    O     O_R   0.734460 0.522100 0.382910 -0.504688
O7    O     O_R   0.565970 0.506210 0.633420 -0.498312
O8    O     O_R   0.434030 0.493790 0.366580 -0.498312

loop_
_geom_bond_atom_site_label_1
_geom_bond_atom_site_label_2
_ccdc_geom_bond_type
C2    C4    S    
C10   C13   A    
C3    C9    A    
Cu1   O1    S    
C5    C7    A    
N1    N2    D    
C18   C20   A    
Cu1   N2    S    
Cu1   O8    S    
C13   C17   A    
C4    C8    A    
C22   H12   S    
C17   C18   A    
C7    H9    S    
C1    C22   S    
C10   H6    S    
H3    N1    S    
C5    H10   S    
C9    C11   A    
C12   C23   S    
C1    O3    A    
C5    C14   A    
C18   Cl1   S    
C16   C19   A    
Cu1   O4    S    
C19   C21   A    
C1    O1    A    
C3    C7    A    
C20   H1    S    
C13   C15   A    
C11   C14   A    
Cu2   O3    S    
C11   C16   A    
C21   H5    S    
C4    C10   A    
C23   H2    S    
C14   C20   A    
Cu2   N1    S    
C15   C21   A    
C12   O4    A    
C8    H8    S    
Cu1   O5    S    
C24   O7    A    
C9    H7    S    
C19   Cl2   S    
H4    N2    S    
C22   C23   D    
C12   O2    A    
C6    C8    A    
C2    O8    A    
C2    O6    A    
C6    C15   A    
C6    H11   S    
C24   O5    A    
Cu2   O2    S    
Cu2   O6    S    
C3    C24   S    
C16   C17   A    
Cu1   Cu2   S    
Cu2   O7    S    
