data_mof_unit_60237.cif
_audit_creation_date              2012-12-10T17:13:15-0500
_audit_creation_method            fapswitch 2.2
_symmetry_space_group_name_H-M    P1
_symmetry_Int_Tables_number       1
_space_group_crystal_system       triclinic
_cell_length_a                    30.887437
_cell_length_b                    30.551261
_cell_length_c                    24.809986
_cell_angle_alpha                 89.638133
_cell_angle_beta                  128.922143
_cell_angle_gamma                 90.046796
_cell_volume                      18213.9914978

loop_
_atom_site_label
_atom_site_type_symbol
_atom_type_description
_atom_site_fract_x
_atom_site_fract_y
_atom_site_fract_z
_atom_type_partial_charge
C1    C     C_R   0.690965 0.190134 0.501004 0.921358
C2    C     C_R   0.530385 0.239729 0.070294 0.290064
C3    C     C_R   0.713766 0.881941 0.696741 -0.163261
C4    C     C_R   0.859358 0.382376 0.371918 -0.152654
C5    C     C_R   0.147311 0.385353 0.631461 -0.160548
C6    C     C_R   0.323656 0.913287 0.364002 -0.150503
C7    C     C_R   0.664409 0.898965 0.637109 -0.167756
C8    C     C_R   0.866692 0.379318 0.434707 0.106359
C9    C     C_R   0.136768 0.381037 0.566816 0.105372
C10   C     C_R   0.349054 0.894782 0.431328 0.111170
C11   C     C_R   0.645235 0.887886 0.569320 0.110701
C12   C     C_R   0.830242 0.351899 0.435047 0.057848
C13   C     C_R   0.964175 0.739686 0.930046 0.296317
C14   C     C_R   0.171877 0.352901 0.564847 0.066946
C15   C     C_R   0.320676 0.859943 0.434820 0.058710
C16   C     C_R   0.676899 0.856829 0.565304 0.068721
C17   C     C_R   0.841244 0.343123 0.498554 -0.107139
C18   C     C_R   0.158172 0.343063 0.500217 -0.115470
C19   C     C_R   0.341563 0.843029 0.499937 -0.103073
C20   C     C_R   0.658181 0.843001 0.499749 -0.113173
C21   C     C_R   0.885165 0.362919 0.560750 0.088662
C22   C     C_R   0.113081 0.363036 0.438165 0.085601
C23   C     C_R   0.389980 0.858644 0.561866 0.083375
C24   C     C_R   0.028305 0.739443 0.070151 0.291602
C25   C     C_R   0.610496 0.860602 0.437783 0.084596
C26   C     C_R   0.917914 0.392912 0.559245 -0.231956
C27   C     C_R   0.081999 0.393591 0.441297 -0.213521
C28   C     C_R   0.419319 0.891415 0.559050 -0.235632
C29   C     C_R   0.580957 0.892284 0.441610 -0.213348
C30   C     C_R   0.909018 0.401958 0.497326 -0.165367
C31   C     C_R   0.092711 0.403027 0.503884 -0.170574
C32   C     C_R   0.400631 0.909199 0.495388 -0.165201
C33   C     C_R   0.596430 0.905849 0.505338 -0.173328
C34   C     C_R   0.059277 0.438010 0.501041 0.880501
C35   C     C_R   0.741262 0.136984 0.622289 -0.153360
C36   C     C_R   0.941429 0.437592 0.499430 0.900724
C37   C     C_R   0.560893 0.939343 0.501365 0.899807
C38   C     C_R   0.437677 0.940961 0.498938 0.905515
C39   C     C_R   0.817287 0.249835 0.634412 0.834863
C40   C     C_R   0.182782 0.250052 0.365576 0.823193
C41   C     C_R   0.317301 0.749841 0.634420 0.839564
C42   C     C_R   0.682874 0.749956 0.365597 0.827297
C43   C     C_R   0.561973 0.058744 0.500055 0.914369
C44   C     C_R   0.440637 0.061647 0.499683 0.900401
C45   C     C_R   0.061802 0.558776 0.499919 0.915844
C46   C     C_R   0.291448 0.173760 0.373681 -0.147467
C47   C     C_R   0.941302 0.562572 0.499228 0.916239
C48   C     C_R   0.625810 0.205516 0.259881 -0.221139
C49   C     C_R   0.374644 0.205320 0.741634 -0.234277
C50   C     C_R   0.127023 0.705268 0.259723 -0.221655
C51   C     C_R   0.876207 0.705448 0.741630 -0.233238
C52   C     C_R   0.587355 0.201899 0.187738 0.125718
C53   C     C_R   0.411664 0.201956 0.813957 0.122900
C54   C     C_R   0.088028 0.701534 0.187625 0.125450
C55   C     C_R   0.912427 0.702164 0.813936 0.121517
C56   C     C_R   0.566736 0.240598 0.146642 0.066651
C57   C     C_R   0.242053 0.633795 0.619692 -0.155431
C58   C     C_R   0.430538 0.240658 0.853932 0.076959
C59   C     C_R   0.065048 0.740182 0.146547 0.069005
C60   C     C_R   0.928677 0.740692 0.853805 0.081528
C61   C     C_R   0.582937 0.281687 0.179420 -0.196043
C62   C     C_R   0.413810 0.281670 0.820048 -0.201228
C63   C     C_R   0.079552 0.781207 0.179366 -0.197596
C64   C     C_R   0.910438 0.781696 0.819907 -0.202906
C65   C     C_R   0.619864 0.284646 0.251014 -0.218420
C66   C     C_R   0.378001 0.284487 0.748338 -0.218142
C67   C     C_R   0.117103 0.784229 0.250939 -0.219291
C68   C     C_R   0.766362 0.648116 0.375321 -0.163256
C69   C     C_R   0.875625 0.784525 0.748216 -0.220219
C70   C     C_R   0.766999 0.109448 0.680071 -0.125171
C71   C     C_R   0.287076 0.169735 0.314565 -0.130043
C72   C     C_R   0.267972 0.604461 0.675076 -0.126524
C73   C     C_R   0.309194 0.190113 0.499350 0.922102
C74   C     C_R   0.747739 0.633313 0.311095 -0.129216
C75   C     C_R   0.738624 0.073345 0.677662 -0.148721
C76   C     C_R   0.325904 0.144767 0.317237 -0.154557
C77   C     C_R   0.239046 0.568296 0.671369 -0.147460
C78   C     C_R   0.783983 0.610887 0.305820 -0.159949
C79   C     C_R   0.684110 0.065127 0.617839 -0.141144
C80   C     C_R   0.367924 0.122518 0.378348 -0.140102
C81   C     C_R   0.183809 0.561888 0.612789 -0.142923
C82   C     C_R   0.838114 0.601688 0.365110 -0.130061
C83   C     C_R   0.655105 0.094675 0.559876 0.067218
C84   C     C_R   0.191195 0.690077 0.501513 0.919088
C85   C     C_R   0.370306 0.122815 0.437791 0.079007
C86   C     C_R   0.155037 0.593050 0.557544 0.065417
C87   C     C_R   0.856731 0.612413 0.432826 0.086951
C88   C     C_R   0.685470 0.129723 0.561569 0.044612
C89   C     C_R   0.333603 0.151192 0.436006 0.046765
C90   C     C_R   0.185748 0.628096 0.560016 0.046328
C91   C     C_R   0.821196 0.638816 0.436286 0.046287
C92   C     C_R   0.659615 0.156903 0.502595 -0.129956
C93   C     C_R   0.340114 0.157122 0.496949 -0.144622
C94   C     C_R   0.159683 0.656690 0.502813 -0.130403
C95   C     C_R   0.810434 0.690091 0.501863 0.920328
C96   C     C_R   0.841760 0.657141 0.499978 -0.138157
C97   C     C_R   0.604601 0.151345 0.442373 0.042164
C98   C     C_R   0.379132 0.133996 0.558044 0.090782
C99   C     C_R   0.104345 0.652097 0.443576 0.041428
C100  C     C_R   0.895361 0.649108 0.560696 0.079148
C101  C     C_R   0.682164 0.249468 0.365790 0.862572
C102  C     C_R   0.317885 0.249160 0.634279 0.862377
C103  C     C_R   0.182016 0.749346 0.365752 0.862735
C104  C     C_R   0.817958 0.749081 0.634239 0.860432
C105  C     C_R   0.572755 0.117983 0.440320 0.069025
C106  C     C_R   0.642071 0.246659 0.291086 -0.033401
C107  C     C_R   0.412140 0.102799 0.559336 0.053075
C108  C     C_R   0.072311 0.618632 0.441159 0.065224
C109  C     C_R   0.929418 0.619958 0.560128 0.055948
C110  C     C_R   0.597528 0.090274 0.500016 -0.182469
C111  C     C_R   0.408063 0.096576 0.499019 -0.201908
C112  C     C_R   0.097239 0.590066 0.499422 -0.179932
C113  C     C_R   0.909369 0.599217 0.496874 -0.212226
C114  C     C_R   0.911223 0.239124 0.746234 -0.201591
C115  C     C_R   0.089031 0.240309 0.253738 -0.196153
C116  C     C_R   0.411203 0.738870 0.746182 -0.196013
C117  C     C_R   0.357455 0.246395 0.709183 -0.030941
C118  C     C_R   0.589027 0.740793 0.253785 -0.198879
C119  C     C_R   0.947456 0.239685 0.818197 -0.163059
C120  C     C_R   0.053009 0.240874 0.181799 -0.159936
C121  C     C_R   0.447493 0.739362 0.818147 -0.163861
C122  C     C_R   0.553061 0.741204 0.181848 -0.158998
C123  C     C_R   0.927509 0.249944 0.854233 0.084833
C124  C     C_R   0.073189 0.250559 0.145774 0.088428
C125  C     C_R   0.427711 0.749877 0.854282 0.084600
C126  C     C_R   0.573487 0.749948 0.145855 0.084730
C127  C     C_R   0.870947 0.259909 0.817345 -0.161917
C128  C     C_R   0.141643 0.746403 0.290993 -0.033791
C129  C     C_R   0.129778 0.260062 0.182687 -0.164690
C130  C     C_R   0.371280 0.760209 0.817457 -0.160902
C131  C     C_R   0.630297 0.758581 0.182799 -0.165860
C132  C     C_R   0.834953 0.259983 0.745416 -0.192149
C133  C     C_R   0.165587 0.260166 0.254641 -0.203360
C134  C     C_R   0.335227 0.760332 0.745527 -0.193671
C135  C     C_R   0.666069 0.758830 0.254761 -0.194565
C136  C     C_R   0.854965 0.249501 0.709681 -0.021872
C137  C     C_R   0.145330 0.250105 0.290325 -0.015645
C138  C     C_R   0.355055 0.749548 0.709703 -0.019286
C139  C     C_R   0.857377 0.746445 0.709113 -0.023415
C140  C     C_R   0.645520 0.749818 0.290383 -0.021732
C141  C     C_R   0.035372 0.250668 0.069991 0.286436
C142  C     C_R   0.965443 0.250289 0.930009 0.286607
C143  C     C_R   0.535663 0.750108 0.070069 0.286638
C144  C     C_R   0.465704 0.750061 0.930066 0.286755
C145  C     C_R   0.783594 0.333396 0.372065 -0.156864
C146  C     C_R   0.219840 0.334701 0.627485 -0.155237
C147  C     C_R   0.271335 0.842774 0.373151 -0.157461
C148  C     C_R   0.726846 0.839819 0.626982 -0.154172
C149  C     C_R   0.810322 0.310014 0.501413 0.883192
C150  C     C_R   0.466474 0.239796 0.930229 0.294547
C151  C     C_R   0.189198 0.309986 0.497580 0.859901
C152  C     C_R   0.311388 0.809847 0.503666 0.892801
C153  C     C_R   0.688751 0.809911 0.496591 0.862252
C154  C     C_R   0.774679 0.340205 0.310176 -0.128787
C155  C     C_R   0.231621 0.342643 0.690673 -0.134297
C156  C     C_R   0.249627 0.859962 0.308746 -0.133356
C157  C     C_R   0.745156 0.852689 0.691740 -0.135313
C158  C     C_R   0.813187 0.363832 0.310374 -0.152472
C159  C     C_R   0.194820 0.367172 0.692483 -0.157734
C160  C     C_R   0.275698 0.895276 0.304242 -0.157731
H1    H     H_    0.990902 0.231858 0.845465 0.148880
H2    H     H_    0.248903 0.314429 0.628289 0.127109
H3    H     H_    0.248830 0.815853 0.373951 0.129408
H4    H     H_    0.752514 0.816497 0.625919 0.129853
H5    H     H_    0.807413 0.367582 0.262666 0.136073
H6    H     H_    0.202897 0.371886 0.741414 0.136429
H7    H     H_    0.258137 0.909419 0.254003 0.137197
H8    H     H_    0.727590 0.891433 0.747353 0.136107
H9    H     H_    0.567718 0.311930 0.149818 0.162119
H10   H     H_    0.427914 0.311949 0.848853 0.161466
H11   H     H_    0.062399 0.811383 0.149765 0.160696
H12   H     H_    0.009540 0.233422 0.154541 0.148849
H13   H     H_    0.922523 0.811898 0.848684 0.160243
H14   H     H_    0.632330 0.316595 0.275081 0.150067
H15   H     H_    0.365109 0.316403 0.723434 0.149416
H16   H     H_    0.128140 0.816176 0.274968 0.150660
H17   H     H_    0.861569 0.816394 0.723283 0.146202
H18   H     H_    0.765533 0.164075 0.625911 0.130725
H19   H     H_    0.261376 0.194562 0.370048 0.121987
H20   H     H_    0.266618 0.660961 0.624253 0.132390
H21   H     H_    0.737464 0.667278 0.376424 0.139353
H22   H     H_    0.759197 0.051312 0.722113 0.134035
H23   H     H_    0.490840 0.731272 0.845335 0.148871
H24   H     H_    0.323708 0.142950 0.271898 0.134591
H25   H     H_    0.259685 0.544889 0.713819 0.136364
H26   H     H_    0.770556 0.601366 0.255297 0.135520
H27   H     H_    0.642353 0.176235 0.292000 0.142655
H28   H     H_    0.359601 0.175855 0.710620 0.149230
H29   H     H_    0.145270 0.676021 0.291762 0.143924
H30   H     H_    0.862977 0.676027 0.710747 0.144781
H31   H     H_    0.516732 0.085363 0.350313 0.194353
H32   H     H_    0.498317 0.138415 0.344436 0.169239
H33   H     H_    0.490045 0.084229 0.646158 0.216528
H34   H     H_    0.509426 0.734417 0.154570 0.149534
H35   H     H_    0.439049 0.043981 0.611683 0.208977
H36   H     H_    0.015485 0.587727 0.350553 0.194611
H37   H     H_    0.997510 0.640327 0.347528 0.170236
H38   H     H_    0.014144 0.617250 0.617314 0.207884
H39   H     H_    0.987313 0.582110 0.644611 0.215653
H40   H     H_    0.927221 0.231358 0.719075 0.150585
H41   H     H_    0.072845 0.232895 0.280847 0.149910
H42   H     H_    0.427081 0.730885 0.718969 0.149449
H43   H     H_    0.572660 0.734149 0.280890 0.149912
H44   H     H_    0.791406 0.267782 0.717739 0.153649
H45   H     H_    0.854581 0.267978 0.843966 0.150496
H46   H     H_    0.209183 0.267517 0.282389 0.149751
H47   H     H_    0.291774 0.768382 0.717924 0.153536
H48   H     H_    0.709836 0.765507 0.282578 0.154669
H49   H     H_    0.900395 0.319595 0.633289 0.170476
H50   H     H_    0.932223 0.367559 0.666935 0.181079
H51   H     H_    0.122026 0.328892 0.373247 0.176990
H52   H     H_    0.057107 0.343409 0.338342 0.179628
H53   H     H_    0.414969 0.807629 0.628002 0.177111
H54   H     H_    0.446969 0.854538 0.668324 0.183583
H55   H     H_    0.614006 0.821707 0.371969 0.172880
H56   H     H_    0.146309 0.267685 0.156061 0.147888
H57   H     H_    0.550349 0.837294 0.341338 0.182399
H58   H     H_    0.738582 0.326182 0.262303 0.142059
H59   H     H_    0.268668 0.328801 0.738118 0.142507
H60   H     H_    0.211970 0.846384 0.262274 0.141489
H61   H     H_    0.783505 0.839540 0.738193 0.140425
H62   H     H_    0.889311 0.397394 0.368810 0.161738
H63   H     H_    0.119200 0.401046 0.637082 0.167166
H64   H     H_    0.337063 0.942626 0.353092 0.170070
H65   H     H_    0.643413 0.919924 0.648488 0.175649
H66   H     H_    0.528689 0.155154 0.139666 0.185580
H67   H     H_    0.355029 0.768486 0.844131 0.150795
H68   H     H_    0.593352 0.134722 0.193824 0.178622
H69   H     H_    0.463964 0.150563 0.846042 0.186457
H70   H     H_    0.398486 0.136531 0.815878 0.182743
H71   H     H_    0.032262 0.652665 0.141254 0.186064
H72   H     H_    0.098185 0.634675 0.193391 0.179074
H73   H     H_    0.961002 0.649206 0.838046 0.185622
H74   H     H_    0.899771 0.637926 0.821700 0.186422
H75   H     H_    0.950059 0.409927 0.606726 0.168739
H76   H     H_    0.048873 0.410161 0.393497 0.179344
H77   H     H_    0.457386 0.902902 0.607299 0.168692
H78   H     H_    0.647016 0.765452 0.156189 0.150380
H79   H     H_    0.544836 0.906135 0.393253 0.180346
H80   H     H_    0.568144 0.160716 0.339788 0.173930
H81   H     H_    0.549612 0.198502 0.373580 0.193216
H82   H     H_    0.386369 0.114989 0.643172 0.203879
H83   H     H_    0.425110 0.159135 0.654973 0.189688
H84   H     H_    0.066656 0.663306 0.341435 0.174861
H85   H     H_    0.049885 0.700061 0.377895 0.193513
H86   H     H_    0.933827 0.649398 0.664533 0.197401
H87   H     H_    0.944837 0.694462 0.633718 0.206778
H88   H     H_    0.809440 0.115660 0.726245 0.140013
H89   H     H_    0.753416 0.313810 0.370038 0.123506
H90   H     H_    0.254394 0.186919 0.267125 0.136807
H91   H     H_    0.310926 0.609333 0.720390 0.139919
H92   H     H_    0.705837 0.640761 0.265018 0.144548
H93   H     H_    0.666793 0.034635 0.618285 0.161471
H94   H     H_    0.398732 0.106755 0.377601 0.170768
H95   H     H_    0.165473 0.531537 0.611671 0.164711
H96   H     H_    0.864572 0.589031 0.354229 0.167721
N1    N     N_R   0.513616 0.277883 0.034056 -0.189078
N2    N     N_R   0.055652 0.250453 0.034847 -0.181055
N3    N     N_R   0.445464 0.751280 0.965250 -0.179501
N4    N     N_R   0.555915 0.749029 0.034914 -0.180985
N5    N     N_R   0.979518 0.250764 0.033926 -0.179379
N6    N     N_R   0.021307 0.250193 0.966060 -0.180072
N7    N     N_R   0.479824 0.751230 0.034012 -0.178557
N8    N     N_R   0.521538 0.748931 0.966125 -0.179951
N9    N     N_3   0.515852 0.111171 0.377624 -0.435884
N10   N     N_3   0.448286 0.077408 0.622290 -0.470307
N11   N     N_3   0.015351 0.612486 0.379447 -0.432496
N12   N     N_R   0.482314 0.277894 0.965569 -0.191042
N13   N     N_3   0.984469 0.613123 0.624528 -0.468691
N14   N     N_3   0.894834 0.353434 0.624739 -0.439798
N15   N     N_3   0.098406 0.354164 0.371359 -0.446052
N16   N     N_3   0.408474 0.841268 0.627468 -0.453886
N17   N     N_3   0.591545 0.848075 0.370048 -0.446098
N18   N     N_3   0.569205 0.159298 0.156816 -0.438435
N19   N     N_3   0.430969 0.159550 0.846125 -0.440046
N20   N     N_3   0.071961 0.658848 0.156726 -0.438266
N21   N     N_3   0.933224 0.659948 0.846152 -0.443308
N22   N     N_3   0.582427 0.179712 0.383322 -0.458926
N23   N     N_R   0.013698 0.777610 0.034250 -0.188712
N24   N     N_3   0.386302 0.143970 0.620091 -0.464362
N25   N     N_3   0.081896 0.681435 0.385841 -0.457076
N26   N     N_3   0.915119 0.671688 0.623131 -0.466263
N27   N     N_R   0.982295 0.777731 0.965751 -0.191165
N28   N     N_R   0.483165 0.201577 0.966370 -0.137894
N29   N     N_R   0.514664 0.201574 0.035029 -0.145746
N30   N     N_R   0.978466 0.701473 0.965800 -0.136246
N31   N     N_R   0.010062 0.701360 0.034490 -0.147820
N32   N     N_R   0.945184 0.250658 0.965159 -0.179813
O1    O     O_R   0.678340 0.230070 0.500020 -0.611386
O2    O     O_R   0.482930 0.045810 0.557520 -0.631143
O3    O     O_R   0.017070 0.545810 0.442480 -0.603435
O4    O     O_R   0.982930 0.545810 0.557520 -0.628039
O5    O     O_R   0.574570 0.045820 0.557490 -0.639552
O6    O     O_R   0.425430 0.045820 0.442510 -0.634772
O7    O     O_R   0.074570 0.545820 0.557490 -0.641331
O8    O     O_R   0.925430 0.545820 0.442510 -0.630741
O9    O     O_R   0.730080 0.178340 0.500000 -0.627634
O10   O     O_R   0.269920 0.178340 0.500000 -0.611817
O11   O     O_R   0.230080 0.678340 0.500000 -0.627861
O12   O     O_R   0.321660 0.230070 0.499980 -0.623531
O13   O     O_R   0.769920 0.678340 0.500000 -0.627541
O14   O     O_R   0.673200 0.275870 0.398140 -0.616434
O15   O     O_R   0.326800 0.275870 0.601860 -0.618205
O16   O     O_R   0.173200 0.775870 0.398140 -0.616186
O17   O     O_R   0.826800 0.775870 0.601860 -0.617794
O18   O     O_R   0.724950 0.224150 0.398130 -0.619212
O19   O     O_R   0.275050 0.224150 0.601870 -0.615854
O20   O     O_R   0.224950 0.724150 0.398130 -0.618776
O21   O     O_R   0.775050 0.724150 0.601870 -0.617247
O22   O     O_R   0.769940 0.321680 0.500000 -0.607155
O23   O     O_R   0.178340 0.730070 0.500020 -0.609926
O24   O     O_R   0.230060 0.321680 0.500000 -0.613727
O25   O     O_R   0.269940 0.821680 0.500000 -0.611327
O26   O     O_R   0.730060 0.821680 0.500000 -0.613763
O27   O     O_R   0.821690 0.269960 0.499980 -0.624400
O28   O     O_R   0.178310 0.269960 0.500020 -0.619178
O29   O     O_R   0.321690 0.769960 0.499980 -0.627885
O30   O     O_R   0.678310 0.769960 0.500020 -0.619790
O31   O     O_R   0.775070 0.275880 0.601870 -0.617239
O32   O     O_R   0.224930 0.275880 0.398130 -0.623444
O33   O     O_R   0.275070 0.775880 0.601870 -0.618999
O34   O     O_R   0.821660 0.730070 0.499980 -0.615908
O35   O     O_R   0.724930 0.775880 0.398130 -0.618044
O36   O     O_R   0.826820 0.224150 0.601850 -0.631197
O37   O     O_R   0.173180 0.224150 0.398150 -0.624124
O38   O     O_R   0.326820 0.724150 0.601850 -0.633727
O39   O     O_R   0.673180 0.724150 0.398150 -0.629306
O40   O     O_R   0.017100 0.454190 0.442490 -0.633309
O41   O     O_R   0.982900 0.454190 0.557510 -0.626439
O42   O     O_R   0.517100 0.954190 0.442490 -0.623121
O43   O     O_R   0.482900 0.954190 0.557510 -0.625900
O44   O     O_R   0.074600 0.454200 0.557500 -0.647468
O45   O     O_R   0.925400 0.454200 0.442500 -0.632747
O46   O     O_R   0.574600 0.954200 0.557500 -0.652670
O47   O     O_R   0.425400 0.954200 0.442500 -0.639329
O48   O     O_R   0.517070 0.045810 0.442480 -0.606207
Zn1   Zn    Zn3+2 0.715460 0.284550 0.500010 0.972718
Zn2   Zn    Zn3+2 0.038380 0.500000 0.576800 0.921899
Zn3   Zn    Zn3+2 0.461620 0.000000 0.423200 0.935518
Zn4   Zn    Zn3+2 0.538380 0.000000 0.576800 0.918761
Zn5   Zn    Zn3+2 0.284540 0.284550 0.499990 0.966374
Zn6   Zn    Zn3+2 0.215460 0.784550 0.500010 0.970923
Zn7   Zn    Zn3+2 0.784540 0.784550 0.499990 0.968068
Zn8   Zn    Zn3+2 0.784560 0.215470 0.499990 0.958198
Zn9   Zn    Zn3+2 0.215440 0.215470 0.500010 0.964717
Zn10  Zn    Zn3+2 0.284560 0.715470 0.499990 0.955827
Zn11  Zn    Zn3+2 0.715440 0.715470 0.500010 0.959333
Zn12  Zn    Zn3+2 0.961620 0.500000 0.423200 0.935120

loop_
_geom_bond_atom_site_label_1
_geom_bond_atom_site_label_2
_ccdc_geom_bond_type
C69   C139  A    
C105  C110  A    
C133  C137  A    
C87   C91   A    
H70   N19   S    
C65   C106  A    
O20   Zn10  S    
C73   C93   S    
N4    N8    A    
C38   O43   A    
C119  H1    S    
C13   C60   S    
O38   Zn10  S    
C102  O19   A    
C80   H94   S    
O31   Zn1   S    
N28   N29   A    
C154  C158  A    
N3    N7    A    
C125  C144  S    
C82   C87   A    
C29   C33   A    
C126  C143  S    
O25   Zn6   S    
H38   N13   S    
C109  N13   S    
C91   C96   A    
H68   N18   S    
C141  N2    A    
O5    Zn4   S    
C152  O29   A    
C78   H26   S    
C43   C110  S    
N23   N27   A    
C81   C86   A    
C97   C105  A    
O3    Zn12  S    
C35   H18   S    
C83   C88   A    
C24   N31   A    
C100  C109  A    
C44   O6    A    
H51   N15   S    
C45   O7    A    
C130  C134  A    
C122  H34   S    
C118  C140  A    
C42   O39   A    
C21   C26   A    
C21   N14   S    
C6    H64   S    
C39   C136  S    
C25   C29   A    
C62   H10   S    
C23   N16   S    
O11   Zn10  S    
C57   C90   A    
C27   C31   A    
C28   C32   A    
C86   C90   A    
O34   Zn7   S    
H52   N15   S    
C155  C159  A    
C17   C21   A    
C19   C23   A    
C37   O42   A    
C28   H77   S    
O14   Zn1   S    
C39   O36   A    
C78   C82   A    
C11   C33   A    
C67   H16   S    
C16   C20   A    
C79   H93   S    
C1    O1    A    
C156  H60   S    
O8    Zn12  S    
C41   C138  S    
C51   H30   S    
C129  C133  A    
C99   N25   S    
C55   N21   S    
C22   C27   A    
C43   O5    A    
C61   H9    S    
C38   O47   A    
C141  N5    A    
C46   H19   S    
C57   H20   S    
C6    C160  A    
C53   C58   A    
C119  C123  A    
C59   C63   A    
C104  O17   A    
C30   C36   S    
C60   C64   A    
C129  H56   S    
C127  H45   S    
O19   Zn9   S    
C49   H28   S    
C52   C56   A    
C49   C53   A    
C115  H41   S    
C51   C55   A    
O13   Zn11  S    
C87   C113  A    
C61   C65   A    
C48   C52   A    
C54   N20   S    
C114  C136  A    
C152  O25   A    
C75   C79   A    
C58   C150  S    
C158  H5    S    
C22   N15   S    
C15   C147  A    
O45   Zn12  S    
O6    Zn3   S    
O17   Zn7   S    
O42   Zn3   S    
O26   Zn7   S    
C46   C89   A    
O28   Zn9   S    
H57   N17   S    
C99   C108  A    
C145  H89   S    
H87   N26   S    
C153  O30   A    
C68   C74   A    
C126  C131  A    
C123  C142  S    
C118  C122  A    
C50   H29   S    
O27   Zn8   S    
C49   C117  A    
C115  C137  A    
O4    Zn2   S    
C114  C119  A    
C132  C136  A    
H39   N13   S    
C114  H40   S    
C157  H61   S    
H31   N9    S    
N2    N6    A    
O48   Zn3   S    
C92   C97   A    
C19   C152  S    
C54   C59   A    
C45   O3    A    
C149  O22   A    
C31   C34   S    
C20   C153  S    
C62   C66   A    
C42   C140  S    
C148  H4    S    
C156  C160  A    
C52   N18   S    
C7    H65   S    
C133  H46   S    
C23   C28   A    
C50   C128  A    
H82   N24   S    
C41   O38   A    
C12   C145  A    
C121  C125  A    
C47   O8    A    
C123  C127  A    
C8    C12   A    
C95   O13   A    
C83   C110  A    
C64   C69   A    
C81   H95   S    
C101  O14   A    
C102  C117  S    
C27   H76   S    
C2    C56   S    
C2    N29   A    
C145  C154  A    
C103  O16   A    
C26   C30   A    
H85   N25   S    
O36   Zn8   S    
H80   N22   S    
C124  C141  S    
C150  N12   A    
O32   Zn5   S    
C101  C106  S    
H49   N14   S    
C18   C22   A    
C107  C111  A    
H81   N22   S    
C76   C80   A    
C142  N6    A    
O35   Zn7   S    
O10   Zn9   S    
O23   Zn6   S    
C43   O48   A    
C147  H3    S    
C67   C128  A    
C24   C59   S    
C96   C100  A    
H71   N20   S    
C148  C157  A    
C72   H91   S    
C89   C93   A    
C40   O37   A    
O46   Zn4   S    
C2    N1    A    
C103  O20   A    
C70   C75   A    
C3    C157  A    
C41   O33   A    
C75   H22   S    
O1    Zn1   S    
O22   Zn1   S    
C70   H88   S    
C51   C139  A    
C58   C62   A    
C65   H14   S    
H72   N20   S    
C15   C19   A    
C146  H2    S    
H84   N25   S    
C50   C54   A    
H33   N10   S    
C1    O9    A    
C3    C7    A    
C71   C76   A    
C20   C25   A    
C131  H78   S    
C144  N3    A    
C25   N17   S    
C69   H17   S    
C102  O15   A    
C48   C106  A    
C146  C155  A    
C118  H43   S    
C66   C117  A    
C12   C17   A    
C155  H59   S    
C39   O31   A    
C40   O32   A    
C84   O11   A    
C55   C60   A    
C82   H96   S    
C47   O4    A    
C90   C94   A    
C95   O34   A    
C135  C140  A    
C68   H21   S    
C132  H44   S    
C36   O41   A    
C48   H27   S    
C116  C121  A    
C85   C89   A    
C13   N27   A    
C33   C37   S    
C98   C107  A    
C108  C112  A    
H37   N11   S    
C9    C14   A    
C80   C85   A    
C11   C16   A    
C63   H11   S    
C77   C81   A    
O30   Zn11  S    
C107  N10   S    
C84   C94   S    
C147  C156  A    
C46   C71   A    
C130  H67   S    
C1    C92   S    
O16   Zn6   S    
C66   H15   S    
C143  N7    A    
C18   C151  S    
C144  N8    A    
C47   C113  S    
H69   N19   S    
H55   N17   S    
C73   O10   A    
O7    Zn2   S    
C5    C9    A    
C85   C111  A    
H83   N24   S    
C6    C10   A    
C74   H92   S    
C24   N23   A    
C104  C139  S    
C8    C30   A    
C79   C83   A    
C42   O35   A    
C4    H62   S    
H53   N16   S    
C124  C129  A    
H86   N26   S    
C57   C72   A    
C44   C111  S    
C13   N30   A    
C74   C78   A    
C56   C61   A    
C98   N24   S    
H66   N18   S    
C64   H13   S    
C105  N9    S    
C142  N32   A    
C26   H75   S    
C77   H25   S    
C14   C18   A    
C95   C96   S    
C4    C8    A    
C134  H47   S    
C45   C112  S    
O33   Zn6   S    
C7    C11   A    
C44   O2    A    
O15   Zn5   S    
C131  C135  A    
C10   C15   A    
N30   N31   A    
O40   Zn12  S    
O43   Zn4   S    
C34   O40   A    
C68   C91   A    
C160  H7    S    
H35   N10   S    
C127  C132  A    
C125  C130  A    
C4    C158  A    
C88   C92   A    
C35   C70   A    
C5    C159  A    
O21   Zn11  S    
C32   C38   S    
C154  H58   S    
C37   O46   A    
C71   H90   S    
C109  C113  A    
H32   N9    S    
N5    N32   A    
C151  O24   A    
H74   N21   S    
C40   C137  S    
C73   O12   A    
N1    N12   A    
O2    Zn4   S    
O37   Zn9   S    
C3    H8    S    
C149  O27   A    
C116  C138  A    
C63   C67   A    
H54   N16   S    
O44   Zn2   S    
C120  H12   S    
C150  N28   A    
C101  O18   A    
C34   O44   A    
C122  C126  A    
C108  N11   S    
C86   C112  A    
C97   N22   S    
C72   C77   A    
C35   C88   A    
C104  O21   A    
C103  C128  S    
C5    H63   S    
C36   O45   A    
C151  O28   A    
O12   Zn5   S    
O41   Zn2   S    
O29   Zn10  S    
O9    Zn8   S    
C17   C149  S    
C143  N4    A    
C134  C138  A    
C116  H42   S    
O18   Zn8   S    
H50   N14   S    
H73   N21   S    
C14   C146  A    
C159  H6    S    
C121  H23   S    
C16   C148  A    
O47   Zn3   S    
O24   Zn5   S    
C94   C99   A    
C84   O23   A    
C153  O26   A    
C9    C31   A    
C10   C32   A    
C53   N19   S    
O39   Zn11  S    
C115  C120  A    
C100  N26   S    
H36   N11   S    
C76   H24   S    
C93   C98   A    
C29   H79   S    
C120  C124  A    
C135  H48   S    
