data_mof_unit_37830.cif
_audit_creation_date              2013-03-05T15:56:27-0500
_audit_creation_method            fapswitch 2.2
_symmetry_space_group_name_H-M    P1
_symmetry_Int_Tables_number       1
_space_group_crystal_system       triclinic
_cell_length_a                    6.954862
_cell_length_b                    14.526157
_cell_length_c                    16.074149
_cell_angle_alpha                 90.085319
_cell_angle_beta                  90.765529
_cell_angle_gamma                 90.285018
_cell_volume                      1623.76275656

loop_
_atom_site_label
_atom_site_type_symbol
_atom_site_description
_atom_site_fract_x
_atom_site_fract_y
_atom_site_fract_z
_atom_type_partial_charge
O1    O     O_R   0.494400 0.415640 0.412830 -0.539959
O2    O     O_R   0.823920 0.405510 0.586560 -0.616033
O3    O     O_R   0.994250 0.584360 0.587170 -0.587724
C1    C     C_R   0.655603 0.383316 0.615086 0.930426
O4    O     O_R   0.824110 0.404610 0.413450 -0.604791
O5    O     O_R   0.994440 0.583460 0.412820 -0.557736
C2    C     C_R   0.652898 0.381191 0.384724 1.050706
O6    O     O_R   0.494210 0.416540 0.587180 -0.609349
O7    O     O_3   0.660810 0.558680 0.500000 -0.247855
V1    V     V_3+5 0.935650 0.489110 0.500000 1.254391
O8    O     O_R   0.324150 0.594490 0.413440 -0.576648
C3    C     C_R   0.154327 0.615528 0.383522 1.113904
O9    O     O_R   0.323970 0.595390 0.586550 -0.603164
C4    C     C_R   0.155050 0.619847 0.613482 0.997619
V2    V     V_3+5 0.435660 0.510890 0.500000 1.271978
O10   O     O_3   0.160630 0.441320 0.500000 -0.301737
C5    C     C_3   0.934941 0.735782 0.685351 0.344221
H1    H     H_    0.825632 0.679801 0.685166 0.098014
C6    C     C_3   0.913086 0.794087 0.766969 0.075559
H2    H     H_    0.859804 0.863776 0.750103 0.137240
H3    H     H_    0.287552 0.801012 0.613594 0.231635
H4    H     H_    0.196977 0.906721 0.714715 0.224539
C7    C     C_3   0.291294 0.769078 0.676307 -0.202884
C8    C     C_3   0.178660 0.641186 0.767689 -0.527883
C9    C     C_3   0.140622 0.690672 0.683191 -0.212968
H5    H     H_    0.314553 0.601132 0.764865 0.200394
H6    H     H_    0.061662 0.590366 0.778647 0.229171
C10   C     C_3   0.114615 0.807514 0.811966 -0.252345
C11   C     C_3   0.255569 0.843401 0.743831 -0.485179
C12   C     C_3   0.194679 0.711363 0.841126 0.267939
H7    H     H_    0.349695 0.720367 0.855523 0.168495
H8    H     H_    0.437433 0.739917 0.685979 0.200153
H9    H     H_    0.396081 0.864309 0.771143 0.224995
C13   C     C_R   0.971305 0.749415 0.193205 -0.159789
H10   H     H_    0.848683 0.749555 0.150905 0.193581
C14   C     C_R   0.981032 0.682371 0.256182 0.384240
C15   C     C_R   0.141524 0.681103 0.312123 -0.297299
C16   C     C_R   0.290815 0.745301 0.300150 -0.041505
H11   H     H_    0.414615 0.746625 0.341750 0.161462
C17   C     C_R   0.282274 0.809284 0.235137 -0.095866
H12   H     H_    0.400293 0.857415 0.227875 0.123709
C18   C     C_R   0.121627 0.812610 0.181411 -0.191724
C19   C     C_R   0.788794 0.249090 0.695720 -0.115608
H13   H     H_    0.911859 0.246734 0.655196 0.130327
C20   C     C_R   0.772687 0.183623 0.759145 -0.040406
H14   H     H_    0.883112 0.131718 0.765107 0.162414
C21   C     C_R   0.615132 0.183646 0.813308 -0.302155
C22   C     C_R   0.469561 0.251073 0.800892 0.378796
C23   C     C_R   0.486790 0.315395 0.736440 -0.200287
H15   H     H_    0.374780 0.366299 0.728000 0.156717
C24   C     C_R   0.645042 0.315215 0.683449 -0.166888
C25   C     C_R   0.767488 0.239288 0.309781 -0.079924
H16   H     H_    0.869134 0.227552 0.359888 0.143223
C26   C     C_R   0.757453 0.175473 0.244256 -0.076656
H17   H     H_    0.852101 0.116478 0.245630 0.135381
C27   C     C_R   0.627893 0.187892 0.177395 -0.332678
C28   C     C_R   0.509456 0.266258 0.177456 0.323492
C29   C     C_R   0.491149 0.317384 0.251377 0.451279
C30   C     C_R   0.637065 0.312579 0.314271 -0.314022
O11   O     O_R   0.771300 0.080930 0.910090 -0.579284
O12   O     O_R   0.441270 0.092800 0.083770 -0.577583
O13   O     O_R   0.271080 0.913920 0.084380 -0.607034
C31   C     C_R   0.612196 0.116814 0.110956 0.942107
O14   O     O_R   0.441580 0.091910 0.910670 -0.556759
O15   O     O_R   0.271390 0.913020 0.910040 -0.591897
C32   C     C_R   0.608955 0.114270 0.881765 0.924040
O16   O     O_R   0.770990 0.081830 0.084440 -0.594273
O17   O     O_3   0.604750 0.938760 0.997250 -0.244284
V3    V     V_3+5 0.329850 0.008280 0.997210 1.286049
O18   O     O_R   0.941680 0.901940 0.910610 -0.542141
C33   C     C_R   0.109013 0.878981 0.882085 0.996026
O19   O     O_R   0.941370 0.902830 0.083720 -0.598352
C34   C     C_R   0.110765 0.881085 0.112845 0.984019
V4    V     V_3+5 0.829860 0.986420 0.997150 1.283160
O20   O     O_3   0.104830 0.056030 0.997180 -0.227344
S1    S     S_3+6 0.878249 0.803346 0.592770 -0.079839
O21   O     O_2   0.978803 0.765908 0.517884 -0.335596
O22   O     O_2   0.665481 0.799191 0.576405 -0.322787
O23   O     O_3   0.943208 0.914215 0.605375 -0.580553
H18   H     H_    0.900443 0.945269 0.553576 0.379314
N1    N     N_R   0.831727 0.613776 0.259031 0.240066
O24   O     O_R   0.654181 0.636785 0.243859 -0.389637
O25   O     O_R   0.876287 0.526942 0.258771 -0.313573
N2    N     N_R   0.305045 0.257729 0.853301 0.244759
O26   O     O_R   0.173334 0.194053 0.849323 -0.398256
O27   O     O_R   0.259327 0.337641 0.883688 -0.269941
S2    S     S_3+6 0.412260 0.311159 0.083094 0.113993
O28   O     O_2   0.248955 0.251802 0.051936 -0.208281
O29   O     O_2   0.339349 0.407259 0.096317 -0.111575
O30   O     O_3   0.585396 0.316232 0.011161 -0.444589
H19   H     H_    0.611638 0.251700 0.995967 0.306065
S3    S     S_3+6 0.255142 0.346052 0.279384 0.021776
O31   O     O_2   0.239612 0.448086 0.291385 -0.251879
O32   O     O_2   0.108714 0.314999 0.215641 -0.215909
O33   O     O_3   0.217018 0.289061 0.368571 -0.592669
H20   H     H_    0.115435 0.323275 0.396732 0.380817
N3    N     N_R   0.769026 0.752563 0.822097 0.237714
O34   O     O_R   0.650233 0.805154 0.861523 -0.397429
O35   O     O_R   0.749542 0.663698 0.828897 -0.383199
N4    N     N_R   0.109478 0.672445 0.916874 0.263865
O36   O     O_R   0.168543 0.592596 0.943126 -0.256877
O37   O     O_R   0.998201 0.720132 0.964778 -0.357168

loop_
_geom_bond_atom_site_label_1
_geom_bond_atom_site_label_2
_geom_bond_distance
_ccdc_geom_bond_type
S2    O28   1.502662 D    
H4    C11   1.109522 S    
C12   N4    1.473515 S    
O33   H20   0.981022 S    
C13   C18   1.402822 A    
C8    H6    1.111904 S    
C1    O6    1.298706 A    
N1    O24   1.300862 A    
C6    N3    1.473844 S    
C20   H14   1.082359 S    
C7    C11   1.552993 S    
C10   C11   1.567661 S    
C8    H5    1.113727 S    
O5    C3    1.297999 A    
C12   H7    1.106717 S    
O17   V4    1.708720 S    
V2    O10   2.158897 S    
C11   H9    1.106867 S    
C27   C28   1.408438 A    
C13   H10   1.083574 S    
O11   V4    2.001265 S    
C3    C15   1.494607 S    
O12   C31   1.306653 A    
N4    O36   1.301447 A    
N1    O25   1.300386 A    
O8    V2    1.999425 S    
C6    H2    1.112411 S    
O17   V3    2.166640 S    
C23   C24   1.400709 A    
O18   V4    2.019678 S    
C5    S1    1.823687 S    
S1    O23   1.681725 S    
O13   C34   1.299609 A    
O18   C33   1.301347 A    
O1    V2    2.014884 S    
O7    V1    2.166619 S    
C21   C32   1.494122 S    
C17   C18   1.404034 A    
O11   C32   1.307304 A    
O9    C4    1.308093 A    
C2    C30   1.510030 S    
N3    O35   1.302197 A    
C25   C26   1.402870 A    
N3    O34   1.298714 A    
C26   C27   1.405642 A    
S1    O21   1.502708 D    
C20   C21   1.408624 A    
C31   O16   1.295033 A    
V4    O20   2.158792 S    
C1    C24   1.481956 S    
C8    C9    1.557797 S    
O19   V4    1.999446 S    
O4    C2    1.314399 A    
C29   C30   1.424889 A    
O15   C33   1.304588 A    
S3    O33   1.679999 S    
C22   N2    1.433460 S    
O13   V3    2.006146 S    
O14   C32   1.299072 A    
O2    C1    1.302143 A    
C19   H13   1.083127 S    
C15   C16   1.407473 A    
C25   C30   1.404477 A    
C21   C22   1.424507 A    
C14   N1    1.436778 S    
S3    O32   1.502197 D    
C5    H1    1.110410 S    
C27   C31   1.486929 S    
O16   V4    2.018020 S    
O14   V3    2.009773 S    
N2    O26   1.299460 A    
C6    C10   1.579694 S    
C19   C20   1.400420 A    
O3    C4    1.294709 A    
C17   H12   1.083174 S    
O6    V2    2.000997 S    
O9    V2    2.019611 S    
C10   C33   1.532238 S    
O2    V1    2.009734 S    
C25   H16   1.078853 S    
N4    O37   1.300526 A    
O12   V3    2.000107 S    
C26   H17   1.083276 S    
C22   C23   1.402066 A    
C18   C34   1.487148 S    
O1    C2    1.299143 A    
S1    O22   1.500412 D    
O19   C34   1.302424 A    
O5    V1    2.006190 S    
O8    C3    1.307091 A    
C5    C9    1.577166 S    
C7    H8    1.112154 S    
H3    C7    1.110326 S    
O7    V2    1.709711 S    
O4    V1    2.000133 S    
O3    V1    2.004288 S    
V1    O10   1.714942 S    
C16   C17   1.400446 A    
C19   C24   1.402125 A    
O30   H19   0.986858 S    
C16   H11   1.083172 S    
O15   V3    2.004204 S    
C10   C12   1.575834 S    
S3    O31   1.498981 D    
C5    C6    1.570008 S    
V3    O20   1.714953 S    
C13   C14   1.406970 A    
C7    C9    1.548917 S    
C4    C9    1.524689 S    
C8    C12   1.561024 S    
O23   H18   0.990474 S    
C28   S2    1.778475 S    
C14   C15   1.424159 A    
C23   H15   1.084081 S    
S2    O30   1.681932 S    
S2    O29   1.503348 D    
N2    O27   1.301269 A    
C28   C29   1.407825 A    
C29   S3    1.759620 S    
