data_mof_unit_5353.cif
_audit_creation_date              2012-12-11T15:54:06-0500
_audit_creation_method            fapswitch 2.2
_symmetry_space_group_name_H-M    P1
_symmetry_Int_Tables_number       1
_space_group_crystal_system       triclinic
_cell_length_a                    10.633805
_cell_length_b                    10.690215
_cell_length_c                    16.929379
_cell_angle_alpha                 80.72253
_cell_angle_beta                  99.458539
_cell_angle_gamma                 118.799758
_cell_volume                      1656.01077246

loop_
_atom_site_label
_atom_site_type_symbol
_atom_type_description
_atom_site_fract_x
_atom_site_fract_y
_atom_site_fract_z
_atom_type_partial_charge
C1    C     C_R   0.385277 0.285821 0.632019 0.539859
C2    C     C_1   0.334561 0.188906 0.782010 -0.034581
C3    C     C_1   0.317282 0.683496 0.280566 -0.060905
C4    C     C_R   0.414716 0.619891 0.601866 0.552531
C5    C     C_1   0.296368 0.707915 0.209791 -0.073105
C6    C     C_R   0.866245 0.683053 0.167130 0.017710
C7    C     C_R   0.925036 0.611671 0.225324 0.020818
C8    C     C_R   0.914233 0.606292 0.305202 0.014906
C9    C     C_R   0.816202 0.773006 0.272905 -0.161565
C10   C     C_R   0.822866 0.773887 0.191497 -0.175233
C11   C     C_3   0.904272 0.461922 0.232192 -0.260695
C12   C     C_R   0.517221 0.712685 0.735591 -0.151013
C13   C     C_3   0.891072 0.454736 0.320665 -0.275512
C14   C     C_R   0.846938 0.676023 0.329252 0.022985
C15   C     C_R   0.261792 0.053482 0.179950 -0.005521
C16   C     C_R   0.781796 0.621396 0.626003 0.534324
C17   C     C_R   0.156010 0.065545 0.212038 0.018532
C18   C     C_R   0.174883 0.098207 0.289644 -0.018958
C19   C     C_R   0.404915 0.097719 0.309982 -0.156497
C20   C     C_R   0.381053 0.056421 0.232059 -0.174844
C21   C     C_3   0.072855 0.148107 0.182805 0.164551
C22   C     C_3   0.087678 0.178182 0.269466 -0.235205
C23   C     C_R   0.494738 0.728793 0.811672 -0.134952
C24   C     C_R   0.307180 0.131870 0.336161 0.010559
C25   C     C_R   0.948594 0.725357 0.851776 0.556450
C26   C     C_R   0.316704 0.705320 0.898875 0.545624
C27   C     C_R   0.287080 0.119499 0.858684 0.557163
C28   C     C_R   0.348626 0.221656 0.401284 0.559458
C29   C     C_R   0.891154 0.692682 0.085447 0.537470
C30   C     C_R   0.284311 0.739240 0.125452 0.531891
C31   C     C_R   0.245962 0.037995 0.094906 0.552417
C32   C     C_R   0.361668 0.657361 0.361967 0.563350
C33   C     C_R   0.775851 0.624885 0.401484 0.554308
C34   C     C_3   0.096150 0.481274 0.774025 -0.250036
C35   C     C_R   0.356025 0.649969 0.838698 0.014044
C36   C     C_R   0.253762 0.533372 0.797305 0.017923
C37   C     C_R   0.276531 0.516930 0.722442 0.009190
C38   C     C_3   0.278573 0.374031 0.149477 -0.052973
C39   C     C_3   0.120964 0.462894 0.691838 -0.248190
C40   C     C_R   0.401744 0.616786 0.686697 -0.002108
C41   C     C_1   0.851563 0.670050 0.702438 -0.053724
C42   C     C_1   0.898846 0.704602 0.769280 -0.056862
C43   C     C_1   0.366000 0.236106 0.714696 -0.036672
Cr1   Cr    Cr6+3 0.608440 0.389080 0.519680 1.016245
Cr2   Cr    Cr6+3 0.288640 0.400090 0.490760 0.999633
Cr3   Cr    Cr6+3 0.602940 0.710800 0.489510 1.009580
Cr4   Cr    Cr6+3 0.052530 0.947560 0.964210 1.026913
Cr5   Cr    Cr6+3 0.059970 0.626800 0.992920 1.033545
Cr6   Cr    Cr6+3 0.373320 0.938440 0.995370 1.011876
H1    H     H_    0.620354 0.783593 0.712561 0.143483
H2    H     H_    0.581013 0.813961 0.844657 0.150659
H3    H     H_    0.063836 0.566070 0.772333 0.147398
H4    H     H_    0.029326 0.378000 0.808405 0.156447
H5    H     H_    0.068909 0.348882 0.678926 0.152951
H6    H     H_    0.102002 0.536786 0.642955 0.159806
H7    H     H_    0.770008 0.834520 0.289792 0.143015
H8    H     H_    0.787726 0.839328 0.147711 0.128045
H9    H     H_    0.002432 0.458175 0.220954 0.159286
H10   H     H_    0.349287 0.328817 0.181489 0.112125
H11   H     H_    0.276161 0.448725 0.186673 0.118815
H12   H     H_    0.802456 0.388469 0.198439 0.149208
H13   H     H_    0.329449 0.438594 0.094618 0.161506
H14   H     H_    0.781413 0.374764 0.336866 0.160389
H15   H     H_    0.981434 0.446288 0.360414 0.148094
H16   H     H_    0.505306 0.116116 0.346020 0.134454
H17   H     H_    0.462028 0.040014 0.210640 0.144798
H18   H     H_    0.959440 0.077053 0.161146 0.127179
H19   H     H_    0.147097 0.292852 0.280468 0.156993
H20   H     H_    0.983624 0.119111 0.296698 0.099660
O1    O     O_R   0.754020 0.497590 0.609930 -0.512362
O2    O     O_R   0.406180 0.826930 0.920660 -0.514747
O3    O     O_R   0.358620 0.062870 0.901950 -0.487091
O4    O     O_R   0.481420 0.271390 0.600630 -0.479398
O5    O     O_R   0.163910 0.085460 0.050210 -0.454921
O6    O     O_R   0.935200 0.815170 0.045770 -0.521536
O7    O     O_R   0.916120 0.596690 0.069430 -0.511147
O8    O     O_R   0.192310 0.631200 0.086170 -0.484948
O9    O     O_R   0.406770 0.819480 0.096420 -0.518750
O10   O     O_R   0.359170 0.055960 0.064880 -0.516751
O11   O     O_3   0.161940 0.837600 0.984160 -0.314300
O12   O     O_R   0.295080 0.533620 0.397890 -0.506349
O13   O     O_R   0.263810 0.254550 0.589590 -0.510478
O14   O     O_R   0.300820 0.531200 0.560890 -0.512000
O15   O     O_R   0.491480 0.744020 0.564270 -0.502872
O16   O     O_R   0.726290 0.693800 0.583010 -0.517743
O17   O     O_R   0.747830 0.500190 0.434090 -0.521585
O18   O     O_R   0.475680 0.273800 0.437630 -0.495640
O19   O     O_R   0.257620 0.257160 0.413750 -0.520258
O20   O     O_3   0.136519 0.269788 0.125655 -0.531391
O21   O     O_R   0.485280 0.746620 0.388440 -0.506165
O22   O     O_R   0.720550 0.696220 0.420010 -0.505212
O23   O     O_3   0.500010 0.499990 0.499980 -0.284385
O24   O     O_R   0.163320 0.092900 0.874450 -0.507533
O25   O     O_R   0.934650 0.822080 0.882840 -0.488711
O26   O     O_R   0.915520 0.604140 0.893670 -0.501293
O27   O     O_R   0.191760 0.638110 0.923230 -0.501453

loop_
_geom_bond_atom_site_label_1
_geom_bond_atom_site_label_2
_ccdc_geom_bond_type
C8    C13   S    
Cr5   O26   S    
C41   C42   T    
Cr5   O7    S    
C19   C20   A    
C33   O17   A    
C14   C33   S    
C7    C8    A    
C29   O7    A    
C21   O20   S    
C7    C11   S    
C32   O12   A    
C4    O14   A    
C38   O20   S    
C18   C24   A    
C20   H17   S    
C36   C37   A    
C37   C40   A    
C4    O15   A    
C33   O22   A    
C39   H5    S    
Cr3   O23   S    
Cr6   O9    S    
Cr2   O23   S    
C30   O8    A    
C1    C43   S    
C32   O21   A    
C35   C36   A    
Cr6   O3    S    
C13   H14   S    
C28   O19   A    
Cr1   O1    S    
C2    C27   S    
C11   H9    S    
C9    C10   A    
C22   H20   S    
Cr1   O23   S    
Cr3   O16   S    
C25   O25   A    
C21   C22   S    
C21   H18   S    
C26   O2    A    
Cr2   O14   S    
Cr4   O11   S    
Cr1   O17   S    
C26   O27   A    
C15   C20   A    
C39   H6    S    
C34   C39   S    
C4    C40   S    
Cr2   O19   S    
C16   O1    A    
C31   O5    A    
Cr3   O22   S    
C3    C5    T    
C1    O13   A    
Cr2   O13   S    
C17   C21   S    
Cr6   O10   S    
Cr5   O8    S    
C12   C40   A    
C9    C14   A    
C23   H2    S    
C12   C23   A    
C2    C43   T    
C10   H8    S    
C28   O18   A    
C17   C18   A    
Cr4   O24   S    
C3    C32   S    
C9    H7    S    
C15   C31   S    
C22   H19   S    
C38   H11   S    
C25   O26   A    
C23   C35   A    
C16   O16   A    
Cr3   O15   S    
C27   O24   A    
C29   O6    A    
Cr1   O18   S    
C5    C30   S    
C15   C17   A    
C8    C14   A    
Cr5   O27   S    
C18   C22   S    
Cr2   O12   S    
C24   C28   S    
Cr4   O5    S    
C11   H12   S    
C25   C42   S    
C6    C10   A    
C12   H1    S    
C31   O10   A    
C6    C7    A    
Cr3   O21   S    
C34   H3    S    
Cr6   O11   S    
C1    O4    A    
Cr5   O11   S    
C19   C24   A    
Cr4   O6    S    
C37   C39   S    
C11   C13   S    
C13   H15   S    
Cr4   O25   S    
C19   H16   S    
C34   C36   S    
Cr1   O4    S    
C38   H10   S    
C30   O9    A    
C26   C35   S    
C6    C29   S    
C34   H4    S    
Cr6   O2    S    
C16   C41   S    
C27   O3    A    
C38   H13   S    
