data_mof_unit_7541.cif
_audit_creation_date              2012-12-10T19:42:13-0500
_audit_creation_method            fapswitch 2.2
_symmetry_space_group_name_H-M    P1
_symmetry_Int_Tables_number       1
_space_group_crystal_system       triclinic
_cell_length_a                    10.84964
_cell_length_b                    10.943138
_cell_length_c                    9.664012
_cell_angle_alpha                 89.751818
_cell_angle_beta                  90.275072
_cell_angle_gamma                 90.143834
_cell_volume                      1147.37197931

loop_
_atom_site_label
_atom_site_type_symbol
_atom_type_description
_atom_site_fract_x
_atom_site_fract_y
_atom_site_fract_z
_atom_type_partial_charge
C1    C     C_R   0.497001 0.264620 0.500247 0.795399
C2    C     C_R   0.225902 0.708376 0.022634 -0.102435
C3    C     C_R   0.933035 0.540643 0.385134 -0.234743
C4    C     C_R   0.871819 0.496802 0.502442 -0.077510
C5    C     C_R   0.939693 0.457796 0.619762 -0.004925
C6    C     C_R   0.067281 0.462122 0.615765 -0.238048
C7    C     C_R   0.128459 0.505755 0.498327 -0.078969
C8    C     C_R   0.060708 0.547332 0.382077 -0.001584
C9    C     C_R   0.873593 0.489985 0.863635 -0.147379
C10   C     C_R   0.816083 0.449302 0.984495 -0.176371
C11   C     C_R   0.767555 0.331121 0.991636 -0.096844
C12   C     C_R   0.262298 0.503182 0.499396 0.796019
C13   C     C_R   0.775545 0.253625 0.877358 -0.136583
C14   C     C_R   0.831968 0.294344 0.755609 -0.115793
C15   C     C_R   0.881493 0.412830 0.748382 0.136570
C16   C     C_2   0.494086 0.932088 0.386719 -0.204699
C17   C     C_2   0.518661 0.865433 0.499639 -0.307586
C18   C     C_2   0.511594 0.066026 0.386562 0.414619
C19   C     C_2   0.479861 0.131339 0.500044 0.216705
C20   C     C_2   0.425843 0.432533 0.922044 -0.090577
C21   C     C_2   0.430737 0.427524 0.077875 -0.036153
C22   C     C_R   0.503661 0.734468 0.499716 0.848661
C23   C     C_R   0.737817 0.497687 0.500736 0.795242
C24   C     C_R   0.233797 0.767892 0.150045 -0.131905
C25   C     C_R   0.180627 0.715334 0.267769 -0.098428
C26   C     C_R   0.118734 0.602715 0.258261 0.128961
C27   C     C_R   0.110365 0.543883 0.129709 -0.163801
C28   C     C_R   0.164052 0.596613 0.012483 -0.139610
Cu1   Cu    Cu3+1 0.500020 0.500020 0.638630 0.942876
Cu2   Cu    Cu3+1 0.499980 0.499980 0.361370 0.957587
H1    H     H_    0.267481 0.748944 0.931732 0.131895
H2    H     H_    0.723770 0.299876 0.085752 0.170262
H3    H     H_    0.738058 0.162057 0.883220 0.111320
H4    H     H_    0.836921 0.234045 0.667242 0.110529
H5    H     H_    0.465752 0.887238 0.291900 0.148422
H6    H     H_    0.554397 0.906813 0.593262 0.164972
H7    H     H_    0.357357 0.376294 0.870578 0.140321
H8    H     H_    0.567322 0.547930 0.894181 0.200417
H9    H     H_    0.371748 0.361551 0.129402 0.152562
H10   H     H_    0.280580 0.855039 0.157286 0.108863
H11   H     H_    0.549824 0.565585 0.105765 0.186142
H12   H     H_    0.187339 0.762249 0.365997 0.113307
H13   H     H_    0.063285 0.456885 0.120731 0.137090
H14   H     H_    0.158097 0.550674 0.913842 0.132609
H15   H     H_    0.881123 0.574494 0.296957 0.149981
H16   H     H_    0.119012 0.429047 0.704556 0.149392
H17   H     H_    0.910555 0.581940 0.859101 0.129732
H18   H     H_    0.808835 0.509521 0.072447 0.132339
N1    N     N_2   0.498640 0.498660 0.846910 -0.274021
N2    N     N_2   0.498610 0.498630 0.153040 -0.277905
O1    O     O_R   0.500020 0.321960 0.617040 -0.580852
O2    O     O_R   0.499980 0.321920 0.382900 -0.543465
O3    O     O_R   0.319660 0.500030 0.617070 -0.585777
O4    O     O_R   0.319620 0.499990 0.382930 -0.569049
O5    O     O_R   0.500020 0.678080 0.617100 -0.581240
O6    O     O_R   0.499980 0.678040 0.382960 -0.579343
O7    O     O_R   0.680380 0.500010 0.617070 -0.570464
O8    O     O_R   0.680340 0.499970 0.382930 -0.585702
O9    O     O_3   0.573046 0.123030 0.277350 -0.579292
C29   C     C_3   0.524218 0.086131 0.148374 -0.357974
H19   H     H_    0.421587 0.081243 0.148784 0.143278
H20   H     H_    0.564664 0.997478 0.116575 0.166372
H21   H     H_    0.550132 0.154899 0.069069 0.180699
O10   O     O_3   0.406498 0.076613 0.601245 -0.594699
C30   C     C_3   0.456874 0.092659 0.735144 -0.332513
H22   H     H_    0.413829 0.172422 0.785945 0.192137
H23   H     H_    0.559239 0.101509 0.735903 0.137722
H24   H     H_    0.433609 0.011127 0.798563 0.173239

loop_
_geom_bond_atom_site_label_1
_geom_bond_atom_site_label_2
_ccdc_geom_bond_type
C25   H12   S    
C14   H4    S    
C23   O8    A    
O9    C29   S    
C13   H3    S    
C22   O5    A    
C17   H6    S    
C20   N1    D    
C8    C26   S    
C9    C10   A    
C18   O9    S    
Cu1   O5    S    
C12   O3    A    
C21   H9    S    
C22   O6    A    
C19   O10   S    
C30   H24   S    
O10   C30   S    
C9    C15   A    
C7    C8    A    
H8    N1    S    
Cu1   N1    S    
C13   C14   A    
C24   C25   A    
C10   H18   S    
C20   H7    S    
Cu2   O4    S    
C26   C27   A    
Cu1   Cu2   S    
Cu1   O3    S    
C29   H19   S    
C29   H21   S    
C4    C5    A    
Cu2   O8    S    
C16   C18   S    
C21   N2    D    
C24   H10   S    
Cu1   O7    S    
C11   H2    S    
C30   H22   S    
C6    C7    A    
C16   H5    S    
C2    C24   A    
C5    C6    A    
Cu2   N2    S    
C1    O2    A    
C7    C12   S    
C1    C19   S    
C9    H17   S    
C5    C15   S    
C10   C11   A    
C3    C4    A    
C27   H13   S    
H11   N2    S    
C11   C13   A    
C20   C21   S    
C3    C8    A    
C28   H14   S    
C29   H20   S    
C18   C19   D    
Cu1   O1    S    
C27   C28   A    
C23   O7    A    
C4    C23   S    
Cu2   O2    S    
C14   C15   A    
C2    H1    S    
C2    C28   A    
C1    O1    A    
C6    H16   S    
C25   C26   A    
Cu2   O6    S    
C3    H15   S    
C12   O4    A    
C17   C22   S    
C16   C17   D    
C30   H23   S    
