data_mof_unit_20300.cif
_audit_creation_date              2012-10-26T20:17:33-0400
_audit_creation_method            fapswitch 2.2
_symmetry_space_group_name_H-M    P1
_symmetry_Int_Tables_number       1
_space_group_crystal_system       triclinic
_cell_length_a                    27.739781
_cell_length_b                    8.73721
_cell_length_c                    7.42749
_cell_angle_alpha                 102.973842
_cell_angle_beta                  94.050481
_cell_angle_gamma                 92.345694
_cell_volume                      1746.86372948

loop_
_atom_site_label
_atom_site_type_symbol
_atom_type_description
_atom_site_fract_x
_atom_site_fract_y
_atom_site_fract_z
_atom_type_partial_charge
C1    C     C_R   0.497615 0.200355 0.454248 0.534547
C2    C     C_R   0.869725 0.384657 0.346052 0.042452
C3    C     C_R   0.354064 0.496294 0.510579 0.008016
C4    C     C_R   0.645936 0.503708 0.489421 0.008015
C5    C     C_R   0.971686 0.374137 0.382110 0.009489
C6    C     C_R   0.028314 0.625872 0.617907 0.009489
C7    C     C_R   0.978104 0.644035 0.577935 0.038253
C8    C     C_R   0.021896 0.355975 0.422085 0.038253
C9    C     C_R   0.949594 0.512249 0.470060 -0.007530
C10   C     C_R   0.050406 0.487761 0.529956 -0.007531
C11   C     C_R   0.943011 0.263886 0.245577 -0.039930
C12   C     C_R   0.502385 0.799645 0.545752 0.534547
C13   C     C_R   0.056990 0.736124 0.754437 -0.039930
C14   C     C_R   0.892850 0.260041 0.237069 0.256291
C15   C     C_R   0.107151 0.739971 0.762938 0.256289
C16   C     C_R   0.407281 0.498565 0.502364 0.570857
C17   C     C_R   0.592719 0.501435 0.497636 0.570857
C18   C     C_R   0.044376 0.208785 0.373875 0.228871
C19   C     C_R   0.955623 0.791224 0.626148 0.228876
C20   C     C_2   0.490534 0.034495 0.433615 -0.068102
C21   C     C_2   0.509466 0.965505 0.566385 -0.068102
C22   C     C_R   0.175186 0.347763 0.481274 0.414446
C23   C     C_R   0.101574 0.481698 0.553052 -0.082359
C24   C     C_R   0.824814 0.652246 0.518731 0.414445
C25   C     C_R   0.180872 0.616302 0.645870 0.443486
C26   C     C_R   0.819128 0.383708 0.354130 0.443486
C27   C     C_R   0.285697 0.526557 0.701710 -0.028623
C28   C     C_R   0.714304 0.473452 0.298289 -0.028621
C29   C     C_R   0.335419 0.531064 0.685776 -0.137983
C30   C     C_R   0.664581 0.468940 0.314223 -0.137982
C31   C     C_R   0.321178 0.458440 0.349698 0.224991
C32   C     C_R   0.678822 0.541563 0.650304 0.224991
C33   C     C_R   0.271436 0.458201 0.367630 -0.000372
C34   C     C_R   0.898426 0.518312 0.446958 -0.082359
C35   C     C_R   0.728564 0.541803 0.632373 -0.000374
C36   C     C_R   0.253430 0.490366 0.542753 0.180528
C37   C     C_R   0.746570 0.509640 0.457248 0.180529
C38   C     C_1   0.115399 0.049995 0.382010 0.421823
C39   C     C_1   0.884600 0.950012 0.617998 0.421827
C40   C     C_1   0.458133 0.952529 0.275271 0.250875
C41   C     C_1   0.541866 0.047471 0.724729 0.250876
C42   C     C_R   0.124063 0.342512 0.477508 -0.025947
C43   C     C_R   0.875936 0.657497 0.522502 -0.025949
C44   C     C_R   0.094854 0.202867 0.405747 0.022987
C45   C     C_R   0.905145 0.797141 0.594267 0.022989
C46   C     C_R   0.130276 0.615353 0.653953 0.042452
Cl1   Cl    Cl    0.339196 0.404454 0.122285 -0.584820
Cl2   Cl    Cl    0.660805 0.595552 0.877718 -0.584824
Cl3   Cl    Cl    0.861958 0.099441 0.078017 -0.458570
Cl4   Cl    Cl    0.138044 0.900571 0.921985 -0.458571
Cl5   Cl    Cl    0.011363 0.023176 0.298217 -0.548787
Cl6   Cl    Cl    0.988635 0.976834 0.701825 -0.548786
Cu1   Cu    Cu3+1 0.505380 0.517380 0.684380 1.061690
Cu2   Cu    Cu3+1 0.494620 0.482620 0.315620 1.061690
H1    H     H_    0.462261 0.378494 0.948293 0.259993
H2    H     H_    0.040957 0.818329 0.860861 0.224153
H3    H     H_    0.537739 0.621506 0.051707 0.259993
H4    H     H_    0.246425 0.430628 0.244450 0.181243
H5    H     H_    0.753575 0.569377 0.755553 0.181243
H6    H     H_    0.640665 0.438750 0.188279 0.199646
H7    H     H_    0.359335 0.561256 0.811718 0.199645
H8    H     H_    0.727779 0.449050 0.162007 0.191773
H9    H     H_    0.272220 0.550962 0.837990 0.191772
H10   H     H_    0.959045 0.181680 0.139156 0.224155
N1    N     N_R   0.201996 0.484581 0.558079 -0.406471
N2    N     N_R   0.798003 0.515428 0.441922 -0.406470
N3    N     N_2   0.486510 0.456430 0.038510 -0.237718
N4    N     N_2   0.513490 0.543570 0.961490 -0.237718
N5    N     N_1   0.131529 0.927908 0.364983 -0.142875
N6    N     N_1   0.868471 0.072099 0.635019 -0.142873
N7    N     N_1   0.432376 0.887833 0.149319 -0.226172
N8    N     N_1   0.567624 0.112167 0.850681 -0.226171
O1    O     O_R   0.503500 0.286120 0.619780 -0.512958
O2    O     O_2   0.801832 0.781039 0.595586 -0.429752
O3    O     O_2   0.791182 0.251331 0.281582 -0.385185
O4    O     O_2   0.208818 0.748680 0.718410 -0.385184
O5    O     O_R   0.496500 0.713880 0.380220 -0.512958
O6    O     O_R   0.494410 0.256780 0.308360 -0.486650
O7    O     O_R   0.505590 0.743220 0.691640 -0.486650
O8    O     O_R   0.434810 0.514700 0.655690 -0.521143
O9    O     O_R   0.565190 0.485300 0.344310 -0.521142
O10   O     O_R   0.425720 0.485350 0.344280 -0.434466
O11   O     O_R   0.574280 0.514650 0.655720 -0.434467
O12   O     O_2   0.198167 0.218969 0.404421 -0.429751

loop_
_geom_bond_atom_site_label_1
_geom_bond_atom_site_label_2
_ccdc_geom_bond_type
C33   H4    S    
C40   N7    T    
C27   C29   A    
Cu1   Cu2   S    
C5    C9    A    
C23   C42   A    
C35   C37   A    
C5    C11   A    
C20   C40   S    
C11   C14   A    
C14   Cl3   S    
C12   O7    A    
C33   C36   A    
C35   H5    S    
C15   Cl4   S    
C3    C29   A    
Cu1   N4    S    
C19   Cl6   S    
C30   H6    S    
C31   C33   A    
C24   N2    A    
C39   C45   S    
C13   H2    S    
C2    C34   A    
C38   N5    T    
C23   C46   A    
C31   Cl1   S    
C37   N2    S    
C1    O6    A    
C32   Cl2   S    
C42   C44   A    
C18   Cl5   S    
C29   H7    S    
N3    N4    D    
C26   N2    A    
C32   C35   A    
Cu1   O8    S    
C25   N1    A    
C11   H10   S    
C36   N1    S    
Cu2   N3    S    
C12   C21   S    
C8    C18   A    
C16   O8    A    
C22   O12   S    
C22   N1    A    
C38   C44   S    
C18   C44   A    
C12   O5    A    
C16   O10   A    
C26   O3    S    
C2    C26   A    
C3    C31   A    
C43   C45   A    
C4    C32   A    
C27   H9    S    
C41   N8    T    
C21   C41   S    
C4    C17   S    
C7    C19   A    
C13   C15   A    
C9    C34   A    
C10   C23   A    
H3    N4    S    
Cu2   O10   S    
C7    C9    A    
C1    C20   S    
Cu1   O7    S    
Cu1   O1    S    
C34   C43   A    
C6    C10   A    
C5    C8    A    
H1    N3    S    
C19   C45   A    
C6    C7    A    
C27   C36   A    
Cu1   O11   S    
C25   O4    S    
C1    O1    A    
Cu2   O5    S    
C28   C30   A    
C6    C13   A    
C24   O2    S    
C22   C42   A    
C28   C37   A    
C39   N6    T    
C17   O9    A    
C2    C14   A    
C20   C21   D    
C8    C10   A    
C24   C43   A    
C15   C46   A    
C17   O11   A    
C25   C46   A    
Cu2   O9    S    
C4    C30   A    
C3    C16   S    
Cu2   O6    S    
C28   H8    S    
