data_mof_unit_51446.cif
_audit_creation_date              2012-12-11T14:46:03-0500
_audit_creation_method            fapswitch 2.2
_symmetry_space_group_name_H-M    P1
_symmetry_Int_Tables_number       1
_space_group_crystal_system       triclinic
_cell_length_a                    10.913466
_cell_length_b                    10.939193
_cell_length_c                    18.821827
_cell_angle_alpha                 89.868006
_cell_angle_beta                  90.174105
_cell_angle_gamma                 119.910736
_cell_volume                      1947.7272795

loop_
_atom_site_label
_atom_site_type_symbol
_atom_type_description
_atom_site_fract_x
_atom_site_fract_y
_atom_site_fract_z
_atom_type_partial_charge
C1    C     C_R   0.864581 0.637120 0.603462 0.544694
C2    C     C_R   0.432735 0.637724 0.776925 -0.127085
C3    C     C_R   0.409081 0.627101 0.704689 -0.138463
C4    C     C_R   0.318775 0.669725 0.676067 0.016742
C5    C     C_R   0.837037 0.161317 0.820789 0.008283
C6    C     C_R   0.089292 0.236461 0.825185 -0.107118
C7    C     C_R   0.213334 0.263141 0.791155 -0.125168
C8    C     C_R   0.211372 0.234858 0.719047 0.448574
C9    C     C_R   0.086552 0.184442 0.679940 0.450708
C10   C     C_R   0.963286 0.172936 0.711497 -0.035038
C11   C     C_R   0.962510 0.188223 0.786461 -0.016965
C12   C     C_R   0.269442 0.632045 0.603998 0.533276
C13   C     C_R   0.714849 0.109688 0.706406 -0.055373
C14   C     C_R   0.720270 0.144131 0.778483 -0.003067
C15   C     C_R   0.585134 0.054368 0.669286 -0.052483
C16   C     C_R   0.471207 0.059587 0.698882 0.431917
C17   C     C_R   0.484259 0.117026 0.766110 -0.069840
C18   C     C_R   0.607889 0.160819 0.805224 -0.156449
C19   C     C_R   0.841919 0.147829 0.670895 -0.014545
C20   C     C_R   0.726879 0.534503 0.713597 -0.145800
C21   C     C_R   0.718618 0.546409 0.786771 -0.213798
C22   C     C_R   0.804760 0.676521 0.819436 0.019828
C23   C     C_R   0.860924 0.221131 0.601526 0.550565
C24   C     C_R   0.891636 0.796362 0.777696 0.354343
C25   C     C_R   0.895888 0.784956 0.705423 -0.093755
C26   C     C_R   0.820050 0.653599 0.673339 -0.049233
C27   C     C_R   0.237386 0.537376 0.275081 -0.121478
C28   C     C_R   0.254643 0.554348 0.202544 0.325019
C29   C     C_R   0.335249 0.690013 0.174088 0.075721
C30   C     C_R   0.384823 0.809186 0.218761 0.351411
C31   C     C_R   0.364511 0.791145 0.291706 -0.128949
C32   C     C_R   0.296681 0.655236 0.320030 -0.102397
C33   C     C_R   0.795448 0.261864 0.274416 -0.071352
C34   C     C_R   0.869639 0.636702 0.395613 0.542241
C35   C     C_R   0.794809 0.245461 0.201732 0.423346
C36   C     C_R   0.852189 0.167143 0.172897 0.085544
C37   C     C_R   0.922791 0.117987 0.217123 -0.144531
C38   C     C_R   0.925671 0.137211 0.290215 -0.165494
C39   C     C_R   0.856457 0.203805 0.319074 -0.040490
C40   C     C_R   0.965563 0.705481 0.276376 -0.098120
C41   C     C_R   0.949860 0.706683 0.203756 0.374492
C42   C     C_R   0.814183 0.649994 0.174714 0.070342
C43   C     C_R   0.694344 0.579439 0.218521 -0.144574
C44   C     C_R   0.710630 0.576126 0.291571 -0.166148
C45   C     C_R   0.266021 0.630965 0.394956 0.540225
C46   C     C_R   0.846415 0.644717 0.320660 -0.041895
C47   C     C_R   0.807163 0.105554 0.894915 0.545634
C48   C     C_R   0.398976 0.702171 0.895614 0.543634
C49   C     C_R   0.794393 0.696743 0.894863 0.565305
C50   C     C_R   0.809402 0.108156 0.102109 0.588138
C51   C     C_R   0.394401 0.704858 0.103405 0.602411
C52   C     C_R   0.797845 0.692607 0.104004 0.582805
C53   C     C_R   0.864199 0.234679 0.394158 0.541024
C54   C     C_R   0.255182 0.726691 0.719919 -0.096748
C55   C     C_R   0.281544 0.740129 0.792400 -0.145179
C56   C     C_R   0.367069 0.691589 0.820959 0.028138
Cr1   Cr    Cr6+3 0.791660 0.390250 0.499930 1.061897
Cr2   Cr    Cr6+3 0.098520 0.708290 0.500540 1.097495
Cr3   Cr    Cr6+3 0.109770 0.401430 0.499480 1.113400
Cr4   Cr    Cr6+3 0.874790 0.925890 0.000070 1.111735
Cr5   Cr    Cr6+3 0.574120 0.948670 0.999300 1.115352
Cr6   Cr    Cr6+3 0.551420 0.625320 0.000920 1.063520
H1    H     H_    0.574728 0.014199 0.615712 0.145852
H2    H     H_    0.398504 0.127213 0.788319 0.164726
H3    H     H_    0.967259 0.877817 0.675227 0.212484
H4    H     H_    0.176605 0.431378 0.296121 0.176370
H5    H     H_    0.967743 0.057025 0.195898 0.173212
H6    H     H_    0.978117 0.097205 0.324161 0.153424
H7    H     H_    0.501847 0.602802 0.798721 0.146206
H8    H     H_    0.456931 0.581229 0.671701 0.167793
O1    O     O_R   0.766500 0.250040 0.579790 -0.519593
O2    O     O_R   0.218690 0.701900 0.425960 -0.502427
O3    O     O_R   0.249490 0.516440 0.419420 -0.510675
O4    O     O_R   0.982880 0.281910 0.424890 -0.493550
O5    O     O_3   0.999980 0.499990 0.499980 -0.284747
O6    O     O_R   0.895110 0.806860 0.920430 -0.432138
O7    O     O_R   0.872260 0.046970 0.925000 -0.462625
O8    O     O_R   0.691430 0.085060 0.918550 -0.533628
O9    O     O_R   0.451490 0.822460 0.925250 -0.498900
O10   O     O_R   0.413330 0.603360 0.920440 -0.526725
O11   O     O_R   0.676110 0.626250 0.926750 -0.525097
O12   O     O_R   0.798570 0.516780 0.574780 -0.495457
O13   O     O_R   0.895350 0.809870 0.080950 -0.456012
O14   O     O_R   0.872490 0.049760 0.073800 -0.525481
O15   O     O_R   0.691680 0.088070 0.079070 -0.407399
O16   O     O_R   0.451720 0.825250 0.074050 -0.439629
O17   O     O_R   0.413580 0.606370 0.080960 -0.469037
O18   O     O_R   0.676340 0.629040 0.075550 -0.510518
O19   O     O_3   0.666780 0.833290 0.000090 -0.300129
O20   O     O_R   0.984000 0.732950 0.581090 -0.481299
O21   O     O_R   0.218600 0.700890 0.574760 -0.479413
O22   O     O_R   0.249390 0.515350 0.579940 -0.489750
O23   O     O_R   0.982790 0.280900 0.573700 -0.434294
O24   O     O_R   0.766600 0.251130 0.419260 -0.515554
O25   O     O_R   0.798660 0.517790 0.425980 -0.502338
O26   O     O_R   0.984100 0.734040 0.420570 -0.508632
H9    H     H_    0.180701 0.755523 0.698675 0.192330
F1    F     F_    0.351247 0.016594 0.660533 -0.580211
H10   H     H_    0.666978 0.431300 0.689413 0.196720
H11   H     H_    0.647761 0.454628 0.817774 0.133504
F2    F     F_    0.974773 0.925809 0.806290 -0.631678
F3    F     F_    0.198894 0.437867 0.160591 -0.613025
F4    F     F_    0.460996 0.942498 0.192998 -0.579382
H12   H     H_    0.232217 0.783455 0.826068 0.143178
H13   H     H_    0.404686 0.882527 0.326071 0.164840
H14   H     H_    0.748825 0.321198 0.295785 0.163143
F5    F     F_    0.731665 0.299715 0.160037 -0.595892
H15   H     H_    0.071535 0.751561 0.297977 0.163829
F6    F     F_    0.067197 0.769545 0.162348 -0.601650
H16   H     H_    0.588423 0.534881 0.197022 0.174557
H17   H     H_    0.618232 0.523865 0.325289 0.151028
H18   H     H_    0.310692 0.303439 0.821145 0.122920
F7    F     F_    0.331501 0.257351 0.686542 -0.592880
H19   H     H_    0.094369 0.258908 0.881439 0.148193
F8    F     F_    0.084587 0.137171 0.613059 -0.580883
H20   H     H_    0.615740 0.212030 0.855438 0.150117

loop_
_geom_bond_atom_site_label_1
_geom_bond_atom_site_label_2
_ccdc_geom_bond_type
C55   C56   A    
C1    O20   A    
C41   C42   A    
C14   C18   A    
C12   O21   A    
C35   C36   A    
C16   F1    S    
C50   O14   A    
C7    C8    A    
C39   C53   S    
Cr4   O19   S    
C40   C46   A    
C5    C47   S    
C33   C39   A    
C48   O9    A    
Cr6   O10   S    
C36   C37   A    
C37   C38   A    
C34   O26   A    
C5    C11   A    
C17   H2    S    
C38   C39   A    
Cr4   O13   S    
C15   C16   A    
Cr6   O19   S    
C7    H18   S    
C45   O3    A    
C24   F2    S    
C32   C45   S    
C49   O11   A    
Cr2   O26   S    
C6    H19   S    
C50   O15   A    
C53   O4    A    
Cr5   O19   S    
C8    C9    A    
C30   F4    S    
C54   H9    S    
C34   C46   S    
C43   H16   S    
C4    C12   S    
C2    H7    S    
Cr2   O21   S    
Cr3   O3    S    
C40   H15   S    
C53   O24   A    
C41   F6    S    
C21   C22   A    
C45   O2    A    
C31   H13   S    
C51   O16   A    
C44   C46   A    
Cr2   O5    S    
Cr4   O7    S    
C13   C19   A    
C9    F8    S    
C23   O1    A    
C52   O18   A    
C3    H8    S    
C25   H3    S    
C24   C25   A    
C10   C11   A    
C51   O17   A    
C6    C11   A    
C21   H11   S    
C16   C17   A    
C1    O12   A    
Cr6   O18   S    
C55   H12   S    
Cr4   O6    S    
Cr1   O1    S    
C23   O23   A    
C52   O13   A    
C19   C23   S    
C43   C44   A    
C29   C30   A    
C31   C32   A    
Cr5   O8    S    
C17   C18   A    
C49   O6    A    
C34   O25   A    
Cr2   O20   S    
Cr3   O4    S    
C5    C14   A    
Cr5   O15   S    
C8    F7    S    
C22   C49   S    
C40   C41   A    
Cr6   O11   S    
C38   H6    S    
Cr1   O24   S    
C13   C15   A    
C1    C26   S    
C22   C24   A    
C42   C43   A    
C47   O7    A    
C18   H20   S    
C3    C4    A    
Cr3   O5    S    
C36   C50   S    
C29   C51   S    
C10   C19   A    
C48   C56   S    
C54   C55   A    
C28   C29   A    
C4    C54   A    
C27   C32   A    
C12   O22   A    
C33   H14   S    
C6    C7    A    
Cr6   O17   S    
Cr1   O5    S    
C2    C3    A    
C25   C26   A    
C27   H4    S    
C2    C56   A    
C48   O10   A    
Cr4   O14   S    
Cr2   O2    S    
C30   C31   A    
C20   H10   S    
C20   C26   A    
Cr5   O9    S    
C37   H5    S    
C33   C35   A    
C9    C10   A    
Cr3   O22   S    
C35   F5    S    
Cr5   O16   S    
C44   H17   S    
C28   F3    S    
C20   C21   A    
Cr1   O25   S    
C27   C28   A    
C15   H1    S    
Cr1   O12   S    
Cr3   O23   S    
C47   O8    A    
C13   C14   A    
C42   C52   S    
