data_mof_unit_41326.cif
_audit_creation_date              2013-03-05T15:42:22-0500
_audit_creation_method            fapswitch 2.2
_symmetry_space_group_name_H-M    P1
_symmetry_Int_Tables_number       1
_space_group_crystal_system       triclinic
_cell_length_a                    8.377773
_cell_length_b                    15.118753
_cell_length_c                    17.444441
_cell_angle_alpha                 99.247865
_cell_angle_beta                  96.64735
_cell_angle_gamma                 100.033498
_cell_volume                      2123.84556482

loop_
_atom_site_label
_atom_site_type_symbol
_atom_site_description
_atom_site_fract_x
_atom_site_fract_y
_atom_site_fract_z
_atom_type_partial_charge
P1    P     P_3+3 0.993190 0.413330 0.319190 0.468304
O1    O     O_2   0.823140 0.439340 0.307240 -0.302671
O2    O     O_3   0.097070 0.445850 0.405300 -0.435064
O3    O     O_3   0.627590 0.606740 0.357340 -0.381201
O4    O     O_2   0.634229 0.499914 0.221342 -0.348515
O5    O     O_3   0.937742 0.293869 0.301411 -0.577555
O6    O     O_3   0.675968 0.672631 0.214412 -0.530123
C1    C     C_3   0.620361 0.794453 0.144485 0.423949
P2    P     P_3+3 0.695930 0.711340 0.564320 0.473234
P3    P     P_3+3 0.110630 0.775811 0.410479 0.435161
O7    O     O_2   0.865800 0.723280 0.540790 -0.365555
O8    O     O_3   0.060870 0.655550 0.397490 -0.424369
O9    O     O_2   0.971606 0.815885 0.445628 -0.379639
O10   O     O_3   0.736868 0.745112 0.666502 -0.602690
O11   O     O_3   0.099815 0.805006 0.316988 -0.528348
C2    C     C_3   0.132972 0.732430 0.264056 0.509763
H1    H     H_    0.030815 0.672091 0.254593 0.134724
H2    H     H_    0.249612 0.713701 0.286237 -0.003187
C3    C     C_3   0.149858 0.761081 0.185264 -1.034902
H3    H     H_    0.034378 0.777907 0.160192 0.328014
H4    H     H_    0.250235 0.821480 0.192208 0.255544
C4    C     C_3   0.231294 0.758960 0.662905 0.346807
H5    H     H_    0.351910 0.770199 0.642732 0.066673
H6    H     H_    0.129514 0.728941 0.614952 0.124130
C5    C     C_3   0.202480 0.852309 0.699014 -0.970062
H7    H     H_    0.297758 0.884061 0.750376 0.259616
H8    H     H_    0.208062 0.897597 0.654752 0.227129
H9    H     H_    0.079847 0.845682 0.718039 0.259977
Ba1   Ba    Ba6+2 0.844730 0.540500 0.462170 1.533796
C6    C     C_3   0.917700 0.261608 0.370816 0.456782
H10   H     H_    0.824609 0.292807 0.399090 0.105081
H11   H     H_    0.034872 0.277743 0.411426 0.131092
C7    C     C_3   0.861659 0.158050 0.350096 -1.060220
H12   H     H_    0.734309 0.140187 0.318261 0.268223
H13   H     H_    0.866448 0.127733 0.403713 0.245921
H14   H     H_    0.943315 0.127591 0.312279 0.257580
C8    C     C_3   0.773806 0.675484 0.704994 0.251723
H15   H     H_    0.882763 0.652268 0.684671 0.077403
H16   H     H_    0.669121 0.616737 0.693683 0.125610
C9    C     C_3   0.813664 0.715697 0.793769 0.259647
H17   H     H_    0.916261 0.775493 0.802597 0.164991
P4    P     P_3+3 0.196530 0.586750 0.680820 0.434089
O12   O     O_2   0.366580 0.560690 0.692810 -0.379107
O13   O     O_3   0.092650 0.554230 0.594710 -0.447868
O14   O     O_3   0.562120 0.393340 0.642670 -0.368090
O15   O     O_3   0.238784 0.704798 0.720266 -0.550758
P5    P     P_3+3 0.072508 0.227490 0.602203 0.423308
O16   O     O_3   0.597340 0.388800 0.458640 -0.346483
O17   O     O_3   0.128850 0.344520 0.602520 -0.387692
O18   O     O_2   0.183166 0.179756 0.551012 -0.388977
O19   O     O_3   0.128022 0.206384 0.696875 -0.549445
Ba2   Ba    Ba6+2 0.345110 0.459580 0.537840 1.525630
P6    P     P_3+3 0.567482 0.584622 0.254651 0.455310
C10   C     C_3   0.594798 0.747515 0.216794 0.510244
H18   H     H_    0.460962 0.725679 0.213595 -0.046462
H19   H     H_    0.543270 0.847643 0.145626 -0.008552
O20   O     O_3   0.592380 0.611270 0.541370 -0.412124
C11   C     C_3   0.331975 0.188520 0.298079 0.208519
H20   H     H_    0.332494 0.124791 0.321907 0.025777
H21   H     H_    0.222401 0.216739 0.311481 0.086111
C12   C     C_3   0.326991 0.166900 0.208506 0.357610
H22   H     H_    0.435354 0.136544 0.196405 0.140445
P7    P     P_3+3 0.497644 0.273996 0.432490 0.459128
O21   O     O_2   0.323920 0.276750 0.459260 -0.377534
O22   O     O_3   0.475003 0.253283 0.329799 -0.537184
H23   H     H_    0.177162 0.704402 0.143310 0.218172
C13   C     C_3   0.121398 0.283628 0.752476 0.460994
H24   H     H_    0.207375 0.344308 0.742913 0.129781
H25   H     H_    0.995744 0.297962 0.747605 -0.029266
C14   C     C_3   0.175244 0.270216 0.836500 -0.424626
H26   H     H_    0.189016 0.336919 0.876327 0.138710
H27   H     H_    0.297124 0.251792 0.842210 0.235665
P8    P     P_3+3 0.608029 0.403307 0.744075 0.415391
C15   C     C_3   0.588377 0.228238 0.745268 0.613190
O23   O     O_2   0.516492 0.475875 0.781142 -0.416680
O24   O     O_3   0.516668 0.302810 0.772773 -0.562515
H28   H     H_    0.718158 0.250023 0.737329 0.017945
H29   H     H_    0.554772 0.123329 0.641626 0.190980
C16   C     C_3   0.490393 0.175977 0.667018 -0.738595
H30   H     H_    0.476656 0.222689 0.625109 0.269949
H31   H     H_    0.368206 0.140436 0.675248 0.270204
C17   C     C_2   0.261311 0.476633 0.260655 -0.411361
C18   C     C_3   0.338737 0.555990 0.226759 0.107347
C19   C     C_2   0.279345 0.540494 0.139669 -0.250013
C20   C     C_2   0.131833 0.486003 0.109000 0.084858
C21   C     C_2   0.042004 0.429992 0.161872 0.123672
C22   C     C_1   0.103870 0.443740 0.238430 0.194651
C23   C     C_R   0.896824 0.448985 0.854713 -0.288369
C24   C     C_R   0.828968 0.443311 0.776525 0.215197
C25   C     C_R   0.086308 0.524427 0.749086 0.373749
C26   C     C_R   0.154318 0.531920 0.828428 -0.228190
C27   C     C_R   0.060929 0.493737 0.882274 0.156668
C28   C     C_2   0.055864 0.480632 0.025301 -0.175682
C29   C     C_2   0.138673 0.502081 0.966071 -0.184013
C30   C     C_R   0.924898 0.478133 0.723720 -0.450925
H32   H     H_    0.270507 0.525454 0.978402 0.136625
H33   H     H_    0.818685 0.419566 0.892850 0.130732
H34   H     H_    0.924665 0.457024 0.013331 0.143095
H35   H     H_    0.347127 0.581496 0.104932 0.129297
H36   H     H_    0.278674 0.569167 0.848540 0.142799
H37   H     H_    0.336632 0.438075 0.291710 0.185502
H38   H     H_    0.869822 0.474795 0.663833 0.164515
C31   C     C_R   0.760840 0.237069 0.530202 -0.456791
C32   C     C_R   0.856176 0.180119 0.560553 0.257010
C33   C     C_R   0.791360 0.086482 0.552788 -0.291499
C34   C     C_R   0.633244 0.047329 0.510097 0.093398
C35   C     C_R   0.547584 0.105904 0.472978 -0.277458
C36   C     C_R   0.609379 0.199853 0.483673 0.254072
C37   C     C_R   0.387364 0.914727 0.476485 -0.291600
C38   C     C_R   0.315275 0.823089 0.470432 0.229896
C39   C     C_R   0.577244 0.791640 0.523937 0.328880
C40   C     C_R   0.650509 0.883368 0.526963 -0.299480
C41   C     C_R   0.556511 0.947643 0.505200 0.082363
C42   C     C_R   0.406709 0.764117 0.500969 -0.290699
H39   H     H_    0.308185 0.958103 0.456880 0.157516
H40   H     H_    0.866226 0.046159 0.580804 0.146087
H41   H     H_    0.780567 0.902870 0.546690 0.162534
H42   H     H_    0.432855 0.080355 0.434964 0.126767
H43   H     H_    0.810018 0.309555 0.537829 0.155423
C43   C     C_3   0.661455 0.815098 0.295111 -0.289759
C44   C     C_3   0.581602 0.898949 0.306796 -1.100155
H44   H     H_    0.599354 0.940227 0.260366 0.263423
H45   H     H_    0.449021 0.878320 0.309513 0.289341
H46   H     H_    0.641683 0.944222 0.362596 0.302826
H47   H     H_    0.640880 0.779079 0.344840 0.211595
H48   H     H_    0.795854 0.838394 0.299210 0.262004
O25   O     O_3   0.785191 0.835650 0.147940 -0.751081
H49   H     H_    0.799628 0.899868 0.175584 0.314800
O26   O     O_3   0.870650 0.652241 0.834862 -0.771477
H50   H     H_    0.773675 0.607245 0.840752 0.333407
C45   C     C_3   0.667002 0.747740 0.829047 -0.343170
C46   C     C_3   0.642226 0.841528 0.813562 -0.859327
H51   H     H_    0.759262 0.892203 0.829894 0.242810
H52   H     H_    0.593363 0.838356 0.751199 0.287421
H53   H     H_    0.551825 0.865316 0.849707 0.246582
H54   H     H_    0.552183 0.696409 0.807003 0.222369
H55   H     H_    0.690662 0.753063 0.893792 0.208841
C47   C     C_3   0.171010 0.098721 0.166437 -0.494746
C48   C     C_3   0.169605 0.002093 0.182235 -0.926569
H56   H     H_    0.287146 0.981041 0.172119 0.253877
H57   H     H_    0.148695 0.997953 0.243361 0.275512
H58   H     H_    0.069303 0.953646 0.141413 0.299103
H59   H     H_    0.059845 0.122222 0.184151 0.204124
H60   H     H_    0.165355 0.096112 0.102087 0.241590
O27   O     O_3   0.341550 0.247782 0.177556 -0.724836
H61   H     H_    0.247018 0.276206 0.189581 0.309940
C49   C     C_3   0.559008 0.732694 0.063280 -0.338378
C50   C     C_3   0.653805 0.656356 0.042209 -0.737855
H62   H     H_    0.787983 0.683400 0.053201 0.287319
H63   H     H_    0.623920 0.600651 0.075487 0.259364
H64   H     H_    0.618291 0.626043 0.978849 0.208082
H65   H     H_    0.426288 0.704191 0.057785 0.131634
H66   H     H_    0.570952 0.776997 0.018353 0.190710
C51   C     C_3   0.053984 0.200108 0.866122 -0.285596
C52   C     C_3   0.072408 0.101657 0.838374 -0.811398
H67   H     H_    0.047287 0.082474 0.773456 0.282760
H68   H     H_    0.197812 0.092749 0.859260 0.242892
H69   H     H_    0.984154 0.054488 0.863172 0.230241
H70   H     H_    0.076207 0.214364 0.931418 0.194199
H71   H     H_    0.927785 0.208507 0.847880 0.199846
C53   C     C_3   0.584150 0.165565 0.806909 -0.363899
C54   C     C_3   0.645577 0.077216 0.781637 -1.006735
H72   H     H_    0.548313 0.026533 0.740634 0.278015
H73   H     H_    0.754968 0.090361 0.751838 0.277205
H74   H     H_    0.677184 0.047227 0.834051 0.275170
H75   H     H_    0.659130 0.204267 0.862777 0.170436
H76   H     H_    0.457241 0.146274 0.819339 0.209431
C55   C     C_3   0.935391 0.337838 0.123231 -0.459284
C56   C     C_3   0.752798 0.339331 0.116710 -0.665299
H77   H     H_    0.725445 0.399880 0.093096 0.237486
H78   H     H_    0.682499 0.276779 0.076333 0.217594
H79   H     H_    0.711126 0.339480 0.174670 0.312105
H80   H     H_    0.964510 0.316909 0.063235 0.185942
H81   H     H_    0.962077 0.283228 0.155462 0.211572
C57   C     C_3   0.324836 0.667475 0.499218 -0.236848
C58   C     C_3   0.351265 0.610001 0.422441 -0.468189
H82   H     H_    0.397634 0.655341 0.382789 0.144459
H83   H     H_    0.421690 0.556149 0.429188 0.259891
H84   H     H_    0.241241 0.572397 0.387072 0.216927
H85   H     H_    0.358324 0.643468 0.553502 0.191561
H86   H     H_    0.197809 0.661567 0.509016 0.201659

loop_
_geom_bond_atom_site_label_1
_geom_bond_atom_site_label_2
_geom_bond_distance
_ccdc_geom_bond_type
P1    C22   1.848790 S    
C9    O26   1.401299 S    
P7    O22   1.750281 S    
P2    C39   1.868740 S    
C28   C29   1.359884 D    
C10   C43   1.548622 S    
O8    Ba1   2.753877 S    
C52   H68   1.109557 S    
P8    O23   1.545922 D    
C56   H77   1.110237 S    
C33   H40   1.077918 S    
C49   C50   1.532481 S    
C50   H64   1.110746 S    
C1    H19   1.114903 S    
O27   H61   0.991940 S    
C47   C48   1.527907 S    
C25   C30   1.395140 A    
P5    O17   1.748898 S    
C20   C21   1.524406 S    
C5    H9    1.108808 S    
C55   H81   1.110042 S    
C15   O24   1.411075 S    
O1    Ba1   2.852739 S    
O4    P6    1.541440 D    
C3    H4    1.108594 S    
C50   H63   1.107380 S    
O26   H50   0.991255 S    
C8    C9    1.544759 S    
C47   H59   1.111623 S    
C2    C3    1.520495 S    
C6    H10   1.102936 S    
O3    P6    1.764736 S    
C48   H58   1.108639 S    
C43   H48   1.109968 S    
O12   Ba2   2.853194 S    
C34   C35   1.420115 A    
C11   H21   1.110615 S    
O11   C2    1.404888 S    
C7    H14   1.109887 S    
C3    H23   1.108040 S    
O14   P8    1.742535 S    
P1    O1    1.542884 D    
P4    O15   1.764322 S    
O2    Ba1   2.929933 S    
C12   O27   1.406120 S    
C40   C41   1.422877 A    
C44   H46   1.105315 S    
C11   O22   1.401514 S    
C55   C56   1.525158 S    
C20   C28   1.507401 S    
C58   H84   1.061381 S    
C39   C40   1.405396 A    
C46   H51   1.110378 S    
C15   H28   1.111107 S    
C35   C36   1.398775 A    
C58   H82   1.105024 S    
C31   C36   1.396961 A    
C26   H36   1.083072 S    
C38   C42   1.400583 A    
C35   H42   1.074021 S    
O3    Ba1   2.847744 S    
C30   H38   1.081752 S    
C37   C41   1.420033 A    
C57   H86   1.087936 S    
O13   Ba2   2.930784 S    
C11   C12   1.538223 S    
C58   H83   1.098606 S    
C52   H69   1.109879 S    
C56   H78   1.110469 S    
P4    O13   1.602004 S    
C49   H66   1.111933 S    
P1    Ba1   3.387439 S    
C32   C33   1.403867 A    
C53   C54   1.531713 S    
P5    O18   1.547707 D    
C54   H73   1.108889 S    
C55   H80   1.111095 S    
Ba1   O16   2.797908 S    
C13   H24   1.111332 S    
C23   C27   1.413294 A    
C21   C55   1.522652 S    
C50   H62   1.110097 S    
C45   H54   1.110743 S    
Ba2   O21   2.847098 S    
C1    C10   1.561361 S    
C26   C27   1.419412 A    
C16   H31   1.106514 S    
H29   C16   1.101020 S    
C2    H1    1.112996 S    
O16   P7    1.752276 S    
P5    O19   1.757521 S    
C34   C41   1.516681 S    
O14   Ba2   2.847063 S    
C11   H20   1.109459 S    
C4    C5    1.521536 S    
P1    O5    1.751632 S    
P4    C25   1.862985 S    
C24   C30   1.396932 A    
P2    O10   1.749445 S    
C51   H71   1.103216 S    
C8    H15   1.108467 S    
C45   H55   1.111228 S    
C54   H74   1.109374 S    
C1    O25   1.402657 S    
C57   C58   1.536081 S    
C48   H56   1.110637 S    
O17   Ba2   2.754563 S    
C27   C29   1.506204 S    
C7    H12   1.110800 S    
C44   H44   1.107074 S    
O19   C13   1.406650 S    
C19   C20   1.357462 D    
C29   H32   1.084243 S    
P2    O7    1.515228 D    
C51   C52   1.529519 S    
C53   H76   1.108219 S    
P3    O8    1.764253 S    
C2    H2    1.108547 S    
C9    H17   1.110693 S    
C4    O15   1.393727 S    
C9    C45   1.552336 S    
Ba1   O20   2.917614 S    
C45   C46   1.529502 S    
C15   C16   1.526224 S    
Ba1   O13   2.878636 S    
P8    O24   1.752996 S    
C4    H6    1.100363 S    
C16   H30   1.105111 S    
C18   C19   1.510128 S    
C1    C49   1.543306 S    
P4    O12   1.543264 D    
O6    P6    1.765151 S    
O25   H49   0.992427 S    
C31   C32   1.395645 A    
C14   H26   1.108474 S    
C43   C44   1.529787 S    
C21   C22   1.344763 D    
C54   H72   1.110902 S    
C13   H25   1.107724 S    
C10   H18   1.104497 S    
C42   C57   1.495944 S    
P5    C32   1.844220 S    
C6    C7    1.524822 S    
O5    C6    1.392953 S    
C14   C51   1.531310 S    
C19   H35   1.073169 S    
C31   H43   1.082389 S    
C53   H75   1.110712 S    
P3    O9    1.546411 D    
C15   C53   1.542717 S    
O2    Ba2   2.879255 S    
C57   H85   1.091605 S    
P2    Ba1   3.399650 S    
C5    H8    1.110999 S    
C33   C34   1.420013 A    
P6    C18   1.877231 S    
P3    O11   1.753263 S    
C13   C14   1.538624 S    
C3    H3    1.102520 S    
C49   H65   1.107382 S    
C5    H7    1.110424 S    
C23   H33   1.078622 S    
P8    C24   1.835659 S    
C51   H70   1.112013 S    
C8    H16   1.108676 S    
C47   H60   1.112089 S    
C37   C38   1.393567 A    
O10   C8    1.395493 S    
C6    H11   1.106796 S    
C48   H57   1.110169 S    
C25   C26   1.413400 A    
C40   H41   1.077599 S    
C46   H53   1.110441 S    
C7    H13   1.105442 S    
C17   H37   1.087211 S    
P3    C38   1.860571 S    
C39   C42   1.407693 A    
P2    O20   1.571436 S    
C43   H47   1.110203 S    
C12   H22   1.112563 S    
C12   C47   1.540842 S    
C44   H45   1.108820 S    
Ba2   O20   2.797208 S    
C37   H39   1.076190 S    
P7    O21   1.584385 D    
O16   Ba2   2.916829 S    
C23   C24   1.398846 A    
O7    Ba1   2.846818 S    
C46   H52   1.107544 S    
C17   C18   1.501830 S    
C52   H67   1.108543 S    
C4    H5    1.102511 S    
C14   H27   1.102093 S    
C56   H79   1.106993 S    
O6    C10   1.416196 S    
P1    O2    1.602004 S    
P7    C36   1.850347 S    
C28   H34   1.079510 S    
C17   C22   1.314709 D    
P4    Ba2   3.387993 S    
Ba1   Ba2   4.557760 S    
