data_mof_unit_62642.cif
_audit_creation_date              2012-12-10T16:51:54-0500
_audit_creation_method            fapswitch 2.2
_symmetry_space_group_name_H-M    P1
_symmetry_Int_Tables_number       1
_space_group_crystal_system       triclinic
_cell_length_a                    18.453328
_cell_length_b                    18.433244
_cell_length_c                    18.386737
_cell_angle_alpha                 90.694174
_cell_angle_beta                  119.592851
_cell_angle_gamma                 119.576396
_cell_volume                      4450.9200252

loop_
_atom_site_label
_atom_site_type_symbol
_atom_type_description
_atom_site_fract_x
_atom_site_fract_y
_atom_site_fract_z
_atom_type_partial_charge
C1    C     C_R   0.776904 0.639640 0.638447 0.835561
C2    C     C_2   0.114647 0.307640 0.323654 0.180001
C3    C     C_2   0.461694 0.169741 0.723878 0.202480
C4    C     C_R   0.223205 0.361543 0.362849 0.825700
C5    C     C_2   0.484218 0.191416 0.806056 0.176668
C6    C     C_2   0.442221 0.222282 0.667508 0.368042
C7    C     C_2   0.517480 0.307882 0.693189 0.213215
C8    C     C_2   0.054669 0.792076 0.723850 0.330732
C9    C     C_2   0.113667 0.792925 0.805755 0.239854
C10   C     C_2   0.946358 0.720632 0.667412 0.296653
C11   C     C_2   0.885560 0.708986 0.693285 0.180052
C12   C     C_3   0.592215 0.825850 0.801187 0.250547
C13   C     C_2   0.448543 0.163516 0.232125 0.321228
C14   C     C_2   0.521580 0.192902 0.217899 0.248002
C15   C     C_2   0.467317 0.222277 0.300584 0.335899
C16   C     C_R   0.502429 0.640701 0.363909 0.750164
C17   C     C_2   0.487266 0.301802 0.294527 0.273477
C18   C     C_2   0.455421 0.788006 0.232281 -0.132729
C19   C     C_2   0.484803 0.791058 0.177941 0.387483
C20   C     C_2   0.444547 0.722538 0.277794 -0.191062
C21   C     C_2   0.518170 0.709688 0.323822 0.353592
C22   C     C_R   0.499043 0.138143 0.861466 0.863249
C23   C     C_3   0.525282 0.791313 0.699007 0.258838
C24   C     C_R   0.497730 0.859266 0.136075 0.712012
C25   C     C_R   0.776806 0.138285 0.137387 0.781524
C26   C     C_R   0.223288 0.860681 0.861468 0.783948
C27   C     C_R   0.502870 0.140716 0.144036 0.796215
C28   C     C_R   0.501807 0.361729 0.638440 0.852392
C29   C     C_R   0.499894 0.858629 0.858328 0.965156
C30   C     C_R   0.499360 0.358925 0.358790 0.773226
C31   C     C_R   0.500200 0.641460 0.641651 0.967677
C32   C     C_3   0.567598 0.733265 0.801773 0.287476
C33   C     C_3   0.474411 0.708730 0.800652 0.237897
C34   C     C_3   0.431314 0.767152 0.697136 0.265323
C35   C     C_3   0.499031 0.801801 0.800555 -0.288535
C36   C     C_3   0.407790 0.674512 0.698470 0.256898
C37   C     C_3   0.500811 0.698347 0.699052 -0.221101
C38   C     C_2   0.945349 0.169267 0.237024 0.327474
C39   C     C_2   0.886420 0.192323 0.179257 0.242053
C40   C     C_2   0.053562 0.221191 0.273745 0.295706
Cl1   Cl    Cl    0.069589 0.358847 0.355063 -0.449259
Cl2   Cl    Cl    0.642227 0.782065 0.349379 -0.419633
Cl3   Cl    Cl    0.340119 0.787687 0.624731 -0.369556
Cl4   Cl    Cl    0.899895 0.079252 0.273838 -0.428470
Cl5   Cl    Cl    0.095007 0.165896 0.242948 -0.415805
Cl6   Cl    Cl    0.459278 0.082068 0.679941 -0.436385
Cl7   Cl    Cl    0.481905 0.277403 0.846749 -0.474114
Cl8   Cl    Cl    0.643366 0.357369 0.788645 -0.467317
Cl9   Cl    Cl    0.100318 0.874568 0.679532 -0.427460
Cl10  Cl    Cl    0.904478 0.649001 0.569794 -0.418630
Cl11  Cl    Cl    0.931127 0.784885 0.790469 -0.445250
Cl12  Cl    Cl    0.323458 0.065173 0.164309 -0.422183
Cl13  Cl    Cl    0.469285 0.186287 0.390096 -0.437146
H1    H     H_    0.436112 0.832556 0.241931 0.164405
H2    H     H_    0.731356 0.900978 0.840351 0.386948
H3    H     H_    0.564635 0.892335 0.661294 0.390102
H4    H     H_    0.268911 0.598401 0.659859 0.385172
H5    H     H_    0.875352 0.268795 0.108043 0.374538
H6    H     H_    0.373829 0.683852 0.272742 0.173121
H7    H     H_    0.436552 0.607988 0.838931 0.383081
H8    H     H_    0.302015 0.121968 0.583400 0.392815
H9    H     H_    0.124826 0.732431 0.893087 0.368694
H10   H     H_    0.668188 0.747100 0.917796 0.387862
H11   H     H_    0.664247 0.280292 0.262350 0.379076
H12   H     H_    0.495630 0.382561 0.226411 0.368956
H13   H     H_    0.511556 0.735367 0.112501 0.370304
O1    O     O_3   0.500000 0.500000 0.500000 -0.571216
O2    O     O_R   0.270900 0.886160 0.946260 -0.615801
O3    O     O_R   0.560160 0.177420 0.117340 -0.624382
O4    O     O_R   0.729180 0.615300 0.675360 -0.582745
O5    O     O_R   0.440020 0.882760 0.822680 -0.607044
O6    O     O_R   0.439990 0.057240 0.117340 -0.600515
O7    O     O_R   0.560190 0.882760 0.942820 -0.602445
O8    O     O_R   0.729270 0.053840 0.113900 -0.591462
O9    O     O_R   0.270910 0.884750 0.824690 -0.595589
O10   O     O_R   0.560170 0.175430 0.946260 -0.595081
O11   O     O_R   0.440000 0.886160 0.115330 -0.651370
O12   O     O_R   0.439910 0.615300 0.386140 -0.652691
O13   O     O_R   0.270820 0.446200 0.386140 -0.589806
O14   O     O_R   0.560090 0.613880 0.384720 -0.581986
O15   O     O_R   0.439920 0.324620 0.553780 -0.575659
O16   O     O_R   0.560100 0.442800 0.382710 -0.618656
O17   O     O_R   0.560070 0.617290 0.677370 -0.603082
O18   O     O_R   0.439930 0.322630 0.382710 -0.594782
O19   O     O_R   0.439900 0.617290 0.557220 -0.590347
O20   O     O_3   0.447300 0.665809 0.854055 -0.699419
O21   O     O_3   0.346788 0.184270 0.589387 -0.678450
O22   O     O_3   0.070421 0.725218 0.834514 -0.716355
O23   O     O_R   0.560080 0.446200 0.675360 -0.599709
O24   O     O_3   0.638457 0.715520 0.856049 -0.649378
O25   O     O_3   0.616730 0.271449 0.277752 -0.710287
O26   O     O_3   0.486099 0.324446 0.222387 -0.716381
O27   O     O_3   0.496837 0.726714 0.157940 -0.688613
O28   O     O_3   0.688644 0.905748 0.855136 -0.680602
O29   O     O_3   0.553021 0.834152 0.645866 -0.673762
O30   O     O_3   0.311699 0.594236 0.644757 -0.657903
O31   O     O_3   0.929703 0.264550 0.155071 -0.719531
O32   O     O_R   0.729180 0.613880 0.553780 -0.600347
O33   O     O_R   0.270820 0.324620 0.384720 -0.598889
O34   O     O_3   0.500090 0.000040 0.000040 -0.553707
O35   O     O_R   0.440010 0.053840 0.824690 -0.595161
O36   O     O_R   0.560180 0.884750 0.113900 -0.602962
O37   O     O_R   0.729260 0.175430 0.115330 -0.633751
Zn1   Zn    Zn3+2 0.414150 0.543930 0.458110 1.075644
Zn2   Zn    Zn3+2 0.585850 0.541910 0.456060 1.087967
Zn3   Zn    Zn3+2 0.414160 0.370220 0.456060 1.113528
Zn4   Zn    Zn3+2 0.585840 0.543930 0.629770 1.108074
Zn5   Zn    Zn3+2 0.585940 0.956110 0.041940 1.082868
Zn6   Zn    Zn3+2 0.585930 0.129820 0.043980 1.069896
Zn7   Zn    Zn3+2 0.414240 0.958130 0.043980 1.057710
Zn8   Zn    Zn3+2 0.414250 0.956110 0.870280 1.107326

loop_
_geom_bond_atom_site_label_1
_geom_bond_atom_site_label_2
_ccdc_geom_bond_type
H3    O29   S    
O34   Zn7   S    
C16   C21   S    
C31   O19   A    
H12   O26   S    
C1    C11   S    
C22   O10   A    
C3    C6    S    
O10   Zn6   S    
C5    Cl7   S    
C12   C23   S    
O32   Zn2   S    
C15   Cl13  S    
C36   C37   S    
C25   O8    A    
C18   H1    S    
O4    Zn4   S    
C9    O22   S    
C38   C39   D    
C39   O31   S    
C29   O7    A    
C2    Cl1   S    
C33   C36   S    
C31   O17   A    
C18   C20   S    
C34   C35   S    
O16   Zn2   S    
H8    O21   S    
O3    Zn6   S    
C32   O24   S    
C5    C22   S    
C23   O29   S    
C8    C9    D    
H4    O30   S    
O5    Zn8   S    
C9    C26   S    
O18   Zn3   S    
O36   Zn5   S    
C28   O23   A    
C14   C27   S    
C16   O12   A    
C19   O27   S    
O34   Zn6   S    
C13   C14   D    
C12   C32   S    
C17   C30   S    
C12   O28   S    
H5    O31   S    
H2    O28   S    
O1    Zn1   S    
C40   Cl5   S    
O6    Zn7   S    
O34   Zn5   S    
O12   Zn1   S    
C4    O13   A    
H7    O20   S    
C18   C19   D    
O7    Zn5   S    
C23   C37   S    
H9    O22   S    
O14   Zn2   S    
C7    C28   S    
C31   C37   S    
C16   O14   A    
C30   O16   A    
C2    C4    S    
C33   O20   S    
C38   Cl4   S    
C2    C40   D    
C13   Cl12  S    
C36   O30   S    
C23   C34   S    
O23   Zn4   S    
C26   O9    A    
O2    Zn7   S    
C32   C37   S    
C20   H6    S    
C22   O35   A    
O19   Zn1   S    
H13   O27   S    
C13   C15   S    
O13   Zn1   S    
C10   Cl10  S    
C15   C17   D    
O33   Zn3   S    
O15   Zn3   S    
C28   O15   A    
O1    Zn2   S    
C34   Cl3   S    
C3    C5    D    
C27   O3    A    
C1    O32   A    
O1    Zn3   S    
C6    C7    D    
O35   Zn8   S    
C29   C35   S    
C3    Cl6   S    
O9    Zn8   S    
C1    O4    A    
O37   Zn6   S    
C26   O2    A    
C7    Cl8   S    
C19   C24   S    
C32   C33   S    
C38   C40   S    
O1    Zn4   S    
H10   O24   S    
C33   C35   S    
C34   C36   S    
O17   Zn4   S    
C24   O36   A    
C30   O18   A    
O11   Zn7   S    
C25   O37   A    
C14   O25   S    
C11   Cl11  S    
C10   C11   D    
C6    O21   S    
O8    Zn5   S    
C21   Cl2   S    
C17   O26   S    
C24   O11   A    
C20   C21   D    
O34   Zn8   S    
C8    C10   S    
C4    O33   A    
H11   O25   S    
C8    Cl9   S    
C12   C35   S    
C25   C39   S    
C27   O6    A    
C29   O5    A    
