data_mof_unit_13998.cif
_audit_creation_date              2012-12-10T17:56:44-0500
_audit_creation_method            fapswitch 2.2
_symmetry_space_group_name_H-M    P1
_symmetry_Int_Tables_number       1
_space_group_crystal_system       triclinic
_cell_length_a                    10.826036
_cell_length_b                    9.525625
_cell_length_c                    10.78702
_cell_angle_alpha                 89.972975
_cell_angle_beta                  90.170316
_cell_angle_gamma                 89.918232
_cell_volume                      1112.40266618

loop_
_atom_site_label
_atom_site_type_symbol
_atom_type_description
_atom_site_fract_x
_atom_site_fract_y
_atom_site_fract_z
_atom_type_partial_charge
C1    C     C_R   0.262085 0.500023 0.499881 0.812135
C2    C     C_R   0.737910 0.499897 0.500102 0.759727
C3    C     C_R   0.935918 0.627527 0.500174 -0.198075
C4    C     C_R   0.063671 0.627600 0.500016 -0.186070
C5    C     C_R   0.421581 0.074577 0.424564 -0.016059
C6    C     C_R   0.578420 0.074223 0.575433 -0.016011
C7    C     C_R   0.421583 0.925785 0.424569 -0.017594
C8    C     C_R   0.578419 0.925427 0.575441 -0.017025
C9    C     C_R   0.500947 0.500031 0.262764 0.807117
C10   C     C_R   0.500920 0.499988 0.737239 0.807392
C11   C     C_R   0.718165 0.587355 0.129759 -0.156485
C12   C     C_R   0.718055 0.587542 0.871338 -0.171339
C13   C     C_R   0.823243 0.629289 0.065274 -0.121689
C14   C     C_R   0.823175 0.629418 0.936363 -0.126541
C15   C     C_R   0.610099 0.545036 0.934922 0.081619
C16   C     C_R   0.610129 0.545019 0.065632 0.081602
C17   C     C_R   0.503202 0.499881 0.128905 -0.154789
C18   C     C_R   0.503178 0.499811 0.871106 -0.155174
C19   C     C_R   0.397761 0.453363 0.064443 -0.078903
C20   C     C_R   0.397728 0.453389 0.935032 -0.079074
C21   C     C_R   0.064041 0.372440 0.499723 -0.131914
C22   C     C_R   0.936297 0.372369 0.499885 -0.172017
C23   C     C_R   0.871748 0.499906 0.500087 -0.022246
C24   C     C_R   0.128225 0.500056 0.499837 -0.001225
Cu1   Cu    Cu3+1 0.500000 0.640660 0.500000 0.945409
Cu2   Cu    Cu3+1 0.500000 0.359340 0.500000 0.961722
H1    H     H_    0.723084 0.587304 0.229898 0.135128
H2    H     H_    0.722885 0.587678 0.771217 0.129277
H3    H     H_    0.905242 0.661052 0.115585 0.143852
H4    H     H_    0.905112 0.661300 0.886475 0.144095
H5    H     H_    0.112245 0.272709 0.499532 0.151291
H6    H     H_    0.888391 0.272609 0.499841 0.148956
H7    H     H_    0.887706 0.727254 0.500363 0.151834
H8    H     H_    0.111583 0.727356 0.500065 0.150961
H9    H     H_    0.358756 0.130756 0.364094 0.132279
H10   H     H_    0.641252 0.130119 0.635888 0.122634
H11   H     H_    0.358747 0.869889 0.364117 0.123437
H12   H     H_    0.641236 0.869239 0.635921 0.120299
N1    N     N_R   0.500000 0.852070 0.500000 -0.160060
N2    N     N_R   0.500000 0.147940 0.500000 -0.161154
O1    O     O_R   0.319640 0.618740 0.499990 -0.593102
O2    O     O_R   0.680360 0.618740 0.500010 -0.599235
O3    O     O_R   0.319620 0.381170 0.499990 -0.581473
O4    O     O_R   0.680380 0.381170 0.500010 -0.588183
O5    O     O_R   0.500000 0.618810 0.319650 -0.582903
O6    O     O_R   0.500000 0.618810 0.680350 -0.580796
O7    O     O_R   0.499970 0.381240 0.319640 -0.573359
O8    O     O_R   0.500030 0.381240 0.680360 -0.573687
C25   C     C_1   0.288412 0.408396 0.131465 0.239200
N3    N     N_1   0.201383 0.372655 0.184886 -0.300814
C26   C     C_1   0.288241 0.408734 0.867477 0.256555
N4    N     N_1   0.201067 0.373264 0.813666 -0.289526

loop_
_geom_bond_atom_site_label_1
_geom_bond_atom_site_label_2
_ccdc_geom_bond_type
Cu1   O2    S    
C10   O6    A    
C15   C18   A    
C6    H10   S    
C9    O5    A    
C8    N1    A    
Cu2   O8    S    
C11   C13   A    
C11   C16   A    
C19   C25   S    
C3    C23   A    
C19   C20   A    
C12   C15   A    
C11   H1    S    
C21   C22   A    
C7    H11   S    
Cu2   O4    S    
C13   C14   A    
Cu1   N1    S    
C21   H5    S    
Cu2   N2    S    
C22   H6    S    
Cu2   O7    S    
C2    O2    A    
C4    C24   A    
C5    H9    S    
C7    N1    A    
C1    O1    A    
C17   C19   A    
C12   C14   A    
Cu2   O3    S    
C9    O7    A    
C20   C26   S    
C18   C20   A    
C8    H12   S    
C10   O8    A    
C10   C18   S    
C4    H8    S    
C21   C24   A    
C15   C16   A    
C13   H3    S    
Cu1   O1    S    
C26   N4    T    
Cu1   O5    S    
C6    N2    A    
C12   H2    S    
C1    C24   S    
C25   N3    T    
C5    N2    A    
C9    C17   S    
C2    C23   S    
C5    C7    A    
C3    H7    S    
C22   C23   A    
C6    C8    A    
Cu1   Cu2   S    
C14   H4    S    
Cu1   O6    S    
C1    O3    A    
C3    C4    A    
C2    O4    A    
C16   C17   A    
