data_mof_unit_49886.cif
_audit_creation_date              2012-12-10T18:22:35-0500
_audit_creation_method            fapswitch 2.2
_symmetry_space_group_name_H-M    P1
_symmetry_Int_Tables_number       1
_space_group_crystal_system       triclinic
_cell_length_a                    23.523222
_cell_length_b                    10.624516
_cell_length_c                    9.404171
_cell_angle_alpha                 90.443633
_cell_angle_beta                  89.788921
_cell_angle_gamma                 90.611085
_cell_volume                      2350.09783702

loop_
_atom_site_label
_atom_site_type_symbol
_atom_type_description
_atom_site_fract_x
_atom_site_fract_y
_atom_site_fract_z
_atom_type_partial_charge
C1    C     C_R   0.499990 0.259339 0.499444 0.786136
C2    C     C_R   0.500012 0.740660 0.500556 0.787096
C3    C     C_R   0.238726 0.498422 0.375614 -0.142781
C4    C     C_R   0.761292 0.505368 0.624617 -0.141612
C5    C     C_R   0.297890 0.502089 0.373970 -0.226511
C6    C     C_R   0.702113 0.503270 0.626376 -0.227363
C7    C     C_R   0.328377 0.494606 0.501516 -0.072915
C8    C     C_R   0.671644 0.504316 0.498411 -0.073422
C9    C     C_R   0.298653 0.481984 0.630612 -0.234850
C10   C     C_R   0.701416 0.509003 0.368694 -0.235756
C11   C     C_R   0.239074 0.478312 0.633578 0.197737
C12   C     C_R   0.760994 0.511489 0.365644 0.200027
C13   C     C_R   0.209086 0.486929 0.504272 0.347911
C14   C     C_R   0.790959 0.508748 0.495393 0.348400
C15   C     C_3   0.546700 0.043813 0.566554 -0.163552
C16   C     C_3   0.453304 0.956183 0.433442 -0.163449
C17   C     C_3   0.546714 0.958404 0.432643 -0.163881
C18   C     C_3   0.453290 0.041591 0.567353 -0.163779
C19   C     C_3   0.500008 0.877617 0.501504 0.018545
C20   C     C_3   0.499996 0.122380 0.498493 0.018627
C21   C     C_3   0.499994 0.960750 0.635528 -0.139688
C22   C     C_3   0.500010 0.039246 0.364468 -0.140102
C23   C     C_R   0.390975 0.498670 0.500337 0.804744
C24   C     C_R   0.609031 0.501135 0.499656 0.805096
C25   C     C_3   0.545990 0.551695 0.050659 -0.038964
C26   C     C_3   0.454011 0.448308 0.949342 -0.038088
C27   C     C_3   0.503217 0.613571 0.950528 -0.036147
C28   C     C_3   0.496784 0.386431 0.049471 -0.036119
C29   C     C_3   0.542815 0.438110 0.948553 -0.037093
C30   C     C_3   0.457185 0.561893 0.051447 -0.036272
C31   C     C_R   0.881865 0.614833 0.510426 0.541065
C32   C     C_R   0.118146 0.381371 0.486485 0.520809
C33   C     C_R   0.878003 0.391205 0.486232 0.504480
C34   C     C_R   0.122080 0.604441 0.516369 0.525820
C35   C     C_R   0.938230 0.383775 0.483546 -0.035828
C36   C     C_R   0.061819 0.612290 0.515533 -0.042365
C37   C     C_R   0.969895 0.498257 0.498590 -0.050961
C38   C     C_R   0.030135 0.497949 0.499838 -0.050005
C39   C     C_R   0.941347 0.613597 0.512301 -0.037591
C40   C     C_R   0.058666 0.382714 0.485213 -0.033002
C41   C     C_R   0.968242 0.268233 0.466974 0.139743
C42   C     C_R   0.031797 0.728044 0.529841 0.140877
C43   C     C_R   0.027727 0.270532 0.468930 -0.203169
C44   C     C_R   0.972293 0.726004 0.527308 -0.198708
Cu1   Cu    Cu3+1 0.500010 0.499990 0.643150 0.931752
Cu2   Cu    Cu3+1 0.499990 0.500010 0.356850 0.931695
H1    H     H_    0.505983 0.709370 0.904642 0.111789
H2    H     H_    0.494018 0.290632 0.095357 0.111811
H3    H     H_    0.584640 0.595398 0.098177 0.108937
H4    H     H_    0.415367 0.404593 0.901825 0.108645
H5    H     H_    0.578785 0.385958 0.900234 0.111361
H6    H     H_    0.421213 0.614043 0.099757 0.110341
H7    H     H_    0.050273 0.182911 0.455948 0.180674
H8    H     H_    0.949796 0.814236 0.536638 0.179119
H9    H     H_    0.215651 0.505940 0.276637 0.137410
H10   H     H_    0.784342 0.503098 0.724034 0.139205
H11   H     H_    0.319687 0.511673 0.272918 0.156932
H12   H     H_    0.680289 0.500020 0.727915 0.157528
H13   H     H_    0.321721 0.474546 0.729675 0.153710
H14   H     H_    0.678405 0.510039 0.269095 0.154543
H15   H     H_    0.584930 0.921164 0.377700 0.132620
H16   H     H_    0.415075 0.078830 0.622296 0.131954
H17   H     H_    0.584902 0.082870 0.620848 0.133158
H18   H     H_    0.415102 0.917124 0.379149 0.132957
H19   H     H_    0.499984 0.926106 0.746601 0.128168
H20   H     H_    0.500020 0.073889 0.253395 0.128204
N1    N     N_R   0.851865 0.505079 0.497374 -0.466327
N2    N     N_R   0.148177 0.490754 0.502586 -0.465341
N3    N     N_3   0.500040 0.499970 0.858290 -0.153012
N4    N     N_3   0.499960 0.500030 0.141710 -0.152879
O1    O     O_R   0.500030 0.316850 0.620870 -0.581605
O2    O     O_R   0.499970 0.683150 0.379130 -0.581428
O3    O     O_R   0.500000 0.316860 0.379090 -0.587873
O4    O     O_R   0.500000 0.683140 0.620910 -0.587683
O5    O     O_R   0.417890 0.499960 0.620920 -0.585955
O6    O     O_R   0.582110 0.500040 0.379080 -0.586272
O7    O     O_R   0.417870 0.499970 0.379140 -0.583517
O8    O     O_R   0.582130 0.500030 0.620860 -0.583552
O9    O     O_2   0.853977 0.724897 0.521641 -0.552535
O10   O     O_2   0.146013 0.271510 0.472376 -0.558029
O11   O     O_2   0.845095 0.286980 0.478207 -0.554773
O12   O     O_2   0.155062 0.708058 0.530534 -0.557293
C45   C     C_3   0.940263 0.140127 0.443197 -0.340089
C46   C     C_3   0.920291 0.123680 0.289637 -0.746408
H21   H     H_    0.890887 0.199407 0.258266 0.270892
H22   H     H_    0.957511 0.125322 0.216578 0.228366
H23   H     H_    0.898042 0.031529 0.277562 0.244022
H24   H     H_    0.970831 0.063639 0.463580 0.166909
H25   H     H_    0.905723 0.121833 0.520903 0.248525
C47   C     C_3   0.059965 0.856626 0.546695 -0.347439
C48   C     C_3   0.080666 0.907171 0.403517 -0.743579
H26   H     H_    0.107354 0.837781 0.346145 0.276530
H27   H     H_    0.043694 0.929496 0.335396 0.223938
H28   H     H_    0.106222 0.994307 0.420755 0.259098
H29   H     H_    0.029514 0.925714 0.591589 0.160389
H30   H     H_    0.094333 0.855544 0.626851 0.243623
C49   C     C_3   0.208865 0.464164 0.774985 -0.405589
C50   C     C_3   0.214022 0.584121 0.864623 -0.816686
H31   H     H_    0.195154 0.664619 0.807563 0.282990
H32   H     H_    0.259280 0.605894 0.888587 0.242170
H33   H     H_    0.190894 0.571232 0.966725 0.236444
H34   H     H_    0.163059 0.441502 0.761006 0.212233
H35   H     H_    0.227594 0.384437 0.833891 0.199832
C51   C     C_3   0.791197 0.515582 0.223392 -0.413538
C52   C     C_3   0.785881 0.644837 0.155350 -0.815278
H36   H     H_    0.804757 0.718431 0.225809 0.280285
H37   H     H_    0.808929 0.645630 0.052089 0.242580
H38   H     H_    0.740573 0.667010 0.135535 0.241959
H39   H     H_    0.837044 0.494026 0.233341 0.211011
H40   H     H_    0.772562 0.442742 0.151451 0.199228

loop_
_geom_bond_atom_site_label_1
_geom_bond_atom_site_label_2
_ccdc_geom_bond_type
C38   C40   A    
C8    C24   S    
Cu1   O1    S    
C18   C21   S    
C6    H12   S    
C36   C42   A    
C46   H23   S    
Cu2   O6    S    
C49   C50   S    
C47   H29   S    
Cu1   Cu2   S    
C31   N1    A    
C52   H37   S    
C1    O1    A    
C28   C29   S    
C35   C37   A    
C46   H22   S    
C12   C51   S    
C26   H4    S    
C51   H39   S    
C33   C35   A    
C48   H27   S    
C41   C45   S    
C18   C20   S    
C15   C17   S    
C22   H20   S    
C17   H15   S    
C3    H9    S    
C43   H7    S    
C40   C43   A    
C14   N1    S    
Cu1   O8    S    
Cu2   O2    S    
C49   H34   S    
C3    C13   A    
C32   N2    A    
C45   H24   S    
C4    H10   S    
C27   C30   S    
C41   C43   A    
C42   C44   A    
C2    O2    A    
C51   C52   S    
C30   N4    S    
C29   N3    S    
C25   C29   S    
C15   C20   S    
C45   H25   S    
C52   H38   S    
C11   C49   S    
Cu1   N3    S    
C46   H21   S    
C4    C6    A    
C34   N2    A    
C48   H26   S    
C5    C7    A    
C24   O6    A    
C6    C8    A    
Cu1   O4    S    
C9    H13   S    
C10   H14   S    
C37   C38   A    
C32   O10   S    
C45   C46   S    
C23   O7    A    
C31   O9    S    
C9    C11   A    
C2    O4    A    
C49   H35   S    
C10   C12   A    
C24   O8    A    
C20   C22   S    
C26   C30   S    
C50   H32   S    
C33   N1    A    
C29   H5    S    
C27   H1    S    
C7    C9    A    
C30   H6    S    
C28   H2    S    
C1    C20   S    
C16   C22   S    
C21   H19   S    
C2    C19   S    
C8    C10   A    
C28   N4    S    
C23   O5    A    
C3    C5    A    
C27   N3    S    
Cu2   O7    S    
C47   H30   S    
C39   C44   A    
C25   C27   S    
C50   H33   S    
C34   O12   S    
C52   H36   S    
C26   C28   S    
C17   C22   S    
C5    H11   S    
Cu1   O5    S    
C1    O3    A    
C36   C38   A    
C12   C14   A    
C37   C39   A    
C48   H28   S    
C51   H40   S    
C11   C13   A    
C47   C48   S    
C16   C19   S    
C7    C23   S    
C17   C19   S    
C31   C39   A    
C34   C36   A    
C32   C40   A    
C4    C14   A    
C35   C41   A    
C25   H3    S    
Cu2   N4    S    
C44   H8    S    
C15   C21   S    
C16   C18   S    
C50   H31   S    
C26   N3    S    
C15   H17   S    
C18   H16   S    
C25   N4    S    
C16   H18   S    
C42   C47   S    
C33   O11   S    
Cu2   O3    S    
C19   C21   S    
C13   N2    S    
