data_mof_unit_20410.cif
_audit_creation_date              2012-12-10T17:50:32-0500
_audit_creation_method            fapswitch 2.2
_symmetry_space_group_name_H-M    P1
_symmetry_Int_Tables_number       1
_space_group_crystal_system       triclinic
_cell_length_a                    15.711419
_cell_length_b                    10.620995
_cell_length_c                    9.934522
_cell_angle_alpha                 89.861427
_cell_angle_beta                  89.747431
_cell_angle_gamma                 91.52489
_cell_volume                      1657.17413136

loop_
_atom_site_label
_atom_site_type_symbol
_atom_type_description
_atom_site_fract_x
_atom_site_fract_y
_atom_site_fract_z
_atom_type_partial_charge
C1    C     C_R   0.502020 0.260758 0.500157 0.844776
C2    C     C_R   0.717189 0.072912 0.664736 -0.139222
C3    C     C_R   0.717830 0.941291 0.663563 0.273727
C4    C     C_R   0.338055 0.499768 0.500269 0.887509
C5    C     C_R   0.648403 0.873672 0.609652 -0.206912
C6    C     C_R   0.577665 0.936702 0.556823 0.046025
C7    C     C_R   0.577558 0.068564 0.557696 0.097522
C8    C     C_R   0.507389 0.128591 0.500078 -0.066298
C9    C     C_R   0.440754 0.062252 0.438681 -0.221330
C10   C     C_R   0.440753 0.933578 0.438260 -0.198307
C11   C     C_R   0.507453 0.871887 0.499030 -0.078674
C12   C     C_3   0.082743 0.500047 0.501294 0.192689
C13   C     C_R   0.388740 0.334696 0.140863 -0.143817
C14   C     C_R   0.333970 0.253294 0.071316 -0.197284
C15   C     C_R   0.333967 0.253367 0.931993 -0.190702
C16   C     C_R   0.501822 0.739362 0.499763 0.863516
C17   C     C_R   0.388740 0.334836 0.861333 -0.142423
C18   C     C_R   0.445238 0.418567 0.928319 0.165197
C19   C     C_R   0.445249 0.418565 0.072780 0.168984
C20   C     C_R   0.552398 0.577917 0.070836 -0.108891
C21   C     C_R   0.552387 0.577883 0.927868 -0.107611
C22   C     C_R   0.661947 0.500523 0.499776 0.877782
C23   C     C_3   0.972640 0.579950 0.595351 -0.159047
C24   C     C_3   0.969201 0.382722 0.527190 -0.174062
C25   C     C_3   0.026562 0.421282 0.407122 0.253506
C26   C     C_1   0.249070 0.499830 0.501008 -0.186062
C27   C     C_1   0.750920 0.500601 0.499403 -0.187025
C28   C     C_3   0.026648 0.462739 0.622449 -0.205696
C29   C     C_3   0.058735 0.331468 0.300558 -0.954764
C30   C     C_3   0.792338 0.871850 0.717722 -0.958599
C31   C     C_3   0.917150 0.500145 0.499931 0.166941
C32   C     C_3   0.030338 0.617137 0.474081 -0.206078
C33   C     C_3   0.972923 0.537505 0.378459 -0.169023
C34   C     C_1   0.173718 0.499983 0.501484 -0.067719
C35   C     C_1   0.826264 0.500488 0.499536 -0.071244
C36   C     C_R   0.648075 0.136132 0.612052 -0.231201
H1    H     H_    0.651169 0.772016 0.607520 0.148766
H2    H     H_    0.949069 0.567212 0.278576 0.137558
H3    H     H_    0.057285 0.712844 0.452806 0.141971
H4    H     H_    0.948196 0.645201 0.672716 0.142390
H5    H     H_    0.050610 0.432564 0.722091 0.143620
H6    H     H_    0.387943 0.110385 0.393391 0.134109
H7    H     H_    0.651188 0.237894 0.612536 0.161841
H8    H     H_    0.770561 0.127019 0.705180 0.137317
H9    H     H_    0.003860 0.287041 0.247124 0.245910
H10   H     H_    0.099577 0.384093 0.227076 0.249586
H11   H     H_    0.096444 0.257124 0.349008 0.241890
H12   H     H_    0.387885 0.881718 0.392872 0.148498
H13   H     H_    0.842545 0.937635 0.756552 0.238687
H14   H     H_    0.770819 0.808773 0.801171 0.243890
H15   H     H_    0.820398 0.814108 0.636593 0.243634
H16   H     H_    0.595243 0.641688 0.123886 0.148675
H17   H     H_    0.384766 0.329074 0.247605 0.197325
H18   H     H_    0.291202 0.189831 0.126075 0.145942
H19   H     H_    0.291188 0.189961 0.878125 0.148130
H20   H     H_    0.384830 0.329506 0.754606 0.201419
H21   H     H_    0.595218 0.641651 0.873802 0.147045
H22   H     H_    0.942265 0.286891 0.547983 0.135003
N1    N     N_R   0.499210 0.498800 0.142780 -0.121477
N2    N     N_R   0.499180 0.498720 0.857170 -0.120971
O1    O     O_R   0.500000 0.316780 0.614690 -0.639355
O2    O     O_R   0.499990 0.316750 0.385360 -0.629627
O3    O     O_R   0.376780 0.500000 0.614650 -0.628245
O4    O     O_R   0.376770 0.499980 0.385310 -0.631725
O5    O     O_R   0.500010 0.683250 0.614640 -0.614399
O6    O     O_R   0.500000 0.683220 0.385310 -0.612010
O7    O     O_R   0.623230 0.500020 0.614690 -0.623395
O8    O     O_R   0.623220 0.500000 0.385350 -0.605458
Zn1   Zn    Zn3+2 0.500010 0.500020 0.653130 0.935189
Zn2   Zn    Zn3+2 0.499990 0.499980 0.346870 0.942086

loop_
_geom_bond_atom_site_label_1
_geom_bond_atom_site_label_2
_ccdc_geom_bond_type
C3    C30   S    
C4    C26   S    
C30   H15   S    
C31   C33   S    
C24   C25   S    
C21   H21   S    
C6    C7    A    
O4    Zn2   S    
C1    C8    S    
C9    C10   A    
C4    O4    A    
C33   H2    S    
C17   H20   S    
C29   H10   S    
C3    C5    A    
C27   C35   T    
C32   C33   S    
C17   C18   A    
C30   H14   S    
C24   C31   S    
C7    C8    A    
C20   H16   S    
C15   H19   S    
C23   C28   S    
C12   C32   S    
C20   N1    A    
C25   C29   S    
C4    O3    A    
C22   O8    A    
C9    H6    S    
O6    Zn2   S    
N2    Zn1   S    
C12   C28   S    
O5    Zn1   S    
C18   N2    A    
C14   H18   S    
C30   H13   S    
C29   H11   S    
C2    C3    A    
C13   H17   S    
C22   C27   S    
C10   H12   S    
C5    C6    A    
C31   C35   S    
C22   O7    A    
C11   C16   S    
C16   O6    A    
C10   C11   A    
C13   C19   A    
C12   C25   S    
O1    Zn1   S    
C23   H4    S    
C24   C28   S    
C28   H5    S    
C21   N2    A    
C2    C36   A    
C20   C21   A    
O2    Zn2   S    
C1    O2    A    
C24   H22   S    
C18   C19   A    
C7    C36   A    
C32   H3    S    
C2    H8    S    
C6    C11   A    
C15   C17   A    
O8    Zn2   S    
C14   C15   A    
C5    H1    S    
C36   H7    S    
C16   O5    A    
N1    Zn2   S    
C19   N1    A    
C13   C14   A    
C12   C34   S    
C26   C34   T    
C29   H9    S    
O3    Zn1   S    
C23   C32   S    
C25   C33   S    
C8    C9    A    
O7    Zn1   S    
C23   C31   S    
C1    O1    A    
