data_mof_unit_28554.cif
_audit_creation_date              2012-12-10T17:50:12-0500
_audit_creation_method            fapswitch 2.2
_symmetry_space_group_name_H-M    P1
_symmetry_Int_Tables_number       1
_space_group_crystal_system       triclinic
_cell_length_a                    10.615645
_cell_length_b                    14.692082
_cell_length_c                    14.73606
_cell_angle_alpha                 65.151512
_cell_angle_beta                  103.263322
_cell_angle_gamma                 102.374786
_cell_volume                      2011.75350387

loop_
_atom_site_label
_atom_site_type_symbol
_atom_type_description
_atom_site_fract_x
_atom_site_fract_y
_atom_site_fract_z
_atom_type_partial_charge
C1    C     C_R   0.476607 0.119638 0.312426 0.817418
C2    C     C_R   0.523379 0.880362 0.687574 0.817404
C3    C     C_R   0.499466 0.290242 0.177612 -0.243955
C4    C     C_R   0.500324 0.709771 0.822383 -0.243950
C5    C     C_R   0.472931 0.360144 0.077431 -0.003226
C6    C     C_R   0.526757 0.639858 0.922571 -0.003195
C7    C     C_R   0.412498 0.322043 0.001243 0.009157
C8    C     C_R   0.587211 0.677944 0.998767 0.009103
C9    C     C_R   0.507551 0.466450 0.051555 0.059588
C10   C     C_R   0.492057 0.533556 0.948444 0.059601
C11   C     C_R   0.446438 0.492237 0.873882 -0.299850
C12   C     C_R   0.553107 0.507769 0.126120 -0.299871
C13   C     C_R   0.405116 0.389070 0.898716 0.234356
C14   C     C_R   0.594472 0.610929 0.101295 0.234387
C15   C     C_R   0.736344 0.293493 0.652101 -0.325061
C16   C     C_R   0.263653 0.706504 0.347902 -0.325152
C17   C     C_R   0.694728 0.208165 0.629179 0.069978
C18   C     C_R   0.305269 0.791833 0.370824 0.069954
C19   C     C_R   0.513423 0.282699 0.513657 0.027864
C20   C     C_R   0.486580 0.717302 0.486340 0.027867
C21   C     C_R   0.549992 0.371836 0.534023 -0.037423
C22   C     C_R   0.450011 0.628165 0.465974 -0.037372
C23   C     C_R   0.259816 0.001114 0.499674 0.820581
C24   C     C_R   0.740183 0.998889 0.500320 0.820595
C25   C     C_R   0.664725 0.375623 0.604630 0.168981
C26   C     C_R   0.335276 0.624377 0.395371 0.168903
C27   C     C_R   0.477901 0.456555 0.487252 0.080300
C28   C     C_R   0.522105 0.543448 0.512741 0.080379
C29   C     C_R   0.636982 0.542806 0.583768 -0.246515
C30   C     C_R   0.363027 0.457198 0.416223 -0.246275
C31   C     C_R   0.707073 0.460948 0.627876 -0.233424
C32   C     C_R   0.292932 0.539053 0.372121 -0.233359
C33   C     C_3   0.017039 0.012541 0.406741 -0.333313
C34   C     C_3   0.982959 0.987466 0.593246 -0.333358
C35   C     C_3   0.959465 0.087798 0.429761 -0.287189
C36   C     C_3   0.040531 0.912207 0.570225 -0.287243
C37   C     C_3   0.876290 0.997420 0.500171 -0.091314
C38   C     C_3   0.123708 0.002586 0.499816 -0.091314
C39   C     C_3   0.933328 0.923457 0.477639 0.561428
C40   C     C_3   0.066669 0.076550 0.522346 0.561422
C41   C     C_R   0.455789 0.187221 0.205084 -0.109923
C42   C     C_R   0.544122 0.812776 0.794919 -0.109954
C43   C     C_R   0.362679 0.217551 0.030195 0.446723
C44   C     C_R   0.637177 0.782410 0.969821 0.446586
C45   C     C_R   0.386817 0.151171 0.131531 -0.303638
C46   C     C_R   0.613128 0.848799 0.868482 -0.303531
Cu1   Cu    Cu3+1 0.465750 0.918270 0.475680 0.944177
Cu2   Cu    Cu3+1 0.534250 0.081730 0.524320 0.944189
H1    H     H_    0.924148 0.159740 0.373855 0.150941
H2    H     H_    0.075847 0.840265 0.626132 0.150923
H3    H     H_    0.571097 0.726699 0.539646 0.143404
H4    H     H_    0.428907 0.273303 0.460351 0.143395
H5    H     H_    0.249705 0.855110 0.334799 0.115721
H6    H     H_    0.750290 0.144887 0.665206 0.115719
H7    H     H_    0.824158 0.295355 0.706399 0.135563
H8    H     H_    0.175838 0.704641 0.293606 0.135581
H9    H     H_    0.676415 0.604944 0.606956 0.153172
H10   H     H_    0.323596 0.395062 0.393032 0.153136
H11   H     H_    0.034120 0.022568 0.331337 0.137143
H12   H     H_    0.965882 0.977445 0.668649 0.137139
H13   H     H_    0.441887 0.686370 0.763933 0.162662
H14   H     H_    0.557905 0.313673 0.236043 0.162677
H15   H     H_    0.649938 0.928477 0.847567 0.166525
H16   H     H_    0.350121 0.071475 0.152451 0.166505
H17   H     H_    0.446015 0.537719 0.794380 0.145050
H18   H     H_    0.553437 0.462283 0.205614 0.145040
H19   H     H_    0.794917 0.464121 0.681795 0.143815
H20   H     H_    0.205087 0.535880 0.318202 0.143765
N1    N     N_R   0.585750 0.204560 0.560800 -0.178595
N2    N     N_R   0.414250 0.795440 0.439200 -0.178598
O1    O     O_R   0.454850 0.022100 0.338110 -0.583741
O2    O     O_R   0.545150 0.977900 0.661890 -0.583730
O3    O     O_R   0.512700 0.160150 0.379180 -0.596131
O4    O     O_R   0.487300 0.839850 0.620820 -0.596128
O5    O     O_R   0.287930 0.931000 0.479440 -0.609775
O6    O     O_R   0.712070 0.069000 0.520560 -0.609774
O7    O     O_R   0.345780 0.069050 0.520520 -0.545496
O8    O     O_R   0.654220 0.930950 0.479480 -0.545490
O9    O     O_3   0.857343 0.840600 0.457580 -0.573295
C47   C     C_3   0.931949 0.801489 0.417703 0.051888
H21   H     H_    0.033368 0.794611 0.460103 0.148197
H22   H     H_    0.936204 0.851289 0.336838 0.150262
C48   C     C_3   0.867782 0.696451 0.424264 -0.781966
H23   H     H_    0.764064 0.698398 0.387843 0.261610
H24   H     H_    0.919711 0.668755 0.385438 0.194733
H25   H     H_    0.873031 0.643468 0.504842 0.247072
O10   O     O_3   0.142648 0.159416 0.542392 -0.573310
C49   C     C_3   0.068059 0.198503 0.582306 0.051880
H26   H     H_    0.063956 0.148744 0.663199 0.150322
H27   H     H_    0.966584 0.205274 0.540003 0.148200
C50   C     C_3   0.132106 0.303603 0.575615 -0.781970
H28   H     H_    0.126717 0.356535 0.495014 0.247035
H29   H     H_    0.080209 0.331291 0.614466 0.194733
H30   H     H_    0.235862 0.301762 0.611939 0.261567
N3    N     N_2   0.364899 0.353247 0.819043 -0.386888
H31   H     H_    0.316958 0.402936 0.753551 0.238024
C51   C     C_3   0.467828 0.316779 0.799285 -0.578767
H32   H     H_    0.429280 0.288108 0.738210 0.223060
H33   H     H_    0.506425 0.253929 0.868094 0.245211
H34   H     H_    0.548696 0.379086 0.775314 0.209702
N4    N     N_2   0.634623 0.646755 0.180971 -0.386945
H35   H     H_    0.682298 0.596981 0.246552 0.238063
C52   C     C_3   0.531768 0.683518 0.200478 -0.578709
H36   H     H_    0.570231 0.712009 0.261691 0.223004
H37   H     H_    0.450560 0.621433 0.224138 0.209637
H38   H     H_    0.493652 0.746567 0.131644 0.245328
O11   O     O_3   0.291579 0.179221 0.959754 -0.551755
C53   C     C_3   0.157576 0.165097 0.966394 0.101626
H39   H     H_    0.127047 0.234935 0.962469 0.128979
H40   H     H_    0.135595 0.100974 0.038047 0.127167
C54   C     C_3   0.077181 0.140294 0.878033 -0.808842
H41   H     H_    0.105017 0.071170 0.878982 0.247971
H42   H     H_    0.971676 0.126985 0.883524 0.189082
H43   H     H_    0.094378 0.204581 0.805637 0.250978
O12   O     O_3   0.708377 0.820705 0.040261 -0.551840
C55   C     C_3   0.842374 0.834552 0.033723 0.101669
H44   H     H_    0.864516 0.898491 0.961998 0.127125
H45   H     H_    0.872694 0.764538 0.037888 0.129065
C56   C     C_3   0.922826 0.859527 0.121967 -0.808895
H46   H     H_    0.905433 0.795433 0.194439 0.251076
H47   H     H_    0.028336 0.872575 0.116575 0.189047
H48   H     H_    0.895225 0.928852 0.120752 0.247913

loop_
_geom_bond_atom_site_label_1
_geom_bond_atom_site_label_2
_ccdc_geom_bond_type
C18   N2    A    
C38   C40   S    
O10   C49   S    
C17   N1    A    
N4    H35   S    
C34   C37   S    
Cu2   O6    S    
N3    H31   S    
Cu2   N1    S    
C51   H32   S    
C54   H42   S    
C55   H44   S    
C31   H19   S    
C33   C39   S    
C13   N3    S    
C34   C40   S    
C40   O10   S    
C28   C29   A    
C35   C37   S    
C20   H3    S    
C56   H48   S    
O12   C55   S    
C53   H39   S    
C42   C46   A    
C18   H5    S    
C19   H4    S    
C48   H23   S    
C44   O12   S    
C53   H40   S    
C35   H1    S    
O11   C53   S    
C7    C43   A    
C52   H38   S    
C9    C10   A    
C2    O4    A    
C32   H20   S    
C21   C27   A    
C33   H11   S    
C22   C28   A    
C27   C30   A    
C34   H12   S    
C20   N2    A    
Cu2   O2    S    
C47   C48   S    
C2    O2    A    
Cu2   O3    S    
C51   H33   S    
C44   C46   A    
C56   H47   S    
C16   C26   A    
C29   H9    S    
C4    C6    A    
C23   O5    A    
C50   H28   S    
C5    C7    A    
C26   C32   A    
C24   O6    A    
C14   N4    S    
C6    C8    A    
C43   O11   S    
C12   H18   S    
C4    H13   S    
C15   H7    S    
Cu2   O7    S    
C16   H8    S    
Cu1   N2    S    
C5    C9    A    
C50   H29   S    
Cu1   Cu2   S    
C49   C50   S    
C29   C31   A    
C24   C37   S    
C52   H37   S    
C53   C54   S    
C1    O1    A    
C23   O7    A    
C43   C45   A    
Cu1   O1    S    
C24   O8    A    
C48   H24   S    
C20   C22   A    
C19   N1    A    
C52   H36   S    
C51   H34   S    
C36   H2    S    
N4    C52   S    
C3    H14   S    
C1    C41   S    
C15   C17   A    
C21   C25   A    
C3    C41   A    
C8    C14   A    
C54   H41   S    
C19   C21   A    
C25   C31   A    
C36   C39   S    
C8    C44   A    
Cu1   O4    S    
C12   C14   A    
C47   H21   S    
C3    C5    A    
C6    C10   A    
C56   H46   S    
N3    C51   S    
C23   C38   S    
C45   H16   S    
C33   C38   S    
C55   C56   S    
C46   H15   S    
C1    O3    A    
C36   C38   S    
C49   H27   S    
Cu1   O5    S    
C37   C39   S    
C50   H30   S    
C30   C32   A    
C11   C13   A    
C4    C42   A    
C2    C42   S    
C30   H10   S    
C33   C35   S    
C47   H22   S    
C55   H45   S    
C35   C40   S    
C54   H43   S    
C34   C36   S    
C9    C12   A    
C15   C25   A    
C10   C11   A    
O9    C47   S    
C7    C13   A    
C48   H25   S    
C49   H26   S    
C16   C18   A    
C22   C26   A    
C27   C28   A    
C41   C45   A    
Cu1   O8    S    
C17   H6    S    
C11   H17   S    
C39   O9    S    
