data_mof_unit_42488.cif
_audit_creation_date              2012-12-10T18:19:51-0500
_audit_creation_method            fapswitch 2.2
_symmetry_space_group_name_H-M    P1
_symmetry_Int_Tables_number       1
_space_group_crystal_system       triclinic
_cell_length_a                    14.990886
_cell_length_b                    14.021843
_cell_length_c                    14.154642
_cell_angle_alpha                 89.893656
_cell_angle_beta                  89.965885
_cell_angle_gamma                 89.950355
_cell_volume                      2975.29685781

loop_
_atom_site_label
_atom_site_type_symbol
_atom_type_description
_atom_site_fract_x
_atom_site_fract_y
_atom_site_fract_z
_atom_type_partial_charge
C1    C     C_R   0.327322 0.500000 0.500273 0.917904
C2    C     C_R   0.954334 0.486357 0.328483 -0.221098
C3    C     C_R   0.565006 0.797536 0.452962 -0.045248
C4    C     C_R   0.436271 0.202520 0.548962 -0.045497
C5    C     C_R   0.435028 0.797503 0.547013 -0.040712
C6    C     C_R   0.563571 0.202536 0.450917 -0.040956
C7    C     C_R   0.431926 0.898621 0.548324 -0.030149
C8    C     C_R   0.566284 0.101441 0.448985 -0.029416
C9    C     C_R   0.568004 0.898693 0.451533 -0.029979
C10   C     C_R   0.433487 0.101372 0.550789 -0.029255
C11   C     C_R   0.499946 0.949512 0.499922 -0.004344
C12   C     C_R   0.672681 0.499951 0.499775 0.917576
C13   C     C_R   0.499914 0.050547 0.499915 -0.004881
C14   C     C_R   0.363151 0.949061 0.596796 0.136823
C15   C     C_R   0.633518 0.051049 0.398121 0.137660
C16   C     C_R   0.636641 0.949262 0.402891 0.136794
C17   C     C_R   0.366133 0.050840 0.601435 0.138165
C18   C     C_R   0.500067 0.500063 0.329028 0.894478
C19   C     C_R   0.499930 0.499944 0.670972 0.894520
C20   C     C_1   0.500108 0.500180 0.227637 -0.210032
C21   C     C_1   0.499899 0.499864 0.772363 -0.210092
C22   C     C_1   0.500100 0.500171 0.142436 -0.024097
C23   C     C_R   0.952901 0.499088 0.500045 0.005506
C24   C     C_1   0.499913 0.499931 0.857563 -0.024390
C25   C     C_1   0.500041 0.500110 0.042608 -0.001036
C26   C     C_1   0.499974 0.500038 0.957392 -0.001105
C27   C     C_R   0.812615 0.499766 0.412486 0.061204
C28   C     C_R   0.187431 0.498872 0.587618 0.062032
C29   C     C_R   0.767771 0.499769 0.499837 -0.135267
C30   C     C_R   0.232237 0.499833 0.500252 -0.135010
C31   C     C_R   0.812352 0.499253 0.587286 0.063965
C32   C     C_R   0.187625 0.499838 0.412827 0.063434
C33   C     C_R   0.905940 0.503237 0.587000 0.095195
C34   C     C_R   0.047115 0.499051 0.500128 0.005501
C35   C     C_R   0.094070 0.495098 0.413163 0.095491
C36   C     C_3   0.759949 0.505746 0.319901 -0.404744
C37   C     C_3   0.740848 0.406711 0.279984 -0.865918
C38   C     C_3   0.240164 0.492391 0.680126 -0.405950
C39   C     C_3   0.259457 0.591195 0.720471 -0.868492
C40   C     C_3   0.759321 0.493556 0.679722 -0.408144
C41   C     C_3   0.739926 0.592690 0.719328 -0.853567
C42   C     C_3   0.240583 0.505725 0.320360 -0.408328
C43   C     C_3   0.260490 0.406642 0.280893 -0.852806
C44   C     C_3   0.285166 0.894340 0.640596 -0.420343
C45   C     C_R   0.906179 0.495103 0.412996 0.096089
C46   C     C_3   0.307874 0.857580 0.739500 -0.885402
C47   C     C_3   0.700044 0.105905 0.336678 -0.425141
C48   C     C_3   0.778165 0.144159 0.394807 -0.875176
C49   C     C_3   0.714658 0.894671 0.359102 -0.419707
C50   C     C_3   0.691824 0.857798 0.260419 -0.883076
C51   C     C_3   0.299074 0.105551 0.662203 -0.424360
C52   C     C_3   0.221317 0.143708 0.603239 -0.875157
C53   C     C_R   0.093848 0.503016 0.587169 0.095480
C54   C     C_R   0.953874 0.511625 0.671629 -0.219882
C55   C     C_R   0.046159 0.486317 0.328567 -0.219728
C56   C     C_R   0.045703 0.511443 0.671717 -0.220885
H1    H     H_    0.921856 0.519673 0.739459 0.158809
H2    H     H_    0.295826 0.583921 0.788414 0.250842
H3    H     H_    0.205028 0.447645 0.733030 0.196838
H4    H     H_    0.304370 0.454326 0.670464 0.200242
H5    H     H_    0.802718 0.632356 0.732414 0.254102
H6    H     H_    0.698224 0.634150 0.669131 0.277741
H7    H     H_    0.703074 0.585880 0.787072 0.248737
H8    H     H_    0.695124 0.455601 0.670196 0.205466
H9    H     H_    0.794210 0.449090 0.733040 0.197132
H10   H     H_    0.302401 0.365489 0.331139 0.277966
H11   H     H_    0.197912 0.366574 0.267865 0.254226
H12   H     H_    0.078199 0.478260 0.260749 0.158798
H13   H     H_    0.297303 0.413573 0.213137 0.248194
H14   H     H_    0.205417 0.549888 0.266998 0.197043
H15   H     H_    0.304584 0.544083 0.329807 0.205364
H16   H     H_    0.077567 0.519318 0.739605 0.159209
H17   H     H_    0.922489 0.478412 0.260596 0.159156
H18   H     H_    0.613338 0.754460 0.416231 0.151740
H19   H     H_    0.387753 0.245702 0.585282 0.151312
H20   H     H_    0.386777 0.754447 0.583761 0.146485
H21   H     H_    0.612039 0.245650 0.414600 0.146264
H22   H     H_    0.365969 0.808566 0.737652 0.261025
H23   H     H_    0.803644 0.366815 0.267222 0.255866
H24   H     H_    0.323797 0.917770 0.787386 0.257416
H25   H     H_    0.249832 0.818272 0.768821 0.254518
H26   H     H_    0.223712 0.937972 0.644209 0.217378
H27   H     H_    0.264293 0.834407 0.594608 0.195438
H28   H     H_    0.815512 0.084585 0.428111 0.255542
H29   H     H_    0.824328 0.184215 0.347954 0.253895
H30   H     H_    0.754751 0.192904 0.451270 0.263080
H31   H     H_    0.726488 0.062077 0.278081 0.218359
H32   H     H_    0.666523 0.165032 0.298449 0.192889
H33   H     H_    0.633446 0.809285 0.262500 0.259072
H34   H     H_    0.698923 0.365373 0.329915 0.269608
H35   H     H_    0.676276 0.917976 0.212125 0.256875
H36   H     H_    0.749674 0.817918 0.231422 0.250763
H37   H     H_    0.775962 0.938415 0.355097 0.217191
H38   H     H_    0.735760 0.834813 0.405343 0.194036
H39   H     H_    0.245104 0.192346 0.546706 0.262247
H40   H     H_    0.184331 0.084066 0.569931 0.255619
H41   H     H_    0.174726 0.183818 0.649493 0.251917
H42   H     H_    0.272321 0.061680 0.720739 0.217854
H43   H     H_    0.332162 0.164666 0.700536 0.190512
H44   H     H_    0.704345 0.413641 0.212086 0.249074
H45   H     H_    0.695658 0.543716 0.329301 0.199990
H46   H     H_    0.795074 0.550326 0.266848 0.196767
H47   H     H_    0.301585 0.632620 0.670787 0.270902
H48   H     H_    0.196715 0.631181 0.733271 0.256384
N1    N     N_R   0.500000 0.750030 0.500000 -0.106693
N2    N     N_R   0.500000 0.249970 0.500000 -0.106790
O1    O     O_R   0.367850 0.580280 0.500020 -0.626436
O2    O     O_R   0.632150 0.419720 0.499980 -0.625412
O3    O     O_R   0.632150 0.580280 0.499980 -0.628515
O4    O     O_R   0.367850 0.419720 0.500020 -0.627911
O5    O     O_R   0.500000 0.580290 0.373720 -0.606821
O6    O     O_R   0.500000 0.419710 0.626280 -0.607851
O7    O     O_R   0.500000 0.580290 0.626280 -0.596259
O8    O     O_R   0.500000 0.419710 0.373720 -0.596989
Zn1   Zn    Zn3+2 0.500000 0.607200 0.500000 0.920930
Zn2   Zn    Zn3+2 0.500000 0.392800 0.500000 0.920413

loop_
_geom_bond_atom_site_label_1
_geom_bond_atom_site_label_2
_ccdc_geom_bond_type
C30   C32   A    
C8    C13   A    
C23   C45   A    
C12   C29   S    
C27   C29   A    
C15   C47   S    
C44   H27   S    
C17   C51   S    
C55   H12   S    
C39   H48   S    
C5    N1    A    
C19   O6    A    
C3    N1    A    
C7    C11   A    
C37   H23   S    
C37   H34   S    
C36   C37   S    
C19   C21   S    
C9    C16   A    
C24   C26   S    
C44   H26   S    
C2    C55   A    
C38   C39   S    
C19   O7    A    
C10   C17   A    
C15   C16   A    
C52   H41   S    
C42   H14   S    
C31   C40   S    
C52   H39   S    
C36   H46   S    
C34   C35   A    
C3    H18   S    
C1    C30   S    
C4    H19   S    
C7    C14   A    
C23   C33   A    
C22   C25   S    
C31   C33   A    
C41   H5    S    
C49   H38   S    
C27   C45   A    
C51   H42   S    
C12   O2    A    
C43   H13   S    
C14   C17   A    
C18   O8    A    
C41   H6    S    
C12   O3    A    
C44   C46   S    
C5    C7    A    
C2    C45   A    
C51   H43   S    
C54   C56   A    
C35   C55   A    
C51   C52   S    
C32   C35   A    
C16   C49   S    
C46   H22   S    
C6    H21   S    
C6    C8    A    
C56   H16   S    
C25   C26   T    
C39   H2    S    
C4    N2    A    
C48   H28   S    
N2    Zn2   S    
C36   H45   S    
C47   H31   S    
C3    C9    A    
C1    O4    A    
C46   H25   S    
C50   H33   S    
C47   C48   S    
C28   C38   S    
C23   C34   A    
C6    N2    A    
C18   O5    A    
C9    C11   A    
O1    Zn1   S    
C2    H17   S    
C1    O1    A    
C38   H4    S    
C50   H36   S    
C40   C41   S    
C20   C22   T    
C8    C15   A    
C40   H9    S    
C48   H30   S    
C42   C43   S    
C41   H7    S    
C4    C10   A    
O4    Zn2   S    
O6    Zn2   S    
C14   C44   S    
C53   C56   A    
C33   C54   A    
N1    Zn1   S    
C10   C13   A    
O8    Zn2   S    
C28   C53   A    
C39   H47   S    
C27   C36   S    
C40   H8    S    
C47   H32   S    
O2    Zn2   S    
C5    H20   S    
C28   C30   A    
C29   C31   A    
C46   H24   S    
C11   C13   A    
C43   H10   S    
C42   H15   S    
C52   H40   S    
C18   C20   S    
O3    Zn1   S    
C38   H3    S    
C50   H35   S    
C34   C53   A    
C43   H11   S    
C49   C50   S    
C21   C24   T    
C32   C42   S    
C48   H29   S    
O5    Zn1   S    
C49   H37   S    
C37   H44   S    
O7    Zn1   S    
C54   H1    S    
