data_mof_unit_65427.cif
_audit_creation_date              2012-12-10T17:47:59-0500
_audit_creation_method            fapswitch 2.2
_symmetry_space_group_name_H-M    P1
_symmetry_Int_Tables_number       1
_space_group_crystal_system       triclinic
_cell_length_a                    25.880084
_cell_length_b                    27.730593
_cell_length_c                    27.72711
_cell_angle_alpha                 89.998296
_cell_angle_beta                  90.000964
_cell_angle_gamma                 89.998437
_cell_volume                      19898.9171278

loop_
_atom_site_label
_atom_site_type_symbol
_atom_type_description
_atom_site_fract_x
_atom_site_fract_y
_atom_site_fract_z
_atom_type_partial_charge
C1    C     C_R   0.391546 0.000075 0.249978 0.794603
C2    C     C_R   0.891546 0.000080 0.250028 0.794541
C3    C     C_R   0.750044 0.000029 0.620760 0.814605
C4    C     C_R   0.749973 0.500012 0.379240 0.821724
C5    C     C_R   0.749974 0.500012 0.620759 0.821712
C6    C     C_R   0.250046 0.500029 0.379240 0.815397
C7    C     C_R   0.250045 0.500030 0.620760 0.815328
C8    C     C_R   0.749992 0.999996 0.879241 0.817295
C9    C     C_R   0.749978 0.000009 0.120760 0.821660
C10   C     C_R   0.250014 0.000002 0.879241 0.814977
C11   C     C_R   0.250040 0.000026 0.120761 0.815355
C12   C     C_R   0.249973 0.500012 0.879240 0.821653
C13   C     C_R   0.108443 0.999985 0.750055 0.811344
C14   C     C_R   0.249974 0.500012 0.120759 0.821687
C15   C     C_R   0.750046 0.500029 0.879240 0.815333
C16   C     C_R   0.750045 0.500030 0.120760 0.815328
C17   C     C_R   0.250010 0.129240 0.249990 0.821169
C18   C     C_R   0.250042 0.129239 0.750033 0.818260
C19   C     C_R   0.750010 0.129240 0.250009 0.821187
C20   C     C_R   0.749988 0.129239 0.750006 0.819114
C21   C     C_R   0.750010 0.629240 0.249990 0.821160
C22   C     C_R   0.750011 0.629240 0.750010 0.821146
C23   C     C_R   0.250011 0.629240 0.250010 0.821131
C24   C     C_R   0.108442 0.999985 0.249945 0.811311
C25   C     C_R   0.250010 0.629240 0.749990 0.821193
C26   C     C_R   0.250001 0.870728 0.250001 0.816444
C27   C     C_R   0.250001 0.870727 0.750000 0.816276
C28   C     C_R   0.750002 0.870728 0.250000 0.816462
C29   C     C_R   0.750001 0.870728 0.750001 0.817374
C30   C     C_R   0.750001 0.370728 0.250001 0.816420
C31   C     C_R   0.749996 0.370727 0.750003 0.816386
C32   C     C_R   0.250002 0.370728 0.250000 0.816433
C33   C     C_R   0.250008 0.370727 0.750006 0.816370
C34   C     C_1   0.250007 0.818947 0.250006 -0.150148
C35   C     C_R   0.391546 0.500081 0.749972 0.794482
C36   C     C_1   0.250007 0.818947 0.749996 -0.150286
C37   C     C_1   0.750009 0.818947 0.249995 -0.150146
C38   C     C_1   0.750008 0.818947 0.750007 -0.150457
C39   C     C_1   0.750007 0.318947 0.250006 -0.150250
C40   C     C_1   0.749976 0.318945 0.750016 -0.150420
C41   C     C_1   0.250009 0.318947 0.249995 -0.150252
C42   C     C_1   0.250053 0.318944 0.750038 -0.150383
C43   C     C_1   0.250013 0.775454 0.250011 -0.003883
C44   C     C_1   0.250012 0.775454 0.749990 -0.003917
C45   C     C_1   0.750014 0.775454 0.249990 -0.003874
C46   C     C_R   0.391546 0.500081 0.250029 0.794606
C47   C     C_1   0.750014 0.775454 0.750012 -0.003757
C48   C     C_1   0.750013 0.275454 0.250011 -0.003991
C49   C     C_1   0.749956 0.275452 0.750021 -0.004447
C50   C     C_1   0.250014 0.275454 0.249990 -0.003987
C51   C     C_1   0.250094 0.275450 0.750059 -0.004314
C52   C     C_1   0.250017 0.724510 0.250014 -0.003737
C53   C     C_1   0.250015 0.724510 0.749986 -0.003773
C54   C     C_1   0.750016 0.724510 0.249985 -0.003732
C55   C     C_1   0.750018 0.724510 0.750015 -0.003717
C56   C     C_1   0.750017 0.224510 0.250014 -0.003848
C57   C     C_R   0.608443 0.499984 0.750055 0.811223
C58   C     C_1   0.749946 0.224508 0.750022 -0.004935
C59   C     C_1   0.250016 0.224510 0.249985 -0.003844
C60   C     C_1   0.250118 0.224506 0.750071 -0.005056
C61   C     C_1   0.250016 0.681018 0.250014 -0.150294
C62   C     C_1   0.250014 0.681018 0.749985 -0.150357
C63   C     C_1   0.750015 0.681018 0.249985 -0.150315
C64   C     C_1   0.750017 0.681018 0.750014 -0.150305
C65   C     C_1   0.750016 0.181018 0.250014 -0.150441
C66   C     C_1   0.749959 0.181016 0.750017 -0.150460
C67   C     C_1   0.250015 0.181018 0.249985 -0.150414
C68   C     C_R   0.608442 0.499989 0.249949 0.811279
C69   C     C_1   0.250098 0.181014 0.750064 -0.151430
C70   C     C_3   0.029703 0.950305 0.236639 -0.467517
C71   C     C_3   0.029704 0.950304 0.763365 -0.467548
C72   C     C_3   0.970012 0.950053 0.238331 -0.459398
C73   C     C_3   0.970013 0.950055 0.761683 -0.459315
C74   C     C_3   0.529702 0.450352 0.236508 -0.467599
C75   C     C_3   0.529704 0.450314 0.763401 -0.467696
C76   C     C_3   0.470014 0.450086 0.238255 -0.459642
C77   C     C_3   0.470013 0.450062 0.761707 -0.459570
C78   C     C_3   0.529622 0.958056 0.781154 -0.449537
C79   C     C_3   0.030449 0.013475 0.302166 0.022790
C80   C     C_3   0.529703 0.950297 0.263357 -0.467528
C81   C     C_3   0.470238 0.957258 0.779933 -0.439806
C82   C     C_3   0.470013 0.950045 0.261649 -0.459505
C83   C     C_3   0.029702 0.450331 0.736568 -0.467518
C84   C     C_3   0.029703 0.450338 0.263458 -0.467551
C85   C     C_3   0.970013 0.450071 0.738295 -0.459565
C86   C     C_3   0.970013 0.450079 0.261738 -0.459523
C87   C     C_3   0.059774 0.061556 0.372131 -0.773185
C88   C     C_3   0.059776 0.061565 0.627873 -0.773083
C89   C     C_3   0.905687 0.062889 0.349715 -0.787061
C90   C     C_3   0.030449 0.013475 0.697834 0.022814
C91   C     C_3   0.905681 0.062848 0.650251 -0.786995
C92   C     C_3   0.559729 0.561139 0.372380 -0.773100
C93   C     C_3   0.559772 0.561453 0.627811 -0.773301
C94   C     C_3   0.405515 0.562919 0.349481 -0.786430
C95   C     C_3   0.405647 0.562840 0.650291 -0.786969
C96   C     C_3   0.561179 0.133488 0.774092 -0.753978
C97   C     C_3   0.559761 0.061566 0.127873 -0.774326
C98   C     C_3   0.409878 0.117246 0.785024 -0.773669
C99   C     C_3   0.405564 0.063022 0.150518 -0.787166
C100  C     C_3   0.059740 0.561317 0.872278 -0.773076
C101  C     C_3   0.969817 0.015351 0.302095 0.027422
C102  C     C_3   0.059745 0.561273 0.127699 -0.773053
C103  C     C_3   0.905509 0.562963 0.849453 -0.786365
C104  C     C_3   0.905579 0.562858 0.150387 -0.786574
C105  C     C_R   0.391554 0.000166 0.750210 0.786590
C106  C     C_3   0.969816 0.015339 0.697902 0.027358
C107  C     C_3   0.530446 0.513327 0.302214 0.022594
C108  C     C_3   0.530449 0.513433 0.697823 0.022765
C109  C     C_3   0.469815 0.515286 0.302128 0.027560
C110  C     C_3   0.469817 0.515317 0.697894 0.027471
C111  C     C_3   0.530676 0.048842 0.772738 0.036590
C112  C     C_3   0.530447 0.013483 0.197844 0.022771
C113  C     C_3   0.470148 0.048063 0.775388 0.012461
C114  C     C_3   0.469815 0.015386 0.197921 0.027552
C115  C     C_3   0.030448 0.513392 0.802193 0.022571
C116  C     C_R   0.608443 0.999982 0.250058 0.811294
C117  C     C_3   0.030447 0.513371 0.197800 0.022663
C118  C     C_3   0.969815 0.515327 0.802111 0.027532
C119  C     C_3   0.969815 0.515291 0.197878 0.027506
C120  C     C_3   0.029588 0.037785 0.213369 -0.400761
C121  C     C_3   0.029590 0.037785 0.786629 -0.400722
C122  C     C_3   0.970351 0.036465 0.212049 -0.399156
C123  C     C_3   0.970352 0.036474 0.787942 -0.399119
C124  C     C_3   0.529586 0.537899 0.213486 -0.400971
C125  C     C_3   0.529590 0.537814 0.786599 -0.400750
C126  C     C_3   0.470349 0.536547 0.212125 -0.399053
C127  C     C_R   0.608452 0.999891 0.749941 0.791584
C128  C     C_3   0.470353 0.536495 0.787922 -0.399145
C129  C     C_3   0.529716 0.994466 0.698386 -0.412881
C130  C     C_3   0.529589 0.037771 0.286646 -0.400890
C131  C     C_3   0.470206 0.996383 0.698427 -0.413203
C132  C     C_3   0.470351 0.036444 0.287974 -0.399204
C133  C     C_3   0.029586 0.537848 0.713433 -0.400929
C134  C     C_3   0.029588 0.537866 0.286547 -0.400864
C135  C     C_3   0.970349 0.536509 0.712089 -0.399095
C136  C     C_3   0.970352 0.536532 0.287888 -0.399105
C137  C     C_3   0.050801 0.000803 0.250638 0.102000
C138  C     C_R   0.891546 0.500082 0.249971 0.794582
C139  C     C_3   0.050801 0.000802 0.749363 0.101981
C140  C     C_3   0.949093 0.001067 0.250856 0.111236
C141  C     C_3   0.949093 0.001067 0.749145 0.110964
C142  C     C_3   0.550801 0.500809 0.250648 0.102095
C143  C     C_3   0.550802 0.500801 0.749362 0.102143
C144  C     C_3   0.449093 0.501079 0.250865 0.111568
C145  C     C_3   0.449094 0.501068 0.749144 0.111416
C146  C     C_3   0.550841 0.000610 0.750396 0.104440
C147  C     C_3   0.550801 0.000798 0.249369 0.102019
C148  C     C_3   0.449153 0.000999 0.750764 0.105623
C149  C     C_R   0.891546 0.500079 0.750027 0.794655
C150  C     C_3   0.449093 0.001066 0.249151 0.111432
C151  C     C_3   0.050801 0.500806 0.750643 0.102045
C152  C     C_3   0.050801 0.500806 0.249356 0.102043
C153  C     C_3   0.949093 0.501075 0.750861 0.111502
C154  C     C_3   0.949093 0.501075 0.249138 0.111418
C155  C     C_1   0.250082 0.000056 0.068977 -0.149097
C156  C     C_1   0.250052 0.000032 0.931029 -0.150215
C157  C     C_1   0.749949 0.000029 0.068975 -0.152688
C158  C     C_1   0.749967 0.000016 0.931028 -0.151443
C159  C     C_1   0.750115 0.500083 0.068975 -0.149080
C160  C     C_R   0.108443 0.499987 0.250052 0.811292
C161  C     C_1   0.750118 0.500081 0.931025 -0.149128
C162  C     C_1   0.249923 0.500049 0.068974 -0.152724
C163  C     C_1   0.249922 0.500048 0.931026 -0.152732
C164  C     C_1   0.750113 0.000082 0.568975 -0.148852
C165  C     C_1   0.750117 0.000080 0.431025 -0.149025
C166  C     C_1   0.249925 0.000048 0.568974 -0.153039
C167  C     C_1   0.249923 0.000048 0.431026 -0.152779
C168  C     C_1   0.250115 0.500083 0.568975 -0.149048
C169  C     C_1   0.250118 0.500081 0.431025 -0.149114
C170  C     C_1   0.749923 0.500049 0.568974 -0.152737
C171  C     C_R   0.108442 0.499987 0.749947 0.811330
C172  C     C_1   0.749922 0.500048 0.431026 -0.152712
C173  C     C_1   0.250097 0.000064 0.025479 -0.004976
C174  C     C_1   0.250082 0.000053 0.974528 -0.004716
C175  C     C_1   0.749937 0.000036 0.025477 -0.004218
C176  C     C_1   0.749946 0.000030 0.974527 -0.004159
C177  C     C_1   0.750157 0.500108 0.025476 -0.005017
C178  C     C_1   0.750158 0.500107 0.974524 -0.005025
C179  C     C_1   0.249892 0.500066 0.025475 -0.004064
C180  C     C_1   0.249892 0.500066 0.974525 -0.004070
C181  C     C_1   0.750154 0.000107 0.525476 -0.005053
C182  C     C_R   0.891546 0.000081 0.749972 0.795096
C183  C     C_1   0.750156 0.000106 0.474524 -0.005048
C184  C     C_1   0.249895 0.000066 0.525476 -0.004141
C185  C     C_1   0.249894 0.000066 0.474525 -0.004114
C186  C     C_1   0.250157 0.500108 0.525476 -0.005007
C187  C     C_1   0.250158 0.500107 0.474524 -0.005009
C188  C     C_1   0.749892 0.500066 0.525475 -0.004051
C189  C     C_1   0.749892 0.500066 0.474524 -0.004050
C190  C     C_R   0.249974 0.000012 0.379240 0.821678
C191  C     C_R   0.249974 0.000012 0.620760 0.822039
C192  C     C_R   0.750046 0.000029 0.379240 0.815285
H1    H     H_    0.044875 0.922296 0.261664 0.184968
H2    H     H_    0.544882 0.922292 0.238334 0.185001
H3    H     H_    0.521115 0.562403 0.389767 0.261459
H4    H     H_    0.544475 0.589157 0.696667 0.233546
H5    H     H_    0.581065 0.595021 0.618794 0.233822
H6    H     H_    0.521192 0.562673 0.610354 0.261488
H7    H     H_    0.582094 0.530401 0.613438 0.240908
H8    H     H_    0.453127 0.590683 0.294756 0.227880
H9    H     H_    0.401998 0.599121 0.366243 0.234940
H10   H     H_    0.409401 0.535979 0.378904 0.242139
H11   H     H_    0.369875 0.555764 0.328471 0.232994
H12   H     H_    0.452802 0.590644 0.705343 0.227785
H13   H     H_    0.455336 0.958026 0.817596 0.186762
H14   H     H_    0.401951 0.599133 0.633757 0.234924
H15   H     H_    0.369928 0.555287 0.671044 0.233376
H16   H     H_    0.409951 0.536129 0.620711 0.242169
H17   H     H_    0.535252 0.096564 0.712629 0.240419
H18   H     H_    0.579017 0.161179 0.750440 0.238785
H19   H     H_    0.588700 0.125369 0.803744 0.225798
H20   H     H_    0.524831 0.148230 0.789382 0.253540
H21   H     H_    0.544529 0.089201 0.196770 0.233494
H22   H     H_    0.581071 0.095132 0.118885 0.233684
H23   H     H_    0.521171 0.062827 0.110436 0.261377
H24   H     H_    0.456815 0.923411 0.234258 0.185821
H25   H     H_    0.582055 0.030518 0.113455 0.241002
H26   H     H_    0.440950 0.093430 0.718967 0.245175
H27   H     H_    0.398334 0.151295 0.766915 0.242500
H28   H     H_    0.426982 0.126444 0.820594 0.228365
H29   H     H_    0.374977 0.094646 0.790487 0.234710
H30   H     H_    0.452932 0.090728 0.205457 0.227845
H31   H     H_    0.401949 0.099295 0.133925 0.234780
H32   H     H_    0.369885 0.055628 0.171388 0.233247
H33   H     H_    0.409665 0.036242 0.120976 0.242135
H34   H     H_    0.044610 0.589096 0.803416 0.233419
H35   H     H_    0.044893 0.422277 0.761532 0.184931
H36   H     H_    0.081063 0.594855 0.881349 0.233869
H37   H     H_    0.082001 0.530230 0.886658 0.240928
H38   H     H_    0.021136 0.562566 0.889686 0.261486
H39   H     H_    0.044567 0.589079 0.196538 0.233480
H40   H     H_    0.081075 0.594804 0.118620 0.233863
H41   H     H_    0.021147 0.562518 0.110279 0.261482
H42   H     H_    0.082007 0.530177 0.113342 0.240919
H43   H     H_    0.953074 0.590707 0.794684 0.227887
H44   H     H_    0.901971 0.599181 0.866178 0.234978
H45   H     H_    0.909431 0.536055 0.878902 0.242132
H46   H     H_    0.044889 0.422274 0.238505 0.184902
H47   H     H_    0.869864 0.555762 0.828466 0.233001
H48   H     H_    0.952965 0.590656 0.205268 0.227851
H49   H     H_    0.901975 0.599101 0.133728 0.234976
H50   H     H_    0.869899 0.555512 0.171271 0.233167
H51   H     H_    0.909672 0.536023 0.120893 0.242158
H52   H     H_    0.956828 0.423403 0.765658 0.185757
H53   H     H_    0.956821 0.423392 0.234397 0.185735
H54   H     H_    0.042945 0.940565 0.199704 0.181069
H55   H     H_    0.042954 0.940560 0.800297 0.181066
H56   H     H_    0.954617 0.938070 0.202806 0.178002
H57   H     H_    0.044868 0.922296 0.738338 0.184962
H58   H     H_    0.954624 0.938083 0.797214 0.178087
H59   H     H_    0.542908 0.440734 0.199530 0.181061
H60   H     H_    0.542945 0.440601 0.800344 0.180933
H61   H     H_    0.454586 0.438143 0.202729 0.177907
H62   H     H_    0.454617 0.438103 0.797239 0.177850
H63   H     H_    0.544647 0.923120 0.767182 0.197320
H64   H     H_    0.542936 0.940551 0.300294 0.181053
H65   H     H_    0.456875 0.922897 0.763306 0.195594
H66   H     H_    0.454609 0.938035 0.297161 0.177958
H67   H     H_    0.042921 0.440657 0.699608 0.181101
H68   H     H_    0.956805 0.923400 0.265700 0.185778
H69   H     H_    0.042928 0.440680 0.300421 0.181093
H70   H     H_    0.954597 0.438104 0.702774 0.177982
H71   H     H_    0.954602 0.438137 0.297271 0.177978
H72   H     H_    0.042211 0.983044 0.326127 0.137076
H73   H     H_    0.042218 0.983049 0.673872 0.137067
H74   H     H_    0.956715 0.987127 0.328019 0.135712
H75   H     H_    0.956721 0.987104 0.671988 0.135719
H76   H     H_    0.542147 0.482794 0.326069 0.137202
H77   H     H_    0.542205 0.482982 0.673889 0.137080
H78   H     H_    0.456663 0.487063 0.328029 0.135534
H79   H     H_    0.956798 0.923395 0.734326 0.185768
H80   H     H_    0.456712 0.487078 0.671989 0.135661
H81   H     H_    0.545654 0.050227 0.810464 0.103013
H82   H     H_    0.542189 0.983049 0.173882 0.137168
H83   H     H_    0.459976 0.045667 0.814442 0.116902
H84   H     H_    0.456697 0.987194 0.171972 0.135624
H85   H     H_    0.042167 0.482901 0.826092 0.137188
H86   H     H_    0.042175 0.482873 0.173913 0.137162
H87   H     H_    0.956679 0.487116 0.828031 0.135539
H88   H     H_    0.956686 0.487054 0.171983 0.135619
H89   H     H_    0.042858 0.074890 0.222059 0.174998
H90   H     H_    0.544906 0.422264 0.261427 0.184860
H91   H     H_    0.042867 0.074889 0.777941 0.175045
H92   H     H_    0.954819 0.073481 0.216862 0.175033
H93   H     H_    0.954827 0.073489 0.783113 0.175058
H94   H     H_    0.542824 0.574983 0.222308 0.174853
H95   H     H_    0.542859 0.574912 0.777877 0.174980
H96   H     H_    0.454786 0.573545 0.216990 0.175155
H97   H     H_    0.454820 0.573506 0.783078 0.175050
H98   H     H_    0.545144 0.022805 0.673967 0.182843
H99   H     H_    0.542851 0.074879 0.277959 0.174944
H100  H     H_    0.457066 0.026886 0.675567 0.175595
H101  H     H_    0.544875 0.422285 0.738401 0.184838
H102  H     H_    0.454813 0.073460 0.283178 0.175096
H103  H     H_    0.042838 0.574941 0.722195 0.174901
H104  H     H_    0.042843 0.574954 0.277766 0.174903
H105  H     H_    0.954799 0.573515 0.716932 0.175147
H106  H     H_    0.954804 0.573535 0.283022 0.175085
H107  H     H_    0.044627 0.029176 0.176738 0.188760
H108  H     H_    0.044624 0.029172 0.823262 0.188755
H109  H     H_    0.957631 0.024446 0.175605 0.188026
H110  H     H_    0.957627 0.024467 0.824388 0.188107
H111  H     H_    0.544651 0.529421 0.176833 0.188900
H112  H     H_    0.456840 0.423397 0.265603 0.185705
H113  H     H_    0.544630 0.529235 0.823238 0.188779
H114  H     H_    0.457662 0.524575 0.175656 0.188052
H115  H     H_    0.457635 0.524503 0.824376 0.188025
H116  H     H_    0.542690 0.959226 0.683442 0.167021
H117  H     H_    0.544635 0.029158 0.323275 0.188732
H118  H     H_    0.454834 0.962940 0.681470 0.167220
H119  H     H_    0.457638 0.024402 0.324412 0.187949
H120  H     H_    0.044640 0.529312 0.676789 0.188855
H121  H     H_    0.044641 0.529345 0.323195 0.188861
H122  H     H_    0.957647 0.524515 0.675632 0.188041
H123  H     H_    0.456805 0.423391 0.734358 0.185686
H124  H     H_    0.957649 0.524559 0.324352 0.188067
H125  H     H_    0.044454 0.089202 0.303255 0.233637
H126  H     H_    0.081062 0.095135 0.381116 0.233869
H127  H     H_    0.082106 0.030520 0.386528 0.240873
H128  H     H_    0.021197 0.062782 0.389593 0.261499
H129  H     H_    0.044430 0.089206 0.696744 0.233679
H130  H     H_    0.081053 0.095152 0.618892 0.233905
H131  H     H_    0.021203 0.062778 0.610402 0.261474
H132  H     H_    0.082125 0.030538 0.613484 0.240863
H133  H     H_    0.952746 0.090662 0.294575 0.227834
H134  H     H_    0.542835 0.961565 0.819209 0.184641
H135  H     H_    0.901939 0.099219 0.366155 0.234998
H136  H     H_    0.910092 0.036266 0.379362 0.242157
H137  H     H_    0.869955 0.055211 0.329028 0.233445
H138  H     H_    0.952719 0.090647 0.705393 0.227860
H139  H     H_    0.901931 0.099171 0.633792 0.235008
H140  H     H_    0.869945 0.055176 0.670934 0.233438
H141  H     H_    0.910096 0.036212 0.620618 0.242146
H142  H     H_    0.544659 0.589021 0.303548 0.233377
H143  H     H_    0.581085 0.594643 0.381506 0.233835
H144  H     H_    0.581946 0.530010 0.386731 0.240945
N1    N     N_2   0.054489 0.057550 0.320319 -0.300730
N2    N     N_2   0.554511 0.057547 0.179687 -0.300577
N3    N     N_2   0.447408 0.092085 0.755588 -0.290583
N4    N     N_2   0.450355 0.062219 0.181809 -0.301221
N5    N     N_2   0.054538 0.557400 0.820451 -0.300817
N6    N     N_2   0.054524 0.557380 0.179527 -0.300791
N7    N     N_2   0.950384 0.562154 0.818269 -0.301291
N8    N     N_2   0.950369 0.562099 0.181679 -0.301294
N9    N     N_2   0.054480 0.057557 0.679685 -0.300683
N10   N     N_2   0.950334 0.062160 0.318248 -0.301241
N11   N     N_2   0.950321 0.062138 0.681729 -0.301253
N12   N     N_2   0.554555 0.557296 0.320545 -0.300812
N13   N     N_2   0.554496 0.557490 0.679628 -0.300739
N14   N     N_2   0.450405 0.562111 0.318315 -0.301290
N15   N     N_2   0.450338 0.562117 0.681707 -0.301279
N16   N     N_2   0.550791 0.090390 0.746303 -0.270073
O1    O     O_3   0.250000 0.999990 0.250000 -0.474993
O2    O     O_R   0.366860 0.972110 0.777870 -0.652940
O3    O     O_R   0.133150 0.027840 0.222150 -0.648586
O4    O     O_R   0.366850 0.527840 0.777850 -0.649599
O5    O     O_R   0.366850 0.527840 0.222150 -0.649649
O6    O     O_R   0.633150 0.527840 0.777850 -0.648598
O7    O     O_R   0.633150 0.527840 0.222150 -0.648666
O8    O     O_R   0.633140 0.972110 0.222130 -0.647590
O9    O     O_R   0.633140 0.972110 0.777870 -0.656131
O10   O     O_R   0.866860 0.472110 0.222130 -0.650792
O11   O     O_R   0.866860 0.472110 0.777870 -0.650750
O12   O     O_R   0.133140 0.472110 0.222130 -0.647554
O13   O     O_R   0.133140 0.472110 0.777870 -0.647536
O14   O     O_R   0.866860 0.972110 0.722130 -0.650706
O15   O     O_R   0.866860 0.972110 0.277870 -0.650857
O16   O     O_R   0.133140 0.972110 0.722130 -0.647650
O17   O     O_3   0.250000 0.999990 0.750000 -0.474492
O18   O     O_R   0.133140 0.972110 0.277870 -0.647625
O19   O     O_R   0.366860 0.472110 0.722130 -0.650876
O20   O     O_R   0.366860 0.472110 0.277870 -0.650772
O21   O     O_R   0.633140 0.472110 0.722130 -0.647664
O22   O     O_R   0.633140 0.472110 0.277870 -0.647522
O23   O     O_R   0.280630 0.027850 0.356260 -0.634782
O24   O     O_R   0.280630 0.027850 0.643740 -0.634741
O25   O     O_R   0.719370 0.027850 0.356260 -0.636409
O26   O     O_R   0.719370 0.027850 0.643740 -0.636492
O27   O     O_R   0.780630 0.527850 0.356260 -0.634727
O28   O     O_3   0.750000 0.999990 0.250000 -0.474995
O29   O     O_R   0.780630 0.527850 0.643740 -0.634715
O30   O     O_R   0.219370 0.527850 0.356260 -0.636359
O31   O     O_R   0.219370 0.527850 0.643740 -0.636372
O32   O     O_R   0.780630 0.027850 0.856260 -0.634958
O33   O     O_R   0.780630 0.027850 0.143740 -0.634803
O34   O     O_R   0.219370 0.027850 0.856260 -0.636664
O35   O     O_R   0.219370 0.027850 0.143740 -0.636440
O36   O     O_R   0.280630 0.527850 0.856260 -0.634710
O37   O     O_R   0.280630 0.527850 0.143740 -0.634708
O38   O     O_R   0.719370 0.527850 0.856260 -0.636335
O39   O     O_3   0.750000 0.999990 0.750000 -0.475839
O40   O     O_R   0.719370 0.527850 0.143740 -0.636350
O41   O     O_R   0.280630 0.106260 0.277850 -0.634582
O42   O     O_R   0.280630 0.106260 0.722150 -0.634895
O43   O     O_R   0.719370 0.106260 0.277850 -0.634072
O44   O     O_R   0.719370 0.106260 0.722150 -0.629307
O45   O     O_R   0.780630 0.606260 0.277850 -0.634561
O46   O     O_R   0.780630 0.606260 0.722150 -0.634586
O47   O     O_R   0.219370 0.606260 0.277850 -0.634072
O48   O     O_R   0.219370 0.606260 0.722150 -0.634083
O49   O     O_R   0.780630 0.106260 0.777850 -0.635774
O50   O     O_3   0.750000 0.499990 0.250000 -0.474993
O51   O     O_R   0.780630 0.106260 0.222150 -0.634576
O52   O     O_R   0.219370 0.106260 0.777850 -0.633489
O53   O     O_R   0.219370 0.106260 0.222150 -0.634075
O54   O     O_R   0.280630 0.606260 0.777850 -0.634512
O55   O     O_R   0.280630 0.606260 0.222150 -0.634548
O56   O     O_R   0.719370 0.606260 0.777850 -0.634007
O57   O     O_R   0.719370 0.606260 0.222150 -0.634055
O58   O     O_R   0.280650 0.893700 0.222130 -0.634607
O59   O     O_R   0.280650 0.893700 0.777870 -0.634387
O60   O     O_R   0.719350 0.893700 0.222130 -0.636583
O61   O     O_3   0.750000 0.499990 0.750000 -0.474970
O62   O     O_R   0.719350 0.893700 0.777870 -0.634842
O63   O     O_R   0.780650 0.393700 0.222130 -0.634655
O64   O     O_R   0.780650 0.393700 0.777870 -0.634633
O65   O     O_R   0.219350 0.393700 0.222130 -0.636639
O66   O     O_R   0.219350 0.393700 0.777870 -0.636592
O67   O     O_R   0.780650 0.893700 0.722130 -0.634554
O68   O     O_R   0.780650 0.893700 0.277870 -0.634650
O69   O     O_R   0.219350 0.893700 0.722130 -0.636666
O70   O     O_R   0.219350 0.893700 0.277870 -0.636637
O71   O     O_R   0.280650 0.393700 0.722130 -0.634745
O72   O     O_3   0.250000 0.499990 0.250000 -0.474991
O73   O     O_R   0.280650 0.393700 0.277870 -0.634669
O74   O     O_R   0.719350 0.393700 0.722130 -0.636737
O75   O     O_R   0.719350 0.393700 0.277870 -0.636653
O76   O     O_R   0.219370 0.972130 0.356260 -0.633632
O77   O     O_R   0.219370 0.972130 0.643740 -0.633567
O78   O     O_R   0.780630 0.972130 0.356260 -0.635779
O79   O     O_R   0.780630 0.972130 0.643740 -0.635793
O80   O     O_R   0.719370 0.472130 0.356260 -0.633630
O81   O     O_R   0.719370 0.472130 0.643740 -0.633655
O82   O     O_R   0.280630 0.472130 0.356260 -0.635765
O83   O     O_3   0.250000 0.499990 0.750000 -0.474976
O84   O     O_R   0.280630 0.472130 0.643740 -0.635785
O85   O     O_R   0.719370 0.972130 0.856260 -0.634854
O86   O     O_R   0.719370 0.972130 0.143740 -0.633557
O87   O     O_R   0.280630 0.972130 0.856260 -0.635449
O88   O     O_R   0.280630 0.972130 0.143740 -0.635673
O89   O     O_R   0.219370 0.472130 0.856260 -0.633666
O90   O     O_R   0.219370 0.472130 0.143740 -0.633652
O91   O     O_R   0.780630 0.472130 0.856260 -0.635800
O92   O     O_R   0.780630 0.472130 0.143740 -0.635788
O93   O     O_R   0.366850 0.027840 0.277850 -0.649653
O94   O     O_R   0.366860 0.972110 0.222130 -0.650768
O95   O     O_R   0.366850 0.027840 0.722150 -0.643258
O96   O     O_R   0.633150 0.027840 0.277850 -0.648624
O97   O     O_R   0.633150 0.027840 0.722150 -0.624596
O98   O     O_R   0.866850 0.527840 0.277850 -0.649623
O99   O     O_R   0.866850 0.527840 0.722150 -0.649639
O100  O     O_R   0.133150 0.527840 0.277850 -0.648633
O101  O     O_R   0.133150 0.527840 0.722150 -0.648634
O102  O     O_R   0.866850 0.027840 0.777850 -0.649043
O103  O     O_R   0.866850 0.027840 0.222150 -0.649574
O104  O     O_R   0.133150 0.027840 0.777850 -0.648490
Zn1   Zn    Zn3+2 0.206230 0.960180 0.289800 0.974487
Zn2   Zn    Zn3+2 0.706230 0.960180 0.210200 0.974581
Zn3   Zn    Zn3+2 0.293770 0.960180 0.789800 0.964150
Zn4   Zn    Zn3+2 0.293770 0.960180 0.210200 0.962890
Zn5   Zn    Zn3+2 0.206230 0.460180 0.789800 0.974478
Zn6   Zn    Zn3+2 0.206230 0.460180 0.210200 0.974478
Zn7   Zn    Zn3+2 0.793770 0.460180 0.789800 0.962734
Zn8   Zn    Zn3+2 0.793770 0.460180 0.210200 0.962753
Zn9   Zn    Zn3+2 0.293770 0.039800 0.289800 0.969248
Zn10  Zn    Zn3+2 0.293770 0.039800 0.710200 0.966613
Zn11  Zn    Zn3+2 0.706230 0.039800 0.289800 0.971456
Zn12  Zn    Zn3+2 0.206230 0.960180 0.710200 0.974774
Zn13  Zn    Zn3+2 0.706230 0.039800 0.710200 0.976906
Zn14  Zn    Zn3+2 0.793770 0.539800 0.289800 0.969363
Zn15  Zn    Zn3+2 0.793770 0.539800 0.710200 0.969352
Zn16  Zn    Zn3+2 0.206230 0.539800 0.289800 0.971511
Zn17  Zn    Zn3+2 0.206230 0.539800 0.710200 0.971530
Zn18  Zn    Zn3+2 0.793770 0.039800 0.789800 0.966212
Zn19  Zn    Zn3+2 0.793770 0.039800 0.210200 0.969330
Zn20  Zn    Zn3+2 0.206230 0.039800 0.789800 0.971475
Zn21  Zn    Zn3+2 0.206230 0.039800 0.210200 0.971490
Zn22  Zn    Zn3+2 0.293770 0.539800 0.789800 0.969381
Zn23  Zn    Zn3+2 0.793770 0.960180 0.289800 0.962819
Zn24  Zn    Zn3+2 0.293770 0.539800 0.210200 0.969348
Zn25  Zn    Zn3+2 0.706230 0.539800 0.789800 0.971540
Zn26  Zn    Zn3+2 0.706230 0.539800 0.210200 0.971512
Zn27  Zn    Zn3+2 0.793770 0.960180 0.710200 0.962974
Zn28  Zn    Zn3+2 0.706230 0.460180 0.289800 0.974487
Zn29  Zn    Zn3+2 0.706230 0.460180 0.710200 0.974314
Zn30  Zn    Zn3+2 0.293770 0.460180 0.289800 0.962749
Zn31  Zn    Zn3+2 0.293770 0.460180 0.710200 0.962645
Zn32  Zn    Zn3+2 0.706230 0.960180 0.789800 0.967558

loop_
_geom_bond_atom_site_label_1
_geom_bond_atom_site_label_2
_ccdc_geom_bond_type
C7    C168  S    
C10   O34   A    
O84   Zn31  S    
C103  H44   S    
C98   H28   S    
C132  C150  S    
C41   C50   T    
H4    N13   S    
C133  C151  S    
C71   H55   S    
C138  O98   A    
C22   O46   A    
O63   Zn8   S    
C92   H143  S    
H39   N6    S    
C58   C66   T    
C106  H75   S    
C23   O47   A    
O36   Zn22  S    
C50   C59   S    
O16   Zn12  S    
C20   C66   S    
C108  H77   S    
C91   H141  S    
C84   C86   S    
C52   C61   T    
C117  C119  S    
O81   Zn29  S    
C128  C145  S    
C54   C63   T    
O85   Zn32  S    
C167  C185  T    
C98   H29   S    
C118  C153  S    
C35   C145  S    
C149  C153  S    
C44   C53   S    
C136  H106  S    
C87   H128  S    
C14   O37   A    
C110  C145  S    
O19   Zn31  S    
O61   Zn25  S    
C138  C154  S    
C33   O66   A    
C96   H19   S    
C102  H40   S    
C79   H72   S    
O72   Zn24  S    
O101  Zn17  S    
C7    O84   A    
C181  C183  S    
C77   H123  S    
C17   C67   S    
C165  C183  T    
O89   Zn5   S    
H43   N7    S    
C169  C187  T    
C73   H79   S    
C5    O29   A    
C71   C73   S    
C7    O31   A    
C101  N10   S    
O70   Zn1   S    
O8    Zn2   S    
C32   O73   A    
O96   Zn11  S    
C24   O3    A    
C190  O76   A    
C175  C176  S    
C182  O102  A    
O28   Zn23  S    
O4    Zn22  S    
C115  C118  S    
C156  C174  T    
C123  C141  S    
C1    C150  S    
C111  C113  S    
C94   H9    S    
O15   Zn23  S    
O52   Zn20  S    
C75   C143  S    
C3    C164  S    
C76   C144  S    
C80   C82   S    
C120  H89   S    
C79   C137  S    
C102  H42   S    
C18   O52   A    
C97   H22   S    
H26   N3    S    
C27   C36   S    
O72   Zn6   S    
C100  N5    S    
C36   C44   T    
C114  C150  S    
C37   C45   T    
C75   H60   S    
C13   C139  S    
C76   H112  S    
O31   Zn17  S    
C92   N12   S    
C3    O79   A    
C95   H16   S    
O40   Zn26  S    
O92   Zn8   S    
C80   H64   S    
O86   Zn2   S    
C15   C161  S    
C91   H139  S    
C116  C147  S    
C71   C139  S    
O71   Zn31  S    
C31   O64   A    
C3    O26   A    
C72   H56   S    
C86   C154  S    
O93   Zn9   S    
C6    O82   A    
O64   Zn7   S    
C110  H80   S    
O68   Zn23  S    
O39   Zn13  S    
C70   H1    S    
O1    Zn21  S    
C109  C144  S    
C25   C62   S    
O25   Zn11  S    
C134  H104  S    
C138  O10   A    
C78   C146  S    
O72   Zn30  S    
C6    O30   A    
O50   Zn8   S    
C115  C151  S    
C133  C135  S    
C186  C187  S    
C71   H57   S    
C25   O54   A    
C12   C163  S    
C101  H74   S    
C125  H95   S    
O88   Zn4   S    
C126  H96   S    
C82   H66   S    
O60   Zn2   S    
C112  C114  S    
C74   H59   S    
O7    Zn26  S    
H129  N9    S    
C74   C76   S    
C78   H63   S    
C113  C148  S    
C100  H37   S    
O17   Zn10  S    
C191  O77   A    
C99   N4    S    
C87   H126  S    
O10   Zn8   S    
C117  N6    S    
C43   C52   S    
C26   O58   A    
C40   C49   T    
O74   Zn29  S    
C121  H108  S    
C151  C171  S    
O55   Zn24  S    
C28   O68   A    
C57   O21   A    
C166  C191  S    
O1    Zn9   S    
O28   Zn2   S    
C26   O70   A    
C164  C181  T    
C59   C67   T    
C17   O53   A    
C109  N14   S    
C11   O35   A    
C130  H99   S    
C32   C41   S    
C68   C142  S    
C9    O33   A    
C133  H120  S    
O11   Zn7   S    
C11   C155  S    
C20   O44   A    
C18   C69   S    
C21   O45   A    
O53   Zn21  S    
C136  H124  S    
C99   H31   S    
C121  C123  S    
C90   H73   S    
O12   Zn6   S    
C4    O80   A    
C111  C146  S    
C28   O60   A    
C20   O49   A    
C46   C144  S    
O43   Zn11  S    
C89   N10   S    
C105  C148  S    
C85   H52   S    
C179  C180  S    
C93   H5    S    
C117  H86   S    
C76   H61   S    
C75   C77   S    
H21   N2    S    
C38   C47   T    
O18   Zn1   S    
C103  H45   S    
C87   N1    S    
C88   H131  S    
C74   H90   S    
O50   Zn14  S    
C70   C137  S    
C129  H98   S    
C86   H53   S    
O39   Zn32  S    
O66   Zn5   S    
C91   N11   S    
C89   H135  S    
O1    Zn4   S    
O83   Zn31  S    
H133  N10   S    
C113  N3    S    
C124  C126  S    
H17   N16   S    
C9    O86   A    
C4    C172  S    
O20   Zn30  S    
C130  C147  S    
C34   C43   T    
O17   Zn12  S    
C112  N2    S    
O97   Zn13  S    
C92   H144  S    
O28   Zn11  S    
C24   C137  S    
C104  H51   S    
C112  C147  S    
C111  N16   S    
O87   Zn3   S    
C1    O94   A    
C121  C139  S    
C122  C140  S    
C124  H111  S    
C28   C37   S    
C125  C143  S    
C14   O90   A    
C126  C144  S    
C108  C110  S    
C30   C39   S    
O17   Zn3   S    
C132  H119  S    
C125  H113  S    
O76   Zn1   S    
C22   O56   A    
C2    O15   A    
O51   Zn19  S    
O95   Zn10  S    
O56   Zn25  S    
C72   C140  S    
C133  H103  S    
O75   Zn28  S    
C87   H127  S    
C16   O92   A    
O27   Zn14  S    
C170  C188  T    
C107  H76   S    
C79   N1    S    
C79   C101  S    
C90   N9    S    
C51   C60   S    
C121  H91   S    
C15   O91   A    
C4    O27   A    
C124  H94   S    
O83   Zn5   S    
C96   H20   S    
C85   H70   S    
C8    C158  S    
C32   O65   A    
C113  H83   S    
O3    Zn21  S    
C114  H84   S    
C119  N8    S    
C73   C141  S    
C5    O81   A    
O39   Zn27  S    
C27   O69   A    
C81   H13   S    
C93   H7    S    
H34   N5    S    
C112  H82   S    
O82   Zn30  S    
C135  H105  S    
C118  H87   S    
C127  O9    A    
C31   C40   S    
C48   C56   S    
C100  H36   S    
C23   O55   A    
C93   N13   S    
C171  O13   A    
C95   N15   S    
O49   Zn18  S    
C89   H137  S    
C83   H67   S    
C94   H10   S    
C78   H134  S    
C96   H18   S    
C171  O101  A    
C98   H27   S    
O83   Zn17  S    
O24   Zn10  S    
C107  C109  S    
O102  Zn18  S    
O67   Zn27  S    
C83   C151  S    
C95   H15   S    
O80   Zn28  S    
C30   O75   A    
O61   Zn15  S    
O23   Zn9   S    
O90   Zn6   S    
C192  O25   A    
O9    Zn32  S    
O2    Zn3   S    
C123  H110  S    
C90   C106  S    
C19   O43   A    
C114  N4    S    
C119  H88   S    
C17   O41   A    
O22   Zn28  S    
O6    Zn25  S    
C116  O8    A    
C96   N16   S    
C8    O85   A    
C14   C162  S    
C130  C132  S    
O38   Zn25  S    
C120  H107  S    
C24   O18   A    
C118  N7    S    
C13   O104  A    
C136  C154  S    
C98   N3    S    
C29   O67   A    
C68   O7    A    
C9    C157  S    
C81   C148  S    
C134  C152  S    
C166  C184  T    
C35   O19   A    
C57   O6    A    
C134  H121  S    
C182  O14   A    
C129  C146  S    
C99   H33   S    
C70   H54   S    
C82   H24   S    
C110  N15   S    
C83   C85   S    
C119  C154  S    
C127  O97   A    
O104  Zn20  S    
C97   H25   S    
C84   H69   S    
O77   Zn12  S    
C97   N2    S    
C33   C42   S    
O62   Zn32  S    
O32   Zn18  S    
C86   H71   S    
C106  C141  S    
C94   N14   S    
C160  O12   A    
C68   O22   A    
C8    O32   A    
C84   H46   S    
O1    Zn1   S    
O46   Zn15  S    
O58   Zn4   S    
O26   Zn13  S    
C172  C189  T    
C160  O100  A    
O72   Zn16  S    
C168  C186  T    
C100  H38   S    
C116  O96   A    
C77   H62   S    
C75   H101  S    
C105  O2    A    
O29   Zn15  S    
C78   C81   S    
O94   Zn4   S    
C149  O11   A    
O50   Zn28  S    
C104  H50   S    
C19   C65   S    
C21   C63   S    
C127  C146  S    
C22   C64   S    
C2    O103  A    
C23   C61   S    
C115  N5    S    
C102  H41   S    
C103  H47   S    
C177  C178  S    
C97   H23   S    
C120  C137  S    
C161  C178  T    
C102  N6    S    
C108  C143  S    
C104  H49   S    
C39   C48   T    
C152  C160  S    
C122  H109  S    
C91   H140  S    
O61   Zn7   S    
C92   H3    S    
C165  C192  S    
C90   C139  S    
O61   Zn29  S    
C83   H35   S    
C173  C174  S    
C184  C185  S    
C191  O24   A    
C109  H78   S    
C131  H100  S    
C60   C69   T    
C126  H114  S    
O100  Zn16  S    
C129  H116  S    
C25   O48   A    
C35   O4    A    
C16   O40   A    
O37   Zn24  S    
O79   Zn27  S    
O73   Zn30  S    
C141  C182  S    
C123  H93   S    
C26   C34   S    
C80   C147  S    
C11   O88   A    
C125  C128  S    
C29   O62   A    
C31   O74   A    
C12   O36   A    
O14   Zn27  S    
C88   H132  S    
O17   Zn20  S    
O99   Zn15  S    
C42   C51   T    
C155  C173  T    
H48   N8    S    
C74   C142  S    
C88   H130  S    
C128  H115  S    
C149  O99   A    
C16   C159  S    
O54   Zn22  S    
C124  C142  S    
C159  C177  T    
O59   Zn3   S    
C12   O89   A    
C101  C140  S    
C120  C122  S    
H12   N15   S    
C131  H118  S    
C57   C143  S    
O83   Zn22  S    
C192  O78   A    
C103  N7    S    
O57   Zn26  S    
O103  Zn19  S    
C88   N9    S    
O35   Zn21  S    
C10   C156  S    
C15   O38   A    
C21   O57   A    
C134  C136  S    
O50   Zn26  S    
H142  N12   S    
O39   Zn18  S    
O42   Zn10  S    
C49   C58   S    
O41   Zn9   S    
C188  C189  S    
C1    O93   A    
H138  N11   S    
C29   C38   S    
O34   Zn20  S    
H30   N4    S    
C53   C62   T    
C105  O95   A    
C135  H122  S    
C5    C170  S    
H8    N14   S    
C55   C64   T    
C106  N11   S    
C131  C148  S    
C85   C153  S    
C107  C142  S    
O13   Zn5   S    
C108  N13   S    
C162  C179  T    
C82   C150  S    
O30   Zn16  S    
O44   Zn13  S    
C157  C175  T    
C84   C152  S    
O5    Zn24  S    
C158  C176  T    
C128  H97   S    
C45   C54   S    
C72   H68   S    
O65   Zn6   S    
O91   Zn7   S    
C77   C145  S    
C104  N8    S    
C47   C55   S    
C73   H58   S    
C18   O42   A    
C167  C190  S    
C99   H32   S    
O78   Zn23  S    
O45   Zn14  S    
O98   Zn14  S    
O69   Zn12  S    
C56   C65   T    
C46   O20   A    
C13   O16   A    
C80   H2    S    
C81   H65   S    
C135  C153  S    
C2    C140  S    
C93   H6    S    
O48   Zn17  S    
O33   Zn19  S    
H125  N1    S    
C10   O87   A    
C115  H85   S    
C190  O23   A    
C33   O71   A    
C122  H92   S    
C95   H14   S    
O21   Zn29  S    
C132  H102  S    
C117  C152  S    
C111  H81   S    
C27   O59   A    
C30   O63   A    
C46   O5    A    
O28   Zn19  S    
C163  C180  T    
C89   H136  S    
C70   C72   S    
C94   H11   S    
C6    C169  S    
C19   O51   A    
C107  N12   S    
O47   Zn16  S    
C129  C131  S    
C130  H117  S    
