data_mof_unit_22245.cif
_audit_creation_date              2013-03-05T16:04:28-0500
_audit_creation_method            fapswitch 2.2
_symmetry_space_group_name_H-M    P1
_symmetry_Int_Tables_number       1
_space_group_crystal_system       triclinic
_cell_length_a                    10.930876
_cell_length_b                    9.574621
_cell_length_c                    15.012759
_cell_angle_alpha                 90.014838
_cell_angle_beta                  92.195471
_cell_angle_gamma                 90.101987
_cell_volume                      1570.06433825

loop_
_atom_site_label
_atom_site_type_symbol
_atom_site_description
_atom_site_fract_x
_atom_site_fract_y
_atom_site_fract_z
_atom_type_partial_charge
O1    O     O_R   0.319640 0.618740 0.499990 -0.512690
O2    O     O_R   0.680360 0.381260 0.500010 -0.512689
O3    O     O_R   0.680360 0.618740 0.500010 -0.515481
O4    O     O_R   0.319640 0.381260 0.499990 -0.515482
C1    C     C_R   0.262579 0.499913 0.505677 0.883092
C2    C     C_R   0.737421 0.500087 0.494323 0.883099
O5    O     O_R   0.499970 0.618800 0.370260 -0.541602
O6    O     O_R   0.500030 0.381200 0.629740 -0.541602
O7    O     O_R   0.500030 0.618800 0.629740 -0.547877
O8    O     O_R   0.499970 0.381200 0.370260 -0.547876
C3    C     C_R   0.498278 0.499943 0.329201 0.802965
C4    C     C_R   0.501721 0.500057 0.670799 0.802970
Cu1   Cu    Cu3+1 0.500000 0.640660 0.500000 1.101521
Cu2   Cu    Cu3+1 0.500000 0.359340 0.500000 1.101521
C5    C     C_R   0.618064 0.476014 0.816429 0.125834
C6    C     C_R   0.381926 0.523978 0.183572 0.125839
C7    C     C_R   0.507431 0.500418 0.767266 -0.019210
C8    C     C_R   0.492563 0.499581 0.232734 -0.019205
C9    C     C_R   0.399543 0.528683 0.809141 -0.247042
C10   C     C_R   0.600449 0.471315 0.190858 -0.247045
C11   C     C_R   0.397681 0.533423 0.901215 0.080226
C12   C     C_R   0.602307 0.466570 0.098784 0.080231
C13   C     C_R   0.503255 0.499040 0.953100 -0.002821
C14   C     C_R   0.496732 0.500952 0.046900 -0.002824
C15   C     C_R   0.614555 0.462672 0.911181 0.091608
C16   C     C_R   0.385430 0.537316 0.088819 0.091598
C17   C     C_R   0.291001 0.575772 0.941054 -0.168815
C18   C     C_R   0.708984 0.424210 0.058945 -0.168819
C19   C     C_R   0.284277 0.584544 0.033551 0.154037
C20   C     C_R   0.715704 0.415431 0.966448 0.154014
H1    H     H_    0.316987 0.551099 0.769134 0.148365
H2    H     H_    0.683007 0.448900 0.230864 0.148364
H3    H     H_    0.212888 0.607245 0.898980 0.156180
H4    H     H_    0.787096 0.392729 0.101017 0.156182
C21   C     C_R   0.062781 0.372182 0.507695 0.324374
C22   C     C_R   0.937219 0.627818 0.492305 0.324373
C23   C     C_R   0.936706 0.372419 0.491111 0.322798
C24   C     C_R   0.063293 0.627581 0.508888 0.322800
C25   C     C_R   0.871668 0.500171 0.489805 -0.384554
C26   C     C_R   0.128332 0.499829 0.510195 -0.384554
C27   C     C_R   0.425509 0.073986 0.441244 0.406987
C28   C     C_R   0.574491 0.926014 0.558755 0.406988
C29   C     C_R   0.574528 0.074251 0.558714 0.409452
C30   C     C_R   0.425472 0.925749 0.441285 0.409450
N1    N     N_R   0.500000 0.852070 0.500000 -0.286325
N2    N     N_R   0.500000 0.147930 0.500000 -0.286324
C31   C     C_3   0.737489 0.485010 0.768141 -0.739970
H5    H     H_    0.801983 0.556091 0.804693 0.234803
H6    H     H_    0.777643 0.380320 0.758738 0.262369
H7    H     H_    0.726525 0.531637 0.700792 0.235841
C32   C     C_3   0.262505 0.514981 0.231865 -0.739942
H8    H     H_    0.198023 0.443870 0.195326 0.234806
H9    H     H_    0.273477 0.468387 0.299223 0.235828
H10   H     H_    0.222337 0.619667 0.241251 0.262359
C33   C     C_3   0.173924 0.660033 0.067574 -0.802216
H11   H     H_    0.121761 0.714872 0.013089 0.232043
H12   H     H_    0.108562 0.586236 0.096859 0.231616
H13   H     H_    0.203604 0.742712 0.115503 0.263261
C34   C     C_3   0.826037 0.339908 0.932423 -0.802214
H14   H     H_    0.878171 0.285032 0.986904 0.232055
H15   H     H_    0.796336 0.257258 0.884481 0.263269
H16   H     H_    0.891424 0.413689 0.903150 0.231619
Cl1   Cl    Cl    0.131979 0.208749 0.534239 -0.381994
Cl2   Cl    Cl    0.868021 0.791251 0.465761 -0.381994
Cl3   Cl    Cl    0.866816 0.209623 0.462995 -0.387941
Cl4   Cl    Cl    0.133184 0.790377 0.537005 -0.387940
Cl5   Cl    Cl    0.327579 0.161435 0.363748 -0.456753
Cl6   Cl    Cl    0.672421 0.838565 0.636251 -0.456754
Cl7   Cl    Cl    0.672820 0.161989 0.635919 -0.472097
Cl8   Cl    Cl    0.327180 0.838010 0.364080 -0.472084

loop_
_geom_bond_atom_site_label_1
_geom_bond_atom_site_label_2
_geom_bond_distance
_ccdc_geom_bond_type
C4    C7    1.447200 S    
C24   C26   1.415630 A    
C13   C14   1.412844 A    
C3    C8    1.447200 S    
C30   Cl8   1.761916 S    
C9    C11   1.383948 A    
C18   C20   1.395896 A    
C28   Cl6   1.763175 S    
O6    C4    1.293857 A    
C17   C19   1.395904 A    
C19   C33   1.512770 S    
C6    C8    1.412276 A    
C31   H5    1.108940 S    
O3    Cu1   1.982997 S    
C6    C32   1.519608 S    
C5    C31   1.519612 S    
C27   N2    1.372920 A    
C32   H10   1.106137 S    
C9    H1    1.086448 S    
C20   C34   1.512764 S    
O3    C2    1.301351 A    
C33   H11   1.111486 S    
C22   C24   1.390996 A    
C21   C26   1.415386 A    
C11   C17   1.391740 A    
C18   H4    1.085601 S    
C34   H14   1.111471 S    
C23   C25   1.415630 A    
C33   H12   1.107001 S    
C12   C18   1.391740 A    
Cu1   Cu2   2.693532 S    
C17   H3    1.085600 S    
O5    C3    1.293858 A    
C29   N2    1.373190 A    
O2    C2    1.300897 A    
C10   H2    1.086451 S    
O1    C1    1.300898 A    
C31   H6    1.106142 S    
C34   H15   1.109301 S    
C7    C9    1.384584 A    
C10   C12   1.383941 A    
C31   H7    1.107754 S    
C8    C10   1.384577 A    
C11   C13   1.406946 A    
C27   Cl5   1.763174 S    
O4    Cu2   1.982998 S    
O2    Cu2   1.982254 S    
O7    C4    1.293229 A    
C12   C14   1.406951 A    
C5    C15   1.430213 A    
O1    Cu1   1.982255 S    
O8    C3    1.293229 A    
C32   H8    1.108949 S    
C27   C30   1.419317 A    
O5    Cu1   1.958902 S    
C13   C15   1.434393 A    
C30   N1    1.373192 A    
Cu1   N1    2.024171 S    
C16   C19   1.430797 A    
Cu2   N2    2.024172 S    
C28   C29   1.419316 A    
C1    C26   1.471600 S    
C15   C20   1.430780 A    
C5    C7    1.412268 A    
C33   H13   1.109311 S    
C2    C25   1.471601 S    
C34   H16   1.106993 S    
O7    Cu1   1.959010 S    
O6    Cu2   1.958902 S    
C21   C23   1.390996 A    
C22   Cl2   1.777930 S    
O8    Cu2   1.959010 S    
C21   Cl1   1.777929 S    
C28   N1    1.372917 A    
C22   C25   1.415385 A    
C24   Cl4   1.778229 S    
C29   Cl7   1.761914 S    
C14   C16   1.434398 A    
O4    C1    1.301350 A    
C32   H9    1.107756 S    
C6    C16   1.430224 A    
C23   Cl3   1.778229 S    
