data_mof_unit_23664.cif
_audit_creation_date              2013-03-05T16:34:03-0500
_audit_creation_method            fapswitch 2.2
_symmetry_space_group_name_H-M    P1
_symmetry_Int_Tables_number       1
_space_group_crystal_system       triclinic
_cell_length_a                    9.590187
_cell_length_b                    10.844914
_cell_length_c                    16.962986
_cell_angle_alpha                 88.771427
_cell_angle_beta                  95.081941
_cell_angle_gamma                 90.365813
_cell_volume                      1756.87424512

loop_
_atom_site_label
_atom_site_type_symbol
_atom_site_description
_atom_site_fract_x
_atom_site_fract_y
_atom_site_fract_z
_atom_type_partial_charge
O1    O     O_R   0.618810 0.319640 0.500000 -0.523732
O2    O     O_R   0.381230 0.319680 0.499990 -0.576422
C1    C     C_R   0.499915 0.262433 0.501544 0.859723
O3    O     O_R   0.631790 0.498830 0.613930 -0.511617
O4    O     O_R   0.394210 0.498870 0.613920 -0.607685
C2    C     C_R   0.518684 0.501614 0.651035 0.866166
Cu1   Cu    Cu3+1 0.640670 0.499980 0.500000 1.094547
Cu2   Cu    Cu3+1 0.359330 0.500020 0.500000 1.011327
O5    O     O_R   0.618770 0.680320 0.500010 -0.574011
O6    O     O_R   0.381190 0.680360 0.500000 -0.605708
O7    O     O_R   0.605790 0.501130 0.386080 -0.545179
O8    O     O_R   0.368210 0.501170 0.386070 -0.548036
C3    C     C_R   0.500445 0.737601 0.501664 0.822223
C4    C     C_R   0.481543 0.501260 0.349217 0.875944
C5    C     C_R   0.530442 0.504439 0.737830 -0.138619
C6    C     C_R   0.430916 0.438140 0.777601 -0.248041
C7    C     C_R   0.436939 0.436393 0.859677 -0.082562
C8    C     C_R   0.543641 0.500676 0.903878 0.321045
C9    C     C_R   0.645220 0.564447 0.864867 -0.201616
C10   C     C_R   0.637834 0.570703 0.781866 0.329817
C11   C     C_R   0.505629 0.393804 0.140639 0.252672
C12   C     C_R   0.518309 0.395459 0.224003 0.263547
C13   C     C_R   0.445876 0.496513 0.097682 0.227741
N1    N     N_2   0.551938 0.501797 0.987618 -0.162751
N2    N     N_2   0.434850 0.500628 0.014257 -0.187810
C14   C     C_R   0.469468 0.497840 0.263011 -0.144181
H1    H     H_    0.726189 0.614787 0.899498 0.204066
C15   C     C_R   0.410919 0.598450 0.219552 -0.130026
C16   C     C_R   0.397548 0.597067 0.137345 -0.125088
H2    H     H_    0.377087 0.678668 0.249490 0.201396
H3    H     H_    0.359000 0.383936 0.888720 0.204899
H4    H     H_    0.352156 0.675690 0.104229 0.202872
H5    H     H_    0.348463 0.386540 0.744991 0.189150
C17   C     C_R   0.626563 0.064504 0.511423 0.135951
C18   C     C_R   0.500703 0.129096 0.509354 -0.134307
C19   C     C_R   0.376327 0.063108 0.518695 -0.141902
H6    H     H_    0.277865 0.110323 0.521907 0.207922
C20   C     C_R   0.376672 0.934418 0.518991 -0.166747
H7    H     H_    0.278321 0.885724 0.522245 0.179207
C21   C     C_R   0.501443 0.870622 0.510071 -0.075279
C22   C     C_R   0.626691 0.937228 0.512032 0.108686
C23   C     C_3   0.740616 0.932424 0.457886 -0.505608
C24   C     C_3   0.739077 0.072010 0.455755 0.252314
H8    H     H_    0.837810 0.892913 0.488666 0.235506
H9    H     H_    0.705290 0.891763 0.399853 0.212117
H10   H     H_    0.702797 0.112174 0.396903 0.198617
C25   C     C_R   0.062931 0.527528 0.432221 0.193085
N3    N     N_R   0.147870 0.500930 0.499500 -0.242932
C26   C     C_R   0.085280 0.458247 0.563634 -0.078616
H11   H     H_    0.149283 0.424190 0.615040 0.178729
C27   C     C_R   0.937362 0.456294 0.564017 0.446369
N4    N     N_R   0.851960 0.500890 0.499500 -0.269310
C28   C     C_R   0.915749 0.528264 0.432528 0.145715
C29   C     C_3   0.903062 0.646010 0.385493 0.048616
C30   C     C_3   0.062172 0.644702 0.383588 0.029432
H12   H     H_    0.865620 0.722459 0.419713 0.084379
H13   H     H_    0.117625 0.721963 0.415301 0.097750
N5    N     N_R   0.572550 0.290601 0.269031 0.138232
O9    O     O_R   0.488160 0.219385 0.305402 -0.377208
O10   O     O_R   0.707188 0.276994 0.283092 -0.261141
Cl1   Cl    Cl    0.898416 0.137002 0.499215 -0.524883
N6    N     N_R   0.881022 0.405394 0.633018 0.145306
O11   O     O_R   0.805336 0.305618 0.627629 -0.288374
O12   O     O_R   0.934656 0.437933 0.702659 -0.331055
N7    N     N_R   0.823469 0.632357 0.308253 0.197174
O13   O     O_R   0.741118 0.720749 0.280233 -0.339432
O14   O     O_R   0.828723 0.531179 0.268680 -0.246588
N8    N     N_R   0.106477 0.628410 0.304032 0.171962
O15   O     O_R   0.108155 0.723511 0.256079 -0.303274
O16   O     O_R   0.127319 0.518998 0.277249 -0.278035
N9    N     N_R   0.546796 0.286855 0.099763 0.162963
O17   O     O_R   0.467320 0.244938 0.040005 -0.303113
O18   O     O_R   0.664520 0.231632 0.121234 -0.226871
N10   N     N_R   0.733535 0.650525 0.744137 0.153646
O19   O     O_R   0.858307 0.670559 0.778287 -0.284082
O20   O     O_R   0.688773 0.720275 0.683918 -0.358970

loop_
_geom_bond_atom_site_label_1
_geom_bond_atom_site_label_2
_geom_bond_distance
_ccdc_geom_bond_type
C21   C22   1.395896 A    
C22   C23   1.490151 S    
C9    C10   1.403649 A    
C30   N8    1.464830 S    
Cu1   Cu2   2.698106 S    
C29   N7    1.466614 S    
C28   C29   1.490991 S    
Cu1   O7    1.931531 S    
C17   C22   1.380117 A    
N10   O20   1.301248 A    
C11   N9    1.439007 S    
C8    N1    1.415953 S    
C13   C16   1.396356 A    
C15   C16   1.389401 A    
Cu1   N4    2.027040 S    
C17   C18   1.396804 A    
C16   H4    1.083043 S    
O4    C2    1.299796 A    
O7    C4    1.295677 A    
N5    O10   1.300857 A    
C5    C6    1.402713 A    
C8    C9    1.396850 A    
O5    C3    1.299904 A    
C3    C21   1.452564 S    
N6    O12   1.300974 A    
C2    C5    1.467589 S    
C18   C19   1.406313 A    
C6    C7    1.388059 A    
N7    O14   1.302087 A    
C9    H1    1.083330 S    
C25   C28   1.412047 A    
C11   C12   1.409049 A    
C27   N6    1.430788 S    
C23   H8    1.110997 S    
O3    Cu1   1.941759 S    
C11   C13   1.414007 A    
C5    C10   1.418594 A    
C29   H12   1.102102 S    
N10   O19   1.301486 A    
C27   N4    1.387796 A    
N1    N2    1.246883 D    
O3    C2    1.302246 A    
N9    O18   1.300916 A    
N8    O15   1.300671 A    
C26   C27   1.419168 A    
N5    O9    1.300833 A    
O1    C1    1.296630 A    
C23   H9    1.111710 S    
Cu2   N3    2.027292 S    
N6    O11   1.299428 A    
C6    H5    1.083767 S    
C25   N3    1.368727 A    
C1    C18   1.449267 S    
Cu2   O8    1.941760 S    
C7    C8    1.404523 A    
C10   N10   1.439258 S    
C4    C14   1.457877 S    
N8    O16   1.302501 A    
N3    C26   1.359655 A    
O8    C4    1.300945 A    
N7    O13   1.300837 A    
C30   H13   1.112297 S    
C7    H3    1.082973 S    
C23   C24   1.513595 S    
N4    C28   1.363562 A    
C24   Cl1   1.784459 S    
C25   C30   1.499822 S    
Cu1   O5    1.968354 S    
C29   C30   1.529263 S    
C19   H6    1.083174 S    
O1    Cu1   1.965644 S    
O2    Cu2   1.968355 S    
C17   C24   1.496233 S    
O6    C3    1.296197 A    
C12   N5    1.430759 S    
O4    Cu2   1.931531 S    
C14   C15   1.396150 A    
C15   H2    1.082464 S    
O2    C1    1.297947 A    
N9    O17   1.301366 A    
C20   C21   1.407294 A    
C20   H7    1.083127 S    
C19   C20   1.395559 A    
C13   N2    1.409481 S    
C24   H10   1.108681 S    
Cu2   O6    1.965644 S    
C26   H11   1.080654 S    
C12   C14   1.408219 A    
