data_mof_unit_49258.cif
_audit_creation_date              2013-03-05T15:51:22-0500
_audit_creation_method            fapswitch 2.2
_symmetry_space_group_name_H-M    P1
_symmetry_Int_Tables_number       1
_space_group_crystal_system       triclinic
_cell_length_a                    10.769401
_cell_length_b                    10.865015
_cell_length_c                    9.602062
_cell_angle_alpha                 90.176559
_cell_angle_beta                  89.387859
_cell_angle_gamma                 92.325486
_cell_volume                      1122.54112214

loop_
_atom_site_label
_atom_site_type_symbol
_atom_site_description
_atom_site_fract_x
_atom_site_fract_y
_atom_site_fract_z
_atom_type_partial_charge
O1    O     O_R   0.499990 0.319640 0.618810 -0.554977
O2    O     O_R   0.500000 0.319660 0.381240 -0.573194
C1    C     C_R   0.506797 0.262753 0.500355 0.877953
O3    O     O_R   0.317680 0.499970 0.618790 -0.558069
O4    O     O_R   0.317700 0.499990 0.381210 -0.592788
C2    C     C_R   0.260141 0.500432 0.500434 0.796274
Cu1   Cu    Cu3+1 0.499990 0.499990 0.640660 0.978740
Cu2   Cu    Cu3+1 0.500010 0.500010 0.359340 0.975911
O5    O     O_R   0.500000 0.680340 0.618760 -0.622976
O6    O     O_R   0.500010 0.680360 0.381190 -0.609165
O7    O     O_R   0.682300 0.500010 0.618790 -0.610422
O8    O     O_R   0.682320 0.500030 0.381210 -0.558403
C3    C     C_R   0.492646 0.737399 0.501585 0.768027
C4    C     C_R   0.739997 0.496980 0.499336 0.809553
C5    C     C_3   0.068430 0.476609 0.648515 -0.301112
H1    H     H_    0.109401 0.544924 0.723390 0.204790
H2    H     H_    0.091367 0.382845 0.683032 0.263176
C6    C     C_3   0.927034 0.486766 0.649983 -0.394726
H3    H     H_    0.883479 0.406976 0.707269 0.233023
H4    H     H_    0.902681 0.570979 0.709043 0.190340
H5    H     H_    0.108471 0.698804 0.514486 0.173795
H6    H     H_    0.897258 0.695864 0.497902 0.165012
C7    C     C_3   0.076599 0.622280 0.444473 -0.374324
C8    C     C_3   0.072584 0.394373 0.401690 -0.422607
C9    C     C_3   0.122292 0.498538 0.499722 0.006336
H7    H     H_    0.100343 0.418462 0.292865 0.209441
H8    H     H_    0.121183 0.308113 0.421538 0.189460
C10   C     C_3   0.878392 0.493399 0.497951 -0.033920
C11   C     C_3   0.933312 0.617185 0.437179 -0.422561
C12   C     C_3   0.927629 0.377826 0.414521 0.575534
H9    H     H_    0.116342 0.642174 0.339058 0.195796
H10   H     H_    0.903496 0.631476 0.328582 0.219089
H11   H     H_    0.482364 0.109685 0.281269 0.170187
C13   C     C_R   0.584873 0.120818 0.750396 -0.036686
H12   H     H_    0.634349 0.209262 0.747448 0.180379
C14   C     C_R   0.575080 0.062351 0.879141 -0.119746
H13   H     H_    0.611398 0.107727 0.971546 0.162177
C15   C     C_R   0.513633 0.947986 0.889441 -0.132824
H14   H     H_    0.498798 0.905462 0.990426 0.138976
C16   C     C_R   0.474129 0.886590 0.769150 -0.148608
H15   H     H_    0.421908 0.800850 0.784490 0.169642
C17   C     C_R   0.497015 0.938754 0.635363 0.075210
C18   C     C_R   0.533498 0.064489 0.629314 0.120647
C19   C     C_R   0.515909 0.128732 0.502895 -0.048285
C20   C     C_R   0.492850 0.062942 0.379707 -0.167053
H16   H     H_    0.473110 0.887496 0.282884 0.162937
C21   C     C_R   0.483810 0.935762 0.381212 -0.205742
C22   C     C_R   0.485920 0.871870 0.507518 -0.107401
H17   H     H_    0.353326 0.369460 0.133490 0.172388
C23   C     C_R   0.667830 0.660284 0.142531 -0.090588
H18   H     H_    0.673666 0.669665 0.252208 0.185676
C24   C     C_R   0.750646 0.738000 0.069807 -0.180622
H19   H     H_    0.814276 0.799645 0.125541 0.161723
C25   C     C_R   0.750842 0.738018 0.926323 -0.187333
H20   H     H_    0.814304 0.800001 0.869722 0.164610
C26   C     C_R   0.668137 0.660416 0.854723 -0.129359
H21   H     H_    0.673263 0.671250 0.745081 0.198343
C27   C     C_R   0.583477 0.577941 0.924417 0.128815
C28   C     C_R   0.583189 0.578079 0.073973 0.212511
N1    N     N_R   0.501200 0.501210 0.147910 -0.226453
C29   C     C_R   0.419558 0.427885 0.076141 -0.100031
C30   C     C_R   0.417561 0.428401 0.928754 0.405384
N2    N     N_R   0.501250 0.501290 0.852040 -0.268869
N3    N     N_R   0.875025 0.368666 0.272709 0.118886
O9    O     O_R   0.899186 0.454177 0.180570 -0.386798
O10   O     O_R   0.811692 0.270180 0.233476 -0.304654
N4    N     N_R   0.319608 0.357816 0.863574 0.128132
O11   O     O_R   0.206325 0.377118 0.903742 -0.395593
O12   O     O_R   0.342737 0.250326 0.812236 -0.355982
N5    N     N_R   0.892368 0.263463 0.492223 0.107675
O13   O     O_R   0.775795 0.232316 0.511186 -0.406890
O14   O     O_R   0.974482 0.194005 0.547116 -0.367783

loop_
_geom_bond_atom_site_label_1
_geom_bond_atom_site_label_2
_geom_bond_distance
_ccdc_geom_bond_type
Cu2   N1    2.030146 S    
C5    C6    1.531107 S    
C23   C24   1.387542 A    
C18   C19   1.420377 A    
C8    C9    1.551945 S    
N5    O13   1.297988 A    
H6    C11   1.113784 S    
C12   N3    1.481927 S    
O4    Cu2   1.972327 S    
C14   H13   1.082761 S    
H11   C20   1.083502 S    
Cu1   O7    1.972327 S    
C21   C22   1.400126 A    
C8    H8    1.109802 S    
Cu2   O8    1.976789 S    
C5    H1    1.113289 S    
N3    O9    1.301596 A    
C29   C30   1.415644 A    
C14   C15   1.387199 A    
O2    C1    1.306000 A    
C24   C25   1.377719 A    
C28   N1    1.382612 A    
N3    O10   1.302272 A    
C17   C22   1.428248 A    
C24   H19   1.083028 S    
C15   C16   1.393850 A    
Cu1   N2    2.029877 S    
C30   N2    1.383318 A    
C30   N4    1.427633 S    
O3    Cu1   1.976789 S    
C23   C28   1.416014 A    
C7    C11   1.544195 S    
C10   C12   1.593257 S    
C16   H15   1.078129 S    
C12   N5    1.485322 S    
O8    C4    1.300154 A    
C23   H18   1.060022 S    
C11   H10   1.107596 S    
C13   C14   1.392670 A    
C7    C9    1.547526 S    
H5    C7    1.113264 S    
O4    C2    1.296098 A    
O7    C4    1.299613 A    
C25   C26   1.387610 A    
C1    C19   1.463707 S    
C5    C9    1.551659 S    
C2    C9    1.483943 S    
H17   C29   1.082574 S    
C17   C18   1.407276 A    
C13   C18   1.419253 A    
C8    C12   1.567717 S    
N4    O11   1.300505 A    
Cu1   O5    1.971397 S    
C16   C17   1.420782 A    
Cu1   Cu2   2.701250 S    
C6    C10   1.559088 S    
C26   H21   1.060317 S    
C6    H4    1.113855 S    
O3    C2    1.300343 A    
C13   H12   1.079999 S    
H16   C21   1.083546 S    
C20   C21   1.381410 A    
N4    O12   1.298624 A    
C27   N2    1.382196 A    
C5    H2    1.110391 S    
C6    H3    1.112907 S    
O5    C3    1.291003 A    
C25   H20   1.083043 S    
C10   C11   1.559505 S    
O1    Cu1   1.970062 S    
N5    O14   1.302277 A    
C4    C10   1.492437 S    
C27   C28   1.436012 A    
C15   H14   1.082905 S    
O6    C3    1.313165 A    
Cu2   O6    1.970062 S    
O2    Cu2   1.971397 S    
C19   C20   1.399449 A    
C8    H7    1.112858 S    
C26   C27   1.416490 A    
N1    C29   1.354758 A    
O1    C1    1.295628 A    
C3    C22   1.466662 S    
C7    H9    1.113123 S    
