data_mof_unit_16382.cif
_audit_creation_date              2012-12-10T19:05:20-0500
_audit_creation_method            fapswitch 2.2
_symmetry_space_group_name_H-M    P1
_symmetry_Int_Tables_number       1
_space_group_crystal_system       triclinic
_cell_length_a                    9.595683
_cell_length_b                    10.840118
_cell_length_c                    17.308163
_cell_angle_alpha                 91.913164
_cell_angle_beta                  86.608496
_cell_angle_gamma                 90.858607
_cell_volume                      1796.05863281

loop_
_atom_site_label
_atom_site_type_symbol
_atom_type_description
_atom_site_fract_x
_atom_site_fract_y
_atom_site_fract_z
_atom_type_partial_charge
C1    C     C_R   0.500542 0.737539 0.501308 0.826698
C2    C     C_R   0.349724 0.461979 0.775768 -0.219527
C3    C     C_R   0.407898 0.496449 0.144950 -0.077200
C4    C     C_R   0.402177 0.498963 0.225209 -0.244928
C5    C     C_R   0.654803 0.510036 0.222952 -0.193184
C6    C     C_R   0.660466 0.509096 0.142312 -0.183225
C7    C     C_R   0.537160 0.499246 0.103229 0.220179
C8    C     C_2   0.472109 0.417437 0.975799 0.399199
C9    C     C_2   0.543804 0.499159 0.018713 -0.321489
C10   C     C_R   0.525394 0.503127 0.265080 -0.020452
C11   C     C_R   0.375363 0.933809 0.500262 0.086013
C12   C     C_R   0.482694 0.496808 0.649786 0.785911
C13   C     C_R   0.499845 0.871112 0.507179 -0.075219
C14   C     C_R   0.622194 0.939230 0.520184 -0.187277
C15   C     C_R   0.621086 0.067580 0.519758 -0.225197
C16   C     C_R   0.498403 0.129262 0.504237 -0.051418
C17   C     C_R   0.375056 0.060890 0.496871 0.043182
C18   C     C_3   0.276839 0.056774 0.432455 0.271499
C19   C     C_3   0.274274 0.916887 0.438556 -0.506793
C20   C     C_R   0.928864 0.407007 0.463318 0.189554
C21   C     C_R   0.922608 0.582331 0.545676 0.225003
C22   C     C_R   0.072401 0.583878 0.545102 0.456831
C23   C     C_R   0.499343 0.262437 0.499724 0.823915
C24   C     C_R   0.075598 0.407074 0.463376 0.152871
C25   C     C_3   0.088422 0.373088 0.379399 -0.481162
C26   C     C_3   0.930581 0.370766 0.379694 -0.471775
C27   C     C_R   0.517606 0.501107 0.349993 0.793626
C28   C     C_R   0.477267 0.481357 0.733630 -0.027539
C29   C     C_R   0.602748 0.477295 0.771337 -0.136816
C30   C     C_R   0.601007 0.453667 0.849541 -0.222356
C31   C     C_R   0.473803 0.435468 0.891671 0.053357
C32   C     C_R   0.348094 0.440079 0.854681 -0.164138
Cu1   Cu    Cu3+1 0.359330 0.500020 0.500000 0.979376
Cu2   Cu    Cu3+1 0.640670 0.499980 0.500000 0.982622
H1    H     H_    0.702944 0.490634 0.740346 0.171494
H2    H     H_    0.760849 0.514380 0.110388 0.128538
H3    H     H_    0.719982 0.894205 0.527217 0.205976
H4    H     H_    0.717687 0.117781 0.528369 0.164610
H5    H     H_    0.176252 0.102930 0.449516 0.075297
H6    H     H_    0.171904 0.880315 0.461751 0.200345
H7    H     H_    0.320126 0.864991 0.386928 0.191175
H8    H     H_    0.135784 0.448300 0.344564 0.204739
H9    H     H_    0.300985 0.497737 0.255656 0.140920
H10   H     H_    0.135545 0.281457 0.368800 0.212459
H11   H     H_    0.889720 0.443597 0.344079 0.208822
H12   H     H_    0.885822 0.276784 0.369794 0.194471
H13   H     H_    0.751337 0.516864 0.251975 0.140847
H14   H     H_    0.610562 0.568735 0.991014 0.121499
H15   H     H_    0.249084 0.427117 0.886997 0.140640
H16   H     H_    0.311344 0.494150 0.115481 0.153634
H17   H     H_    0.251741 0.462223 0.747839 0.132164
H18   H     H_    0.699061 0.449417 0.877265 0.127022
N1    N     N_R   0.852130 0.499070 0.499500 -0.222330
N2    N     N_R   0.148040 0.499110 0.499500 -0.239328
O1    O     O_R   0.381190 0.680360 0.500000 -0.530227
O2    O     O_R   0.618770 0.680320 0.499990 -0.545344
O3    O     O_R   0.367430 0.500040 0.613600 -0.601958
O4    O     O_R   0.605020 0.500000 0.613590 -0.547626
O5    O     O_R   0.381230 0.319680 0.500010 -0.577331
O6    O     O_R   0.618810 0.319640 0.500000 -0.590545
O7    O     O_R   0.394980 0.500000 0.386410 -0.585383
O8    O     O_R   0.632570 0.499960 0.386400 -0.587762
O9    O     O_3   0.344514 0.097926 0.362933 -0.554754
C33   C     C_3   0.260617 0.072147 0.299735 0.054547
H19   H     H_    0.147032 0.084441 0.314895 0.119956
H20   H     H_    0.277210 0.975672 0.277793 0.153543
C34   C     C_3   0.303813 0.158181 0.234722 -0.757524
H21   H     H_    0.414597 0.142674 0.215023 0.252792
H22   H     H_    0.236672 0.140528 0.185413 0.202848
H23   H     H_    0.291879 0.255690 0.255095 0.249092
Br1   Br    Br    0.821448 0.699757 0.612031 -0.576393
O10   O     O_3   0.141827 0.684871 0.577078 -0.546213
C35   C     C_3   0.135876 0.685520 0.659128 0.121890
H24   H     H_    0.234793 0.651754 0.679037 0.165814
H25   H     H_    0.050554 0.627521 0.685919 0.127172
C36   C     C_3   0.124313 0.818200 0.690658 -0.774354
H26   H     H_    0.029873 0.862499 0.670975 0.276732
H27   H     H_    0.118654 0.819541 0.754950 0.197828
H28   H     H_    0.217495 0.872616 0.670080 0.236972
O11   O     O_3   0.390983 0.325583 0.011659 -0.582564
C37   C     C_3   0.402836 0.212536 0.968676 0.087665
H29   H     H_    0.513385 0.193132 0.948947 0.140148
H30   H     H_    0.337657 0.213269 0.917726 0.148773
C38   C     C_3   0.350465 0.107710 0.019295 -0.808762
H31   H     H_    0.240337 0.123658 0.040159 0.245966
H32   H     H_    0.356174 0.018971 0.985364 0.202175
H33   H     H_    0.416316 0.101613 0.069595 0.249689

loop_
_geom_bond_atom_site_label_1
_geom_bond_atom_site_label_2
_ccdc_geom_bond_type
C10   C27   S    
Cu1   O1    S    
Cu2   O2    S    
C35   H24   S    
C36   H28   S    
C37   H29   S    
C22   N2    A    
C23   O5    A    
C5    H13   S    
C11   C19   S    
C12   C28   S    
C28   C29   A    
C1    O2    A    
C38   H32   S    
C3    C7    A    
C5    C6    A    
O11   C37   S    
C18   O9    S    
C16   C17   A    
C24   N2    A    
C15   C16   A    
Cu2   O8    S    
C2    C32   A    
C18   C19   S    
C27   O7    A    
C26   H11   S    
C38   H31   S    
C20   C24   A    
C8    C9    D    
C38   H33   S    
C12   O4    A    
Cu1   O5    S    
C13   C14   A    
Cu2   O6    S    
C35   H25   S    
C25   H10   S    
C22   O10   S    
C37   H30   S    
C3    H16   S    
C17   C18   S    
C23   O6    A    
C34   H21   S    
C33   C34   S    
C24   C25   S    
C2    H17   S    
C20   N1    A    
C25   C26   S    
C34   H22   S    
C33   H20   S    
C18   H5    S    
C15   H4    S    
C29   C30   A    
C27   O8    A    
C31   C32   A    
Cu1   Cu2   S    
C36   H26   S    
Cu2   N1    S    
C12   O3    A    
C21   Br1   S    
C16   C23   S    
C35   C36   S    
C1    C13   S    
C4    C10   A    
C3    C4    A    
C37   C38   S    
Cu2   O4    S    
Cu1   N2    S    
C7    C9    S    
C30   H18   S    
C11   C17   A    
Cu1   O3    S    
C8    C31   S    
C36   H27   S    
O10   C35   S    
C25   H8    S    
C6    C7    A    
C4    H9    S    
C29   H1    S    
C34   H23   S    
C33   H19   S    
C1    O1    A    
C5    C10   A    
C14   H3    S    
C21   N1    A    
C11   C13   A    
C30   C31   A    
C20   C26   S    
C6    H2    S    
C32   H15   S    
C19   H6    S    
C26   H12   S    
O9    C33   S    
C9    H14   S    
Cu1   O7    S    
C8    O11   S    
C14   C15   A    
C2    C28   A    
C21   C22   A    
C19   H7    S    
