data_mof_unit_37300.cif
_audit_creation_date              2012-12-11T14:41:06-0500
_audit_creation_method            fapswitch 2.2
_symmetry_space_group_name_H-M    P1
_symmetry_Int_Tables_number       1
_space_group_crystal_system       triclinic
_cell_length_a                    24.585852
_cell_length_b                    17.402037
_cell_length_c                    15.547658
_cell_angle_alpha                 90.030939
_cell_angle_beta                  129.382561
_cell_angle_gamma                 89.984655
_cell_volume                      5141.48520685

loop_
_atom_site_label
_atom_site_type_symbol
_atom_type_description
_atom_site_fract_x
_atom_site_fract_y
_atom_site_fract_z
_atom_type_partial_charge
C1    C     C_R   0.333018 0.393775 0.197267 0.682893
C2    C     C_R   0.686667 0.612146 0.502798 -0.011653
C3    C     C_R   0.142342 0.815759 0.500537 -0.042826
C4    C     C_R   0.186667 0.112146 0.502798 -0.011653
C5    C     C_R   0.358191 0.319130 0.503837 0.101386
C6    C     C_R   0.318242 0.617607 0.500621 0.150077
C7    C     C_R   0.858191 0.819130 0.503837 0.101386
C8    C     C_R   0.818242 0.117608 0.500620 0.150081
C9    C     C_3   0.348580 0.238330 0.627116 0.640901
C10   C     C_3   0.267694 0.644444 0.595549 0.752491
C11   C     C_3   0.848580 0.738330 0.627116 0.640901
C12   C     C_R   0.348427 0.638765 0.235559 0.709094
C13   C     C_3   0.767694 0.144444 0.595548 0.752492
C14   C     C_3   0.803453 0.677177 0.624999 -0.463090
C15   C     C_3   0.716752 0.198288 0.592522 -0.555633
C16   C     C_3   0.303453 0.177177 0.624999 -0.463091
C17   C     C_3   0.216754 0.698289 0.592525 -0.555630
C18   C     C_3   0.241476 0.295775 0.446297 0.732703
C19   C     C_3   0.193175 0.660871 0.386799 0.679401
C20   C     C_3   0.741476 0.795775 0.446297 0.732701
C21   C     C_3   0.693175 0.160872 0.386798 0.679400
C22   C     C_3   0.308292 0.187185 0.442283 0.429880
C23   C     C_R   0.833017 0.893775 0.197267 0.682893
C24   C     C_3   0.296101 0.749848 0.516535 0.383504
C25   C     C_3   0.808292 0.687185 0.442283 0.429880
C26   C     C_3   0.796100 0.249848 0.516535 0.383501
C27   C     C_3   0.315796 0.260831 0.505782 -0.241225
C28   C     C_3   0.269337 0.666005 0.500193 -0.255258
C29   C     C_3   0.815796 0.760831 0.505782 -0.241224
C30   C     C_3   0.769337 0.166006 0.500192 -0.255257
C31   C     C_3   0.735275 0.662442 0.503633 0.083076
C32   C     C_3   0.686460 0.259526 0.499096 0.129319
C33   C     C_3   0.235275 0.162442 0.503633 0.083076
C34   C     C_R   0.848426 0.138765 0.235559 0.709094
C35   C     C_3   0.186460 0.759525 0.499096 0.129324
C36   C     C_3   0.696744 0.740633 0.453909 -0.544992
C37   C     C_3   0.644031 0.214731 0.387127 -0.538635
C38   C     C_3   0.196744 0.240633 0.453909 -0.544993
C39   C     C_3   0.144030 0.714728 0.387129 -0.538623
C40   C     C_R   0.668177 0.396729 0.803276 -0.021810
C41   C     C_R   0.649773 0.639705 0.755299 -0.111279
C42   C     C_R   0.168177 0.896729 0.803276 -0.021810
C43   C     C_R   0.149773 0.139705 0.755299 -0.111278
C44   C     C_3   0.758370 0.628905 0.437693 -0.264464
C45   C     C_R   0.648211 0.377557 0.866037 0.103901
C46   C     C_3   0.748448 0.304969 0.518887 -0.251608
C47   C     C_3   0.258370 0.128905 0.437693 -0.264464
C48   C     C_3   0.248446 0.804970 0.518882 -0.251609
C49   C     C_2   0.694634 0.351143 0.981681 -0.173550
C50   C     C_2   0.641148 0.755778 0.845557 -0.161753
C51   C     C_2   0.194633 0.851143 0.981681 -0.173550
C52   C     C_2   0.141148 0.255778 0.845557 -0.161753
C53   C     C_2   0.764395 0.350407 0.040835 -0.143066
C54   C     C_2   0.693898 0.794315 0.861077 -0.132731
C55   C     C_2   0.264395 0.850407 0.040835 -0.143066
C56   C     C_R   0.616819 0.682217 0.786326 0.117075
C57   C     C_2   0.193898 0.294315 0.861077 -0.132731
C58   C     C_2   0.350521 0.750170 0.132112 -0.137100
C59   C     C_2   0.304772 0.349274 0.015494 -0.170124
C60   C     C_2   0.850521 0.250170 0.132112 -0.137100
C61   C     C_2   0.804772 0.849274 0.015494 -0.170125
C62   C     C_2   0.306338 0.795632 0.131244 -0.048001
C63   C     C_2   0.234656 0.348607 0.953153 -0.044191
C64   C     C_2   0.806338 0.295632 0.131243 -0.048002
C65   C     C_2   0.734656 0.848607 0.953153 -0.044191
C66   C     C_R   0.588867 0.357028 0.407666 -0.216234
C67   C     C_R   0.148211 0.877557 0.866037 0.103901
C68   C     C_R   0.618039 0.597947 0.410127 -0.218094
C69   C     C_R   0.088867 0.857028 0.407666 -0.216229
C70   C     C_R   0.118039 0.097947 0.410127 -0.218093
C71   C     C_R   0.412229 0.360245 0.595212 0.051155
C72   C     C_R   0.386478 0.601889 0.592682 0.019091
C73   C     C_R   0.912229 0.860245 0.595212 0.051155
C74   C     C_R   0.886478 0.101889 0.592682 0.019097
C75   C     C_R   0.665658 0.359531 0.592789 0.701768
C76   C     C_R   0.690564 0.597139 0.593179 0.652741
C77   C     C_R   0.165658 0.859531 0.592789 0.701766
C78   C     C_R   0.116819 0.182217 0.786326 0.117075
C79   C     C_R   0.190564 0.097139 0.593179 0.652741
C80   C     C_R   0.336148 0.358469 0.409052 -0.102824
C81   C     C_R   0.312063 0.601375 0.408440 -0.067702
C82   C     C_R   0.836148 0.858469 0.409052 -0.102825
C83   C     C_R   0.812063 0.101375 0.408440 -0.067704
C84   C     C_R   0.577629 0.394954 0.803258 -0.162466
C85   C     C_R   0.558729 0.640545 0.756354 -0.122271
C86   C     C_R   0.077629 0.894955 0.803258 -0.162467
C87   C     C_R   0.058729 0.140545 0.756354 -0.122271
C88   C     C_R   0.422134 0.394411 0.194564 -0.039656
C89   C     C_R   0.642342 0.315759 0.500537 -0.042819
C90   C     C_R   0.438511 0.639303 0.233908 -0.012201
C91   C     C_R   0.922134 0.894411 0.194564 -0.039657
C92   C     C_R   0.938511 0.139303 0.233908 -0.012200
C93   C     C_R   0.351233 0.376154 0.131516 -0.086872
C94   C     C_R   0.378794 0.680091 0.199231 -0.103263
C95   C     C_R   0.851233 0.876154 0.131516 -0.086873
C96   C     C_R   0.878794 0.180091 0.199230 -0.103264
F1    F     F_    0.266935 0.402420 0.162035 -0.727501
F2    F     F_    0.364670 0.757599 0.615079 -0.690543
F3    F     F_    0.873706 0.653790 0.494898 -0.675799
F4    F     F_    0.864671 0.257599 0.615076 -0.690544
F5    F     F_    0.726074 0.350151 0.698162 -0.741036
F6    F     F_    0.749885 0.580165 0.697384 -0.719755
F7    F     F_    0.226074 0.850152 0.698162 -0.741035
F8    F     F_    0.249885 0.080165 0.697384 -0.719755
F9    F     F_    0.352283 0.301464 0.685461 -0.656280
F10   F     F_    0.247361 0.568545 0.586091 -0.592019
F11   F     F_    0.852283 0.801464 0.685461 -0.656280
F12   F     F_    0.283855 0.650513 0.204989 -0.734683
F13   F     F_    0.747362 0.068545 0.586092 -0.592019
F14   F     F_    0.766935 0.902420 0.162035 -0.727501
F15   F     F_    0.783855 0.150513 0.204989 -0.734683
F16   F     F_    0.245638 0.366175 0.492271 -0.568280
F17   F     F_    0.168082 0.586090 0.365232 -0.594081
F18   F     F_    0.745638 0.866175 0.492271 -0.568279
F19   F     F_    0.668081 0.086092 0.365232 -0.594082
F20   F     F_    0.373706 0.153790 0.494898 -0.675798
H1    H     H_    0.402798 0.215535 0.672389 0.081166
H2    H     H_    0.173000 0.664616 0.577672 0.233655
H3    H     H_    0.790543 0.697998 0.677866 0.245163
H4    H     H_    0.672997 0.164614 0.577664 0.233659
H5    H     H_    0.685736 0.765997 0.507298 0.236915
H6    H     H_    0.600965 0.181415 0.374962 0.238976
H7    H     H_    0.185736 0.265997 0.507298 0.236915
H8    H     H_    0.100966 0.681411 0.374968 0.238975
H9    H     H_    0.787239 0.702813 0.356714 0.057753
H10   H     H_    0.796647 0.265006 0.447464 0.079938
H11   H     H_    0.287239 0.202813 0.356714 0.057753
H12   H     H_    0.320918 0.651071 0.677687 0.045098
H13   H     H_    0.296650 0.765004 0.447466 0.079938
H14   H     H_    0.787789 0.574606 0.479483 0.208251
H15   H     H_    0.780419 0.331170 0.603410 0.249124
H16   H     H_    0.287789 0.074606 0.479483 0.208252
H17   H     H_    0.280416 0.831176 0.603402 0.249122
H18   H     H_    0.214664 0.305538 0.356698 -0.011167
H19   H     H_    0.192525 0.679484 0.317715 -0.002964
H20   H     H_    0.714664 0.805538 0.356698 -0.011166
H21   H     H_    0.692525 0.179484 0.317715 -0.002960
H22   H     H_    0.721261 0.402171 0.832992 0.174116
H23   H     H_    0.902798 0.715535 0.672388 0.081166
H24   H     H_    0.696803 0.654195 0.767240 0.151250
H25   H     H_    0.221261 0.902171 0.832992 0.174116
H26   H     H_    0.196803 0.154195 0.767240 0.151250
H27   H     H_    0.644935 0.733707 0.369514 0.157208
H28   H     H_    0.618949 0.253656 0.314582 0.135582
H29   H     H_    0.144935 0.233707 0.369514 0.157208
H30   H     H_    0.118945 0.753652 0.314581 0.135583
H31   H     H_    0.293283 0.784850 0.185013 0.179912
H32   H     H_    0.208320 0.376968 0.979544 0.215794
H33   H     H_    0.793283 0.284850 0.185013 0.179912
H34   H     H_    0.820917 0.151073 0.677686 0.045096
H35   H     H_    0.708320 0.876968 0.979544 0.215794
H36   H     H_    0.788825 0.377372 0.010052 0.146300
H37   H     H_    0.715011 0.776421 0.820568 0.148049
H38   H     H_    0.288825 0.877372 0.010052 0.146300
H39   H     H_    0.215011 0.276421 0.820568 0.148049
H40   H     H_    0.361868 0.762016 0.076311 0.141653
H41   H     H_    0.329260 0.320606 0.985606 0.151064
H42   H     H_    0.861868 0.262016 0.076311 0.141653
H43   H     H_    0.829260 0.820606 0.985606 0.151064
H44   H     H_    0.670971 0.322973 0.013250 0.156691
H45   H     H_    0.834236 0.623050 0.662365 0.199665
H46   H     H_    0.620956 0.773909 0.887520 0.155393
H47   H     H_    0.170971 0.822973 0.013250 0.156691
H48   H     H_    0.120956 0.273908 0.887520 0.155393
H49   H     H_    0.561002 0.343311 0.321638 0.158363
H50   H     H_    0.598198 0.595194 0.325458 0.161851
H51   H     H_    0.061001 0.843311 0.321638 0.158363
H52   H     H_    0.098198 0.095195 0.325458 0.161851
H53   H     H_    0.441434 0.347902 0.682241 0.129047
H54   H     H_    0.408656 0.602808 0.678921 0.102007
H55   H     H_    0.941434 0.847902 0.682241 0.129047
H56   H     H_    0.746025 0.224827 0.675839 0.215636
H57   H     H_    0.908656 0.102808 0.678921 0.102006
H58   H     H_    0.293042 0.343828 0.323827 0.156050
H59   H     H_    0.264177 0.597473 0.323465 0.201698
H60   H     H_    0.793042 0.843828 0.323827 0.156050
H61   H     H_    0.764177 0.097473 0.323465 0.201697
H62   H     H_    0.548700 0.397662 0.834054 0.118224
H63   H     H_    0.521887 0.657346 0.768843 0.133740
H64   H     H_    0.048700 0.897662 0.834054 0.118224
H65   H     H_    0.021887 0.157346 0.768843 0.133740
H66   H     H_    0.673923 0.660095 0.276112 0.097113
H67   H     H_    0.334236 0.123050 0.662365 0.199665
H68   H     H_    0.716721 0.580536 0.286681 0.133989
H69   H     H_    0.700717 0.346121 0.359856 0.098181
H70   H     H_    0.766674 0.401276 0.463640 0.147327
H71   H     H_    0.173923 0.160095 0.276112 0.097113
H72   H     H_    0.216721 0.080536 0.286681 0.133989
H73   H     H_    0.200715 0.846112 0.359846 0.098179
H74   H     H_    0.266667 0.901275 0.463625 0.147322
H75   H     H_    0.427354 0.446465 0.084238 0.130598
H76   H     H_    0.457448 0.355272 0.116156 0.115404
H77   H     H_    0.470798 0.611471 0.147643 0.109341
H78   H     H_    0.246029 0.724830 0.675842 0.215640
H79   H     H_    0.467968 0.706771 0.162247 0.121863
H80   H     H_    0.927354 0.946465 0.084238 0.130598
H81   H     H_    0.957448 0.855272 0.116156 0.115404
H82   H     H_    0.970798 0.111471 0.147643 0.109341
H83   H     H_    0.967968 0.206771 0.162247 0.121862
H84   H     H_    0.290543 0.197998 0.677866 0.245162
N1    N     N_R   0.389430 0.421450 0.294590 -0.120411
N2    N     N_R   0.581780 0.577610 0.443390 -0.070969
N3    N     N_R   0.081780 0.922390 0.443390 -0.073839
N4    N     N_R   0.081780 0.077610 0.443390 -0.070969
N5    N     N_R   0.419850 0.423100 0.556610 -0.068418
N6    N     N_R   0.419850 0.576900 0.556610 -0.075916
N7    N     N_R   0.919850 0.923100 0.556610 -0.068418
N8    N     N_R   0.919850 0.076900 0.556610 -0.075916
N9    N     N_R   0.627410 0.423100 0.556610 -0.101323
N10   N     N_R   0.627410 0.576900 0.556610 -0.107685
N11   N     N_R   0.127410 0.923100 0.556610 -0.101323
N12   N     N_R   0.389430 0.578550 0.294590 -0.121567
N13   N     N_R   0.127410 0.076900 0.556610 -0.107685
N14   N     N_R   0.374220 0.422390 0.443390 -0.039385
N15   N     N_R   0.374220 0.577610 0.443390 -0.064543
N16   N     N_R   0.874220 0.922390 0.443390 -0.039385
N17   N     N_R   0.874220 0.077610 0.443390 -0.064543
N18   N     N_R   0.555000 0.424040 0.705410 -0.064040
N19   N     N_R   0.555000 0.575960 0.705410 -0.057814
N20   N     N_R   0.055000 0.924040 0.705410 -0.064040
N21   N     N_R   0.055000 0.075960 0.705410 -0.057815
N22   N     N_R   0.446630 0.421450 0.294590 -0.081422
N23   N     N_R   0.889430 0.921450 0.294590 -0.120411
N24   N     N_R   0.446630 0.578550 0.294590 -0.089396
N25   N     N_R   0.946630 0.921450 0.294590 -0.081422
N26   N     N_R   0.946630 0.078550 0.294590 -0.089396
N27   N     N_3   0.698130 0.609801 0.322241 -0.220674
N28   N     N_3   0.723384 0.368041 0.438751 -0.206966
N29   N     N_3   0.198130 0.109801 0.322241 -0.220674
N30   N     N_3   0.223379 0.868037 0.438737 -0.206969
N31   N     N_3   0.457185 0.407212 0.149664 -0.209824
N32   N     N_3   0.481606 0.654310 0.203734 -0.205276
N33   N     N_3   0.957186 0.907212 0.149664 -0.209823
N34   N     N_R   0.889430 0.078550 0.294590 -0.121567
N35   N     N_3   0.981606 0.154310 0.203734 -0.205276
N36   N     N_R   0.612200 0.424040 0.705410 -0.062158
N37   N     N_R   0.612200 0.575960 0.705410 -0.047334
N38   N     N_R   0.112200 0.924040 0.705410 -0.062158
N39   N     N_R   0.112200 0.075960 0.705410 -0.047334
N40   N     N_R   0.581780 0.422390 0.443390 -0.073838
Ni1   Ni    Ni4+2 0.382890 0.500000 0.370170 0.305330
Ni2   Ni    Ni4+2 0.882890 0.000000 0.370170 0.305330
Ni3   Ni    Ni4+2 0.618740 0.500000 0.629830 0.288314
Ni4   Ni    Ni4+2 0.118740 1.000000 0.629830 0.288315
Ni5   Ni    Ni4+2 0.514090 0.500000 0.370170 0.192924
Ni6   Ni    Ni4+2 0.014090 0.000000 0.370170 0.192925
Ni7   Ni    Ni4+2 0.487550 0.500000 0.629830 0.221455
Ni8   Ni    Ni4+2 0.987550 1.000000 0.629830 0.221456

loop_
_geom_bond_atom_site_label_1
_geom_bond_atom_site_label_2
_ccdc_geom_bond_type
N6    N15   A    
C58   C62   D    
H76   N31   S    
C7    C29   S    
C37   H28   S    
C50   H46   S    
C8    C83   A    
C9    H1    S    
C4    C79   A    
N9    N40   A    
C21   H21   S    
C14   C31   S    
C21   F19   S    
C1    N1    A    
N7    Ni8   S    
N9    Ni3   S    
C54   H37   S    
C4    C70   A    
C42   N38   A    
C16   H67   S    
C15   C32   S    
C7    C73   A    
C54   C65   S    
C74   N8    A    
C43   C78   A    
C6    C72   A    
C57   H39   S    
C50   C54   D    
N21   N39   A    
N14   Ni1   S    
C24   F2    S    
N23   N25   A    
C81   H59   S    
N36   Ni3   S    
C17   C35   S    
C3    C69   A    
C36   H27   S    
C34   C96   A    
N10   Ni3   S    
C41   C56   A    
H83   N35   S    
H82   N35   S    
C61   H43   S    
H77   N32   S    
N12   N24   A    
C83   N17   A    
N22   Ni5   S    
C10   H12   S    
H66   N27   S    
C85   N19   A    
H80   N33   S    
C19   F17   S    
N23   Ni2   S    
C19   H19   S    
C55   C62   S    
N38   Ni4   S    
C92   C96   A    
N1    Ni1   S    
C15   H4    S    
N3    N11   A    
C26   H10   S    
C23   N23   A    
N2    Ni5   S    
C11   H23   S    
N17   Ni2   S    
C41   H24   S    
C13   F13   S    
C5    C27   S    
C2    C68   A    
C24   H13   S    
C25   F3    S    
C6    C28   S    
C59   H41   S    
C23   C95   A    
C40   H22   S    
C15   H56   S    
C53   H36   S    
C71   H53   S    
C49   H44   S    
N26   Ni6   S    
N39   Ni4   S    
N8    N17   A    
C76   N10   A    
C45   C49   S    
C73   H55   S    
C38   H7    S    
C16   H84   S    
C40   N36   A    
C48   N30   S    
C22   F20   S    
C22   C47   S    
N20   Ni8   S    
C92   N26   A    
C6    C81   A    
C91   N25   A    
C76   F6    S    
C34   F15   S    
C55   H38   S    
C90   N32   S    
C17   H78   S    
C64   H33   S    
N1    N22   A    
N2    N10   A    
C52   C78   S    
C35   C48   S    
C25   C44   S    
C8    C74   A    
C90   C94   A    
C66   C89   A    
C20   C29   S    
N6    Ni7   S    
C25   C29   S    
C40   C45   A    
N15   Ni1   S    
C31   C44   S    
C83   H61   S    
C9    F9    S    
C68   N2    A    
C24   C48   S    
C77   F7    S    
C24   C28   S    
C48   H17   S    
C60   H42   S    
C22   C27   S    
C12   N12   A    
C74   H57   S    
C1    F1    S    
C46   H15   S    
C12   F12   S    
N37   Ni3   S    
C72   N6    A    
H69   N28   S    
C91   C95   A    
N4    N13   A    
C50   C56   S    
C39   H8    S    
C2    C31   S    
H74   N30   S    
C72   H54   S    
C65   H35   S    
C35   C39   S    
C69   H51   S    
C38   H29   S    
C90   N24   A    
N12   Ni1   S    
C70   H52   S    
C16   C33   S    
C13   C30   S    
C32   C89   S    
C3    C35   S    
C85   H63   S    
C88   N31   S    
C42   H25   S    
C86   H64   S    
C81   N15   A    
H70   N28   S    
C11   C14   S    
C51   C67   S    
C32   C37   S    
C20   H20   S    
C5    C80   A    
C84   H62   S    
C19   C28   S    
H71   N29   S    
C79   N13   A    
C84   N18   A    
C17   H2    S    
C52   H48   S    
C82   N16   A    
C60   C96   S    
C1    C93   A    
C51   H47   S    
N34   Ni2   S    
N5    N14   A    
C69   N3    A    
C62   H31   S    
C13   C15   S    
C11   F11   S    
N40   Ni5   S    
C43   N39   A    
N19   Ni7   S    
C79   F8    S    
C10   F10   S    
C45   C84   A    
C19   C39   S    
H72   N29   S    
C34   N34   A    
C78   C87   A    
C87   N21   A    
C63   H32   S    
C88   N22   A    
C2    C76   A    
C9    C27   S    
C82   H60   S    
C10   C28   S    
N25   Ni6   S    
C23   F14   S    
C4    C33   S    
C75   N9    A    
C67   C86   A    
H81   N33   S    
C66   H49   S    
C66   N40   A    
C73   N7    A    
C32   C46   S    
N11   Ni4   S    
C9    C16   S    
N13   Ni4   S    
C18   C27   S    
C41   N37   A    
C57   C63   S    
C18   F16   S    
N5    Ni7   S    
C87   H65   S    
C77   N11   A    
C80   N14   A    
C61   C95   S    
C26   C30   S    
C47   N29   S    
N21   Ni8   S    
N20   N38   A    
C59   C93   S    
C21   C30   S    
C91   N33   S    
C92   N35   S    
C59   C63   D    
C33   C38   S    
N26   N34   A    
C58   H40   S    
C47   H16   S    
C60   C64   D    
C8    C30   S    
N18   Ni7   S    
N19   N37   A    
C14   H45   S    
C36   H5    S    
C18   C38   S    
N18   N36   A    
C5    C71   A    
C13   H34   S    
C20   F18   S    
C12   C94   A    
N16   Ni2   S    
C56   C85   A    
C42   C67   A    
N3    Ni6   S    
C49   C53   D    
C22   H11   S    
C39   H30   S    
C25   H9    S    
N7    N16   A    
C53   C64   S    
C88   C93   A    
H79   N32   S    
H73   N30   S    
C18   H18   S    
C51   C55   D    
C58   C94   S    
C44   N27   S    
N8    Ni8   S    
C52   C57   D    
C26   C46   S    
C80   H58   S    
C37   H6    S    
C20   C36   S    
C61   C65   D    
N24   Ni5   S    
C71   N5    A    
C7    C82   A    
C21   C37   S    
C11   C29   S    
C70   N4    A    
H75   N31   S    
C14   H3    S    
C86   N20   A    
C75   C89   A    
C75   F5    S    
C46   N28   S    
C31   C36   S    
C43   H26   S    
C10   C17   S    
H68   N27   S    
C33   C47   S    
C44   H14   S    
N4    Ni6   S    
C3    C77   A    
C26   F4    S    
C68   H50   S    
