data_mof_unit_44618.cif
_audit_creation_date              2013-03-05T15:42:51-0500
_audit_creation_method            fapswitch 2.2
_symmetry_space_group_name_H-M    P1
_symmetry_Int_Tables_number       1
_space_group_crystal_system       triclinic
_cell_length_a                    28.142037
_cell_length_b                    17.337162
_cell_length_c                    18.184037
_cell_angle_alpha                 90.148403
_cell_angle_beta                  138.36059
_cell_angle_gamma                 89.912932
_cell_volume                      5894.92580566

loop_
_atom_site_label
_atom_site_type_symbol
_atom_site_description
_atom_site_fract_x
_atom_site_fract_y
_atom_site_fract_z
_atom_type_partial_charge
C1    C     C_R   0.687997 0.899861 0.803246 -0.102775
C2    C     C_R   0.314615 0.098511 0.192025 -0.108227
C3    C     C_R   0.331442 0.922761 0.182970 -0.095489
C4    C     C_R   0.667426 0.077059 0.816768 -0.057826
C5    C     C_R   0.170016 0.422025 0.817369 -0.091816
C6    C     C_R   0.831229 0.577814 0.182828 -0.056364
C7    C     C_R   0.812097 0.400035 0.196259 -0.102828
C8    C     C_R   0.184739 0.598075 0.809124 -0.112536
H1    H     H_    0.739215 0.928018 0.856143 0.120153
H2    H     H_    0.262176 0.073126 0.137641 0.150969
H3    H     H_    0.281889 0.953562 0.118262 0.120365
H4    H     H_    0.715831 0.044657 0.881725 0.116904
H5    H     H_    0.219875 0.452540 0.881587 0.118375
H6    H     H_    0.782505 0.545670 0.118122 0.116953
H7    H     H_    0.760889 0.428129 0.143521 0.119743
H8    H     H_    0.237413 0.573259 0.863907 0.150783
N1    N     N_R   0.625380 0.928280 0.709340 -0.058854
N2    N     N_R   0.374620 0.071720 0.290660 -0.060649
N3    N     N_R   0.374620 0.928280 0.290660 -0.057334
N4    N     N_R   0.625380 0.071720 0.709340 -0.063666
N5    N     N_R   0.125380 0.428280 0.709340 -0.056741
N6    N     N_R   0.874620 0.571720 0.290660 -0.063591
N7    N     N_R   0.874620 0.428280 0.290660 -0.059034
N8    N     N_R   0.125380 0.571720 0.709340 -0.060365
C9    C     C_R   0.323626 0.102247 0.397983 -0.099186
C10   C     C_R   0.664493 0.908482 0.558534 -0.073718
C11   C     C_R   0.676209 0.100748 0.600627 -0.085587
C12   C     C_R   0.343842 0.915358 0.461508 -0.072235
C13   C     C_R   0.823785 0.600785 0.399335 -0.085359
C14   C     C_R   0.155885 0.415401 0.537901 -0.070498
C15   C     C_R   0.176358 0.602253 0.602006 -0.099953
C16   C     C_R   0.835444 0.408566 0.441288 -0.074897
H9    H     H_    0.274375 0.070252 0.338113 0.159613
H10   H     H_    0.712941 0.940455 0.604015 0.166574
H11   H     H_    0.724914 0.067949 0.659117 0.158383
H12   H     H_    0.297330 0.948832 0.422406 0.170370
H13   H     H_    0.775077 0.567910 0.340807 0.157868
H14   H     H_    0.202333 0.448921 0.576861 0.170385
H15   H     H_    0.225601 0.570326 0.661778 0.160465
H16   H     H_    0.786982 0.440512 0.395789 0.166579
N9    N     N_R   0.386100 0.070250 0.452470 -0.065774
N10   N     N_R   0.613900 0.929750 0.547530 -0.076027
N11   N     N_R   0.613900 0.070250 0.547530 -0.065505
N12   N     N_R   0.386100 0.929750 0.452470 -0.079236
N13   N     N_R   0.886100 0.570250 0.452470 -0.065128
N14   N     N_R   0.113900 0.429750 0.547530 -0.078945
N15   N     N_R   0.113900 0.570250 0.547530 -0.066215
N16   N     N_R   0.886100 0.429750 0.452470 -0.076270
C17   C     C_R   0.426590 0.821188 0.550219 0.342679
C18   C     C_R   0.597835 0.196501 0.519767 0.357164
C19   C     C_R   0.583393 0.812805 0.471865 0.314122
C20   C     C_R   0.403226 0.196593 0.483222 0.332881
C21   C     C_R   0.916540 0.312918 0.527885 0.311399
C22   C     C_R   0.096751 0.696578 0.516853 0.331446
C23   C     C_R   0.073081 0.321249 0.449048 0.344759
C24   C     C_R   0.902180 0.696536 0.480268 0.358456
N17   N     N_R   0.437800 0.869550 0.507970 -0.096332
N18   N     N_R   0.562200 0.130450 0.492030 -0.095895
N19   N     N_R   0.562200 0.869550 0.492030 -0.095028
N20   N     N_R   0.437800 0.130450 0.507970 -0.101843
N21   N     N_R   0.937800 0.369550 0.507970 -0.095071
N22   N     N_R   0.062200 0.630450 0.492030 -0.101710
N23   N     N_R   0.062200 0.369550 0.492030 -0.096303
N24   N     N_R   0.937800 0.630450 0.507970 -0.096172
C25   C     C_R   0.582430 0.168039 0.726292 -0.052998
C26   C     C_R   0.414138 0.830182 0.271450 -0.082982
C27   C     C_R   0.399695 0.188874 0.279793 -0.018589
C28   C     C_R   0.606177 0.807144 0.714622 0.000855
C29   C     C_R   0.099531 0.688404 0.720931 -0.018496
C30   C     C_R   0.893761 0.307163 0.284863 0.001543
C31   C     C_R   0.916527 0.668315 0.273019 -0.049226
C32   C     C_R   0.086698 0.330238 0.729187 -0.081314
H17   H     H_    0.552917 0.218708 0.708399 0.176509
H18   H     H_    0.436580 0.775096 0.284577 0.189927
H19   H     H_    0.425565 0.244023 0.302829 0.195066
H20   H     H_    0.584754 0.749585 0.687638 0.189743
H21   H     H_    0.074129 0.743919 0.697486 0.196360
H22   H     H_    0.914670 0.249458 0.312205 0.189073
H23   H     H_    0.946517 0.718422 0.290918 0.175565
H24   H     H_    0.063193 0.276043 0.715969 0.189403
N25   N     N_R   0.573690 0.128980 0.653840 -0.059855
N26   N     N_R   0.426310 0.871020 0.346160 -0.055201
N27   N     N_R   0.426310 0.128980 0.346160 -0.068419
N28   N     N_R   0.573690 0.871020 0.653840 -0.062938
N29   N     N_R   0.073690 0.628980 0.653840 -0.068991
N30   N     N_R   0.926310 0.371020 0.346160 -0.063457
N31   N     N_R   0.926310 0.628980 0.346160 -0.059999
N32   N     N_R   0.073690 0.371020 0.653840 -0.054575
C33   C     C_R   0.676376 0.824809 0.807899 0.065998
C34   C     C_R   0.330352 0.170252 0.183722 0.088491
C35   C     C_R   0.356550 0.862988 0.169829 0.113466
C36   C     C_R   0.641078 0.136555 0.828804 0.102711
C37   C     C_R   0.145244 0.362403 0.830786 0.110449
C38   C     C_R   0.857155 0.637376 0.170499 0.099910
C39   C     C_R   0.823655 0.324972 0.191304 0.066286
C40   C     C_R   0.168360 0.669266 0.818187 0.089310
C41   C     C_R   0.330425 0.181905 0.405748 -0.067057
C42   C     C_R   0.645104 0.837365 0.506620 -0.062786
C43   C     C_R   0.670417 0.180114 0.594430 -0.103192
C44   C     C_R   0.369473 0.848793 0.525815 -0.050373
C45   C     C_R   0.829578 0.680160 0.405438 -0.102309
C46   C     C_R   0.130003 0.348875 0.473059 -0.050037
C47   C     C_R   0.169546 0.681907 0.594203 -0.066583
C48   C     C_R   0.854748 0.337518 0.492931 -0.062884
Ni1   Ni    Ni4+2 0.616560 0.000000 0.627280 0.241449
Ni2   Ni    Ni4+2 0.383440 0.000000 0.372720 0.244542
Ni3   Ni    Ni4+2 0.116560 0.500000 0.627280 0.245374
Ni4   Ni    Ni4+2 0.883440 0.500000 0.372720 0.241154
Ni5   Ni    Ni4+2 0.497990 0.870580 0.500000 0.321908
Ni6   Ni    Ni4+2 0.502010 0.129420 0.500000 0.322675
Ni7   Ni    Ni4+2 0.997990 0.370580 0.500000 0.320719
Ni8   Ni    Ni4+2 0.002010 0.629420 0.500000 0.321612
C49   C     C_3   0.672032 0.211744 0.991605 0.419803
C50   C     C_3   0.326896 0.763152 0.027983 0.417636
C51   C     C_3   0.296482 0.271223 0.047466 0.399745
C52   C     C_3   0.715600 0.742639 0.961389 0.407660
C53   C     C_3   0.202523 0.776660 0.949876 0.398334
C54   C     C_3   0.783545 0.241011 0.037921 0.407687
C55   C     C_3   0.826942 0.710746 0.008087 0.419179
C56   C     C_3   0.174142 0.269121 0.976652 0.419968
C57   C     C_3   0.270968 0.751862 0.067724 -0.262821
C58   C     C_3   0.707092 0.261432 0.928605 -0.259682
C59   C     C_3   0.749125 0.691407 0.896186 -0.253418
C60   C     C_3   0.245797 0.292819 0.094909 -0.221160
C61   C     C_3   0.749722 0.192046 0.103434 -0.253717
C62   C     C_3   0.257590 0.787457 0.908374 -0.216527
C63   C     C_3   0.225748 0.247028 0.931058 -0.266183
C64   C     C_3   0.792223 0.762664 0.070847 -0.258354
H25   H     H_    0.275998 0.738965 0.133133 0.188187
H26   H     H_    0.690818 0.289071 0.857332 0.200619
H27   H     H_    0.731733 0.664321 0.823656 0.187685
H28   H     H_    0.254168 0.308932 0.162993 0.173992
H29   H     H_    0.766978 0.165752 0.176076 0.186988
H30   H     H_    0.251865 0.799332 0.842175 0.175045
H31   H     H_    0.218087 0.229929 0.863803 0.189885
H32   H     H_    0.808727 0.790989 0.142123 0.200385
C65   C     C_3   0.309522 0.817583 0.070933 -0.057371
C66   C     C_3   0.685224 0.180247 0.929955 -0.040391
C67   C     C_3   0.728377 0.772919 0.898763 -0.049840
C68   C     C_3   0.279370 0.222616 0.094770 -0.044770
C69   C     C_3   0.771242 0.272831 0.100723 -0.049991
C70   C     C_3   0.219635 0.722159 0.906591 -0.043978
C71   C     C_3   0.191615 0.317615 0.929828 -0.056738
C72   C     C_3   0.813279 0.680805 0.069530 -0.041155
C73   C     C_3   0.693333 0.293296 0.991025 -0.231382
C74   C     C_3   0.289396 0.696707 0.024791 -0.221447
C75   C     C_3   0.263674 0.342424 0.046571 -0.234884
C76   C     C_3   0.735305 0.660963 0.959527 -0.226798
C77   C     C_3   0.239751 0.843181 0.952687 -0.236235
C78   C     C_3   0.763073 0.160010 0.039895 -0.227885
C79   C     C_3   0.806426 0.792971 0.008582 -0.231635
C80   C     C_3   0.207309 0.197895 0.978075 -0.214984
H33   H     H_    0.664988 0.347592 0.972316 0.189700
H34   H     H_    0.309123 0.636567 0.052632 0.187218
H35   H     H_    0.285895 0.401811 0.072436 0.185388
H36   H     H_    0.705854 0.607394 0.939532 0.185931
H37   H     H_    0.220381 0.903474 0.925543 0.186197
H38   H     H_    0.792036 0.105916 0.059994 0.185387
H39   H     H_    0.835287 0.846731 0.027270 0.189908
H40   H     H_    0.184752 0.138652 0.951641 0.190583
C81   C     C_R   0.674590 0.803626 0.473628 -0.044380
C82   C     C_R   0.269539 0.236777 0.335370 -0.018496
C83   C     C_R   0.343627 0.814715 0.564536 -0.034999
C84   C     C_R   0.732587 0.232919 0.661681 0.024921
C85   C     C_R   0.155493 0.314829 0.433613 -0.035014
C86   C     C_R   0.767369 0.732925 0.337634 0.024539
C87   C     C_R   0.824896 0.303709 0.525125 -0.043771
C88   C     C_R   0.230418 0.736847 0.664085 -0.022270
C89   C     C_R   0.242537 0.361873 0.356386 -0.057777
C90   C     C_R   0.680084 0.689917 0.403632 -0.020802
C91   C     C_R   0.755017 0.355659 0.629367 -0.074280
C92   C     C_R   0.338231 0.700379 0.633877 -0.037368
C93   C     C_R   0.744708 0.855710 0.370039 -0.074581
C94   C     C_R   0.160776 0.200496 0.363563 -0.038069
C95   C     C_R   0.257117 0.861845 0.642874 -0.059308
C96   C     C_R   0.819117 0.189904 0.594053 -0.021201
C97   C     C_R   0.280714 0.316981 0.350241 -0.159627
C98   C     C_R   0.675394 0.723272 0.467168 -0.089853
C99   C     C_R   0.722604 0.313213 0.647816 -0.117895
C100  C     C_R   0.347154 0.734297 0.576348 -0.090700
C101  C     C_R   0.777381 0.813233 0.351886 -0.118446
C102  C     C_R   0.151778 0.234419 0.421149 -0.089636
C103  C     C_R   0.219254 0.817035 0.649518 -0.159038
C104  C     C_R   0.823936 0.223347 0.530882 -0.090863
C105  C     C_R   0.205911 0.209473 0.292165 0.282384
C106  C     C_R   0.693913 0.850755 0.435616 0.351850
C107  C     C_R   0.791183 0.203210 0.691002 0.277484
C108  C     C_R   0.318951 0.860698 0.595073 0.340034
C109  C     C_R   0.708440 0.703305 0.307353 0.277412
C110  C     C_R   0.180248 0.360815 0.403404 0.340198
C111  C     C_R   0.293778 0.709480 0.706384 0.281665
C112  C     C_R   0.805515 0.350764 0.563301 0.351747
C113  C     C_R   0.184680 0.245013 0.332610 -0.020859
C114  C     C_R   0.710549 0.815473 0.387809 -0.031088
C115  C     C_R   0.803919 0.236070 0.637415 -0.037899
C116  C     C_R   0.298087 0.824003 0.636221 -0.033430
C117  C     C_R   0.695424 0.736137 0.360727 -0.038201
C118  C     C_R   0.201253 0.324095 0.362312 -0.033274
C119  C     C_R   0.314626 0.744935 0.665480 -0.020352
C120  C     C_R   0.788895 0.315420 0.610936 -0.031187
H41   H     H_    0.668985 0.686157 0.507018 0.183925
H42   H     H_    0.321396 0.344424 0.364620 0.207246
H43   H     H_    0.358005 0.696977 0.542558 0.187885
H44   H     H_    0.686303 0.342382 0.642508 0.209155
H45   H     H_    0.140850 0.197079 0.454639 0.188097
H46   H     H_    0.813930 0.842376 0.357832 0.209166
H47   H     H_    0.830486 0.186307 0.490979 0.183449
H48   H     H_    0.178856 0.844520 0.635901 0.208459
H49   H     H_    0.754973 0.917033 0.385137 0.195490
H50   H     H_    0.156174 0.138377 0.353807 0.191325
H51   H     H_    0.245920 0.922950 0.627282 0.195164
H52   H     H_    0.821871 0.127696 0.601615 0.199755
H53   H     H_    0.253773 0.422984 0.372295 0.194913
H54   H     H_    0.677266 0.627713 0.395622 0.199444
H55   H     H_    0.744823 0.416985 0.614690 0.195481
H56   H     H_    0.342771 0.638261 0.643267 0.191737
N33   N     N_R   0.462456 0.749175 0.599634 0.198183
O1    O     O_R   0.494166 0.731878 0.697729 -0.334214
O2    O     O_R   0.460199 0.698866 0.543890 -0.361424
N34   N     N_R   0.571264 0.269299 0.512978 0.220712
O3    O     O_R   0.582226 0.291570 0.593084 -0.383100
O4    O     O_R   0.547591 0.318388 0.437463 -0.334378
N35   N     N_R   0.557466 0.735236 0.447181 0.203812
O5    O     O_R   0.539180 0.697341 0.367086 -0.355053
O6    O     O_R   0.537936 0.708779 0.488355 -0.373925
N36   N     N_R   0.434325 0.270722 0.507940 0.218501
O7    O     O_R   0.437343 0.299513 0.445651 -0.379838
O8    O     O_R   0.446293 0.315232 0.578139 -0.354367
N37   N     N_R   0.942678 0.235425 0.552937 0.203643
O9    O     O_R   0.960700 0.197900 0.632835 -0.358384
O10   O     O_R   0.962666 0.208740 0.512406 -0.373892
N38   N     N_R   0.065773 0.770668 0.492934 0.218899
O11   O     O_R   0.063412 0.799463 0.556156 -0.379394
O12   O     O_R   0.053183 0.815124 0.422353 -0.354489
N39   N     N_R   0.036852 0.249406 0.398797 0.198527
O13   O     O_R   0.004896 0.232401 0.300385 -0.333144
O14   O     O_R   0.039131 0.198897 0.454144 -0.360914
N40   N     N_R   0.928891 0.769279 0.487487 0.220699
O15   O     O_R   0.918234 0.791341 0.407735 -0.383065
O16   O     O_R   0.952342 0.818550 0.562964 -0.330829
N41   N     N_R   0.609397 0.192887 0.963057 0.245069
O17   O     O_R   0.566229 0.247084 0.934931 -0.326831
O18   O     O_R   0.596094 0.121511 0.964695 -0.321586
N42   N     N_R   0.396518 0.758580 0.072972 0.252214
O19   O     O_R   0.431083 0.693560 0.110910 -0.272119
O20   O     O_R   0.423911 0.819403 0.073848 -0.334225
N43   N     N_R   0.364453 0.270223 0.086935 0.238920
O21   O     O_R   0.402612 0.332714 0.126056 -0.321454
O22   O     O_R   0.386816 0.206915 0.081982 -0.343976
N44   N     N_R   0.654816 0.761572 0.937862 0.254036
O23   O     O_R   0.619466 0.706862 0.929610 -0.277743
O24   O     O_R   0.641081 0.833176 0.938072 -0.341413
N45   N     N_R   0.133392 0.781984 0.906501 0.238510
O25   O     O_R   0.097996 0.846516 0.865240 -0.320447
O26   O     O_R   0.107245 0.722374 0.910214 -0.342159
N46   N     N_R   0.844412 0.258459 0.061195 0.254740
O27   O     O_R   0.879270 0.202785 0.069616 -0.278449
O28   O     O_R   0.858750 0.329606 0.060719 -0.338785
N47   N     N_R   0.889491 0.690461 0.036925 0.244944
O29   O     O_R   0.933320 0.743804 0.065424 -0.327500
O30   O     O_R   0.902097 0.618662 0.035274 -0.322142
N48   N     N_R   0.105582 0.270920 0.935223 0.249972
O31   O     O_R   0.067584 0.208424 0.897355 -0.272863
O32   O     O_R   0.082213 0.335164 0.936305 -0.337534
N49   N     N_R   0.694470 0.933247 0.441869 0.215451
O33   O     O_R   0.634760 0.971497 0.369107 -0.349390
O34   O     O_R   0.754799 0.970353 0.516526 -0.411406
N50   N     N_R   0.164334 0.149816 0.208700 0.240466
O35   O     O_R   0.176851 0.132783 0.154600 -0.384228
O36   O     O_R   0.105068 0.125278 0.169442 -0.295339
N51   N     N_R   0.315184 0.943060 0.584710 0.218779
O37   O     O_R   0.373665 0.983574 0.648882 -0.339380
O38   O     O_R   0.253518 0.977390 0.508377 -0.408683
N52   N     N_R   0.835738 0.143222 0.772798 0.241247
O39   O     O_R   0.831999 0.127787 0.838415 -0.341699
O40   O     O_R   0.889611 0.115960 0.797957 -0.289054
N53   N     N_R   0.184049 0.443187 0.414189 0.218784
O41   O     O_R   0.125583 0.483624 0.350461 -0.339420
O42   O     O_R   0.245729 0.477582 0.490654 -0.409357
N54   N     N_R   0.664130 0.643136 0.225393 0.241037
O43   O     O_R   0.668562 0.627265 0.160633 -0.343758
O44   O     O_R   0.609872 0.616080 0.199247 -0.288514
N55   N     N_R   0.805005 0.433257 0.557551 0.215518
O45   O     O_R   0.864717 0.471561 0.630711 -0.348602
O46   O     O_R   0.744696 0.470309 0.483028 -0.411142
N56   N     N_R   0.335626 0.650032 0.789772 0.240206
O47   O     O_R   0.323710 0.633369 0.844690 -0.382030
O48   O     O_R   0.394583 0.625315 0.828095 -0.295497

loop_
_geom_bond_atom_site_label_1
_geom_bond_atom_site_label_2
_geom_bond_distance
_ccdc_geom_bond_type
C70   C74   1.537496 S    
N35   O5    1.301346 A    
C11   C43   1.380311 A    
C90   C98   1.382330 A    
C24   N40   1.423856 S    
C24   C45   1.396766 A    
C62   C77   1.560070 S    
N24   Ni8   1.917785 S    
C114  C117  1.414403 A    
N44   O24   1.300485 A    
N51   O37   1.300910 A    
N42   O19   1.300211 A    
C14   H14   1.079022 S    
C92   C119  1.391016 A    
N52   O39   1.302219 A    
C50   C65   1.518234 S    
C89   C97   1.396057 A    
C2    C34   1.366945 A    
C82   C97   1.406348 A    
N11   N18   1.425060 A    
N17   Ni5   1.804869 S    
C19   N35   1.432745 S    
C6    C38   1.377293 A    
C16   C48   1.391280 A    
C3    N3    1.327847 A    
C4    H4    1.078190 S    
N3    N26   1.388009 A    
C75   H35   1.110034 S    
N8    N29   1.388006 A    
C68   C80   1.537847 S    
C5    H5    1.078101 S    
N13   Ni4   1.849555 S    
C69   C73   1.541525 S    
N36   O8    1.300562 A    
C57   H25   1.110997 S    
C7    H7    1.080870 S    
C8    H8    1.080724 S    
C60   C75   1.559345 S    
N40   O16   1.300275 A    
C22   C47   1.390400 A    
C9    N9    1.332920 A    
N31   Ni8   1.859151 S    
C11   H11   1.074744 S    
C12   N12   1.340446 A    
C96   H52   1.082898 S    
C17   N33   1.425243 S    
N37   O9    1.301473 A    
C26   N26   1.328306 A    
C74   H34   1.110195 S    
N12   N17   1.425061 A    
C14   C46   1.401030 A    
N38   O12   1.300535 A    
C85   C110  1.413748 A    
N8    Ni3   1.808880 S    
C63   C71   1.544438 S    
N6    N31   1.387432 A    
C64   C72   1.544117 S    
C84   C99   1.405400 A    
C106  N49   1.433565 S    
N50   O36   1.301290 A    
C84   C107  1.397674 A    
C95   C103  1.396038 A    
C109  C117  1.388539 A    
C96   C104  1.382252 A    
N18   Ni6   1.804867 S    
N47   O30   1.300258 A    
C34   C68   1.426152 S    
C55   C59   1.544962 S    
C89   H53   1.081152 S    
C38   C72   1.441650 S    
C53   C70   1.518391 S    
C107  N52   1.443136 S    
N56   O48   1.301279 A    
N19   Ni5   1.917783 S    
C44   C83   1.463838 S    
C112  C120  1.397778 A    
N23   Ni7   1.917783 S    
C45   C86   1.482099 S    
C3    H3    1.078316 S    
C4    N4    1.330122 A    
N3    Ni2   1.808878 S    
C5    N5    1.327016 A    
N25   Ni6   1.860208 S    
C62   H30   1.108464 S    
C93   C114  1.408049 A    
C53   C77   1.534151 S    
C92   H56   1.083143 S    
C50   N42   1.455506 S    
C27   N27   1.322398 A    
C29   H21   1.078710 S    
C100  H43   1.080381 S    
C94   C102  1.378119 A    
N15   N22   1.425060 A    
C31   H23   1.078467 S    
C104  H47   1.081659 S    
C52   N44   1.456732 S    
N45   O25   1.300296 A    
C50   C62   1.540724 S    
C21   C48   1.398917 A    
C26   H18   1.068637 S    
C59   C67   1.542175 S    
C17   N17   1.326333 A    
C60   H28   1.108480 S    
N41   O17   1.300250 A    
C54   C58   1.521405 S    
C57   C65   1.545217 S    
C20   N20   1.345004 A    
N32   Ni7   1.859149 S    
C21   N21   1.334383 A    
C2    H2    1.080676 S    
C61   C69   1.542200 S    
C23   N23   1.326447 A    
C24   N24   1.347623 A    
C95   H51   1.081188 S    
N5    N32   1.387429 A    
N53   O41   1.300918 A    
N46   O27   1.300302 A    
C91   C99   1.395280 A    
C116  C119  1.417948 A    
C22   N38   1.425447 S    
N34   O3    1.300723 A    
N26   Ni5   1.860209 S    
N54   O43   1.302212 A    
N33   O1    1.300302 A    
C27   C34   1.366652 A    
C83   C108  1.413687 A    
C79   H39   1.109957 S    
N2    Ni2   1.813666 S    
C91   C120  1.407948 A    
C6    H6    1.078238 S    
C87   C104  1.399261 A    
C88   C103  1.406347 A    
N27   Ni6   1.859151 S    
N50   O35   1.301988 A    
N49   O34   1.301192 A    
C112  N55   1.433542 S    
C20   N36   1.425528 S    
C27   H19   1.078847 S    
C29   N29   1.322238 A    
C10   N10   1.332734 A    
C9    C41   1.386808 A    
C106  C114  1.397775 A    
C93   H49   1.081671 S    
N9    N20   1.424470 A    
N10   N19   1.424469 A    
C82   C105  1.394865 A    
N35   O6    1.300259 A    
N48   O31   1.300262 A    
C28   H20   1.075727 S    
N13   N24   1.424470 A    
C49   N41   1.454833 S    
N28   Ni5   1.859149 S    
N14   N23   1.424469 A    
N1    N28   1.387429 A    
N30   Ni7   1.860209 S    
C32   H24   1.068282 S    
C48   C87   1.459594 S    
C92   C100  1.378218 A    
C7    N7    1.328975 A    
C67   C79   1.541365 S    
C8    N8    1.326342 A    
N42   O20   1.300201 A    
N52   O40   1.301331 A    
C96   C115  1.394639 A    
C59   C76   1.558799 S    
N36   O7    1.298522 A    
C98   H41   1.081573 S    
N55   O45   1.300784 A    
C57   C74   1.546786 S    
C90   C117  1.394610 A    
C13   N13   1.325293 A    
C9    H9    1.076013 S    
N21   Ni7   1.804869 S    
C55   N47   1.454831 S    
C54   C69   1.521680 S    
C36   C66   1.442404 S    
C23   C46   1.393551 A    
C85   C102  1.403274 A    
C63   H31   1.110963 S    
C64   H32   1.111018 S    
N55   O46   1.301180 A    
C113  C118  1.417971 A    
C6    N6    1.330006 A    
C51   C75   1.533210 S    
C3    C35   1.370818 A    
C49   C73   1.539686 S    
C54   C78   1.529373 S    
N7    N30   1.388009 A    
N39   O13   1.300292 A    
C52   C67   1.522316 S    
C91   H55   1.081695 S    
N29   Ni8   1.860208 S    
C19   C42   1.398971 A    
C93   C101  1.395396 A    
C15   N15   1.332765 A    
C55   C72   1.520303 S    
C16   N16   1.332839 A    
C56   C71   1.518012 S    
C14   N14   1.340407 A    
C51   N43   1.456813 S    
N43   O22   1.300382 A    
C109  N54   1.443058 S    
N9    Ni2   1.849555 S    
C28   N28   1.332952 A    
C1    H1    1.080980 S    
C58   C66   1.544620 S    
C52   C76   1.529457 S    
C22   N22   1.344723 A    
N44   O23   1.300332 A    
C62   C70   1.541196 S    
C18   N18   1.347558 A    
C25   N25   1.329028 A    
N2    N27   1.387432 A    
C13   C45   1.380391 A    
C54   N46   1.456723 S    
C31   N31   1.329127 A    
C32   C37   1.373510 A    
C39   C69   1.439034 S    
C56   N48   1.455515 S    
C95   C116  1.407201 A    
C42   C81   1.459944 S    
C110  C118  1.403433 A    
N4    Ni1   1.808880 S    
N40   O15   1.300684 A    
C78   H38   1.109821 S    
C59   H27   1.110022 S    
C1    N1    1.329656 A    
C60   C68   1.540816 S    
C111  C119  1.389635 A    
C90   H54   1.082922 S    
N12   Ni2   1.854347 S    
C86   C109  1.397643 A    
N37   O10   1.300287 A    
N16   Ni4   1.854347 S    
C23   N39   1.425243 S    
N6    Ni4   1.813666 S    
N7    Ni4   1.808878 S    
C18   N34   1.423804 S    
N38   O11   1.298615 A    
C101  H46   1.077033 S    
N10   Ni1   1.849556 S    
N20   Ni6   1.917785 S    
C61   C78   1.558680 S    
C11   N11   1.325221 A    
N22   Ni8   1.804867 S    
C51   C68   1.518602 S    
C12   H12   1.079088 S    
C94   C113  1.390956 A    
C13   H13   1.074794 S    
C49   C66   1.520223 S    
C76   H36   1.109878 S    
C81   C98   1.399317 A    
C77   H37   1.110058 S    
C21   N37   1.432799 S    
C4    C36   1.378685 A    
C25   C36   1.378690 A    
C80   H40   1.110091 S    
C110  N53   1.434229 S    
C30   H22   1.076036 S    
C8    C40   1.368855 A    
C72   C76   1.540366 S    
C29   C40   1.367691 A    
N34   O4    1.300268 A    
C51   C63   1.522837 S    
C31   C38   1.377185 A    
C66   C78   1.540885 S    
C71   C75   1.538606 S    
C87   C112  1.416538 A    
C18   C43   1.396933 A    
C81   C106  1.416755 A    
C88   C111  1.394798 A    
N54   O44   1.301348 A    
N56   O47   1.302115 A    
C49   C61   1.545294 S    
C20   C41   1.390187 A    
C25   H17   1.078298 S    
N11   Ni1   1.854346 S    
C58   C73   1.548048 S    
C53   C57   1.523119 S    
C35   C65   1.429570 S    
C10   H10   1.079198 S    
C33   C67   1.438936 S    
N49   O33   1.300785 A    
C37   C71   1.428552 S    
C73   H33   1.109913 S    
C12   C44   1.401166 A    
C47   C88   1.483794 S    
N4    N25   1.388006 A    
C103  H48   1.076603 S    
N39   O14   1.300657 A    
C65   C77   1.538665 S    
C86   C101  1.405434 A    
C53   N45   1.456654 S    
C32   N32   1.328803 A    
C28   C33   1.365373 A    
C55   C79   1.539760 S    
C56   C80   1.535364 S    
C50   C74   1.534900 S    
N45   O26   1.300377 A    
N48   O32   1.300184 A    
N46   O28   1.300455 A    
N41   O18   1.300227 A    
C15   C47   1.386910 A    
N1    Ni1   1.813670 S    
C63   C80   1.547286 S    
C64   C79   1.548532 S    
N14   Ni3   1.849556 S    
N5    Ni3   1.813670 S    
C10   C42   1.391110 A    
C46   C85   1.463902 S    
N15   Ni3   1.854346 S    
N53   O42   1.301272 A    
C108  N51   1.434165 S    
C19   N19   1.334632 A    
N47   O29   1.300308 A    
C30   N30   1.333315 A    
C115  C120  1.414404 A    
C61   H29   1.110019 S    
N51   O38   1.301259 A    
C1    C33   1.360301 A    
C107  C115  1.388543 A    
C94   H50   1.083147 S    
C105  C113  1.389551 A    
C2    N2    1.326331 A    
C5    C37   1.368129 A    
N43   O21   1.300295 A    
C26   C35   1.375160 A    
N33   O2    1.300653 A    
C7    C39   1.359928 A    
C102  H45   1.080335 S    
C30   C39   1.366049 A    
C17   C44   1.393639 A    
N16   N21   1.425061 A    
C15   H15   1.075933 S    
C16   H16   1.079250 S    
C40   C70   1.427071 S    
C43   C84   1.481805 S    
C99   H44   1.077026 S    
C108  C116  1.403423 A    
C41   C82   1.484098 S    
C52   C64   1.521685 S    
C83   C100  1.403233 A    
C97   H42   1.076584 S    
C111  N56   1.443502 S    
C58   H26   1.111045 S    
C56   C60   1.541392 S    
C105  N50   1.443433 S    
C89   C118  1.407214 A    
