data_mof_unit_34312.cif
_audit_creation_date              2012-12-10T20:45:27-0500
_audit_creation_method            fapswitch 2.2
_symmetry_space_group_name_H-M    P1
_symmetry_Int_Tables_number       1
_space_group_crystal_system       triclinic
_cell_length_a                    10.764438
_cell_length_b                    10.667986
_cell_length_c                    9.86877
_cell_angle_alpha                 89.889728
_cell_angle_beta                  90.895961
_cell_angle_gamma                 89.707508
_cell_volume                      1133.12335854

loop_
_atom_site_label
_atom_site_type_symbol
_atom_type_description
_atom_site_fract_x
_atom_site_fract_y
_atom_site_fract_z
_atom_type_partial_charge
C1    C     C_R   0.498829 0.260186 0.500367 0.883524
C2    C     C_R   0.205988 0.684705 0.009763 -0.098201
C3    C     C_R   0.931127 0.540029 0.386146 -0.256072
C4    C     C_R   0.872621 0.502470 0.504784 -0.083844
C5    C     C_R   0.942040 0.468757 0.621881 -0.013596
C6    C     C_R   0.069085 0.467342 0.614305 -0.247011
C7    C     C_R   0.127622 0.505878 0.496354 -0.081124
C8    C     C_R   0.058580 0.544515 0.380898 -0.008497
C9    C     C_R   0.859221 0.533982 0.845902 -0.104084
C10   C     C_R   0.817604 0.505052 0.975668 -0.132613
C11   C     C_R   0.805129 0.380018 0.015399 -0.135256
C12   C     C_R   0.260100 0.502982 0.498580 0.870601
C13   C     C_R   0.834667 0.283671 0.925458 -0.163451
C14   C     C_R   0.876880 0.312187 0.795654 -0.154332
C15   C     C_R   0.888486 0.437572 0.754900 0.146681
C16   C     C_R   0.538150 0.063347 0.614040 0.233671
C17   C     C_R   0.489323 0.128394 0.503147 -0.095801
C18   C     C_R   0.424752 0.065233 0.400177 -0.234179
C19   C     C_R   0.426885 0.935655 0.398815 -0.241156
C20   C     C_R   0.490499 0.871572 0.502509 -0.101718
C21   C     C_R   0.537777 0.935440 0.614411 0.137556
C22   C     C_3   0.664823 0.927433 0.677276 -0.523741
C23   C     C_R   0.499438 0.739773 0.500091 0.875991
C24   C     C_3   0.665576 0.069471 0.675736 -0.508273
C25   C     C_R   0.486852 0.390635 0.071144 0.141162
C26   C     C_R   0.522273 0.606716 0.072067 -0.122439
C27   C     C_R   0.522226 0.606747 0.928311 -0.141059
C28   C     C_R   0.486884 0.390627 0.928452 0.160767
C29   C     C_3   0.377446 0.304807 0.922531 0.244033
C30   C     C_3   0.379449 0.303293 0.076750 -0.581426
C31   C     C_R   0.740039 0.499764 0.501583 0.863190
C32   C     C_R   0.216174 0.756059 0.127922 -0.146560
C33   C     C_R   0.170494 0.709743 0.250171 -0.118886
C34   C     C_R   0.113685 0.591624 0.254149 0.150712
C35   C     C_R   0.102723 0.521088 0.134760 -0.165918
C36   C     C_R   0.149322 0.567389 0.013346 -0.145667
H1    H     H_    0.241511 0.720518 0.915354 0.137054
H2    H     H_    0.773305 0.357868 0.116127 0.144188
H3    H     H_    0.825997 0.186890 0.956831 0.130911
H4    H     H_    0.901931 0.237000 0.727626 0.127274
H5    H     H_    0.376580 0.115377 0.319888 0.159361
H6    H     H_    0.383013 0.886122 0.315827 0.158810
H7    H     H_    0.663304 0.887168 0.781225 0.199888
H8    H     H_    0.734294 0.884595 0.608826 0.201330
H9    H     H_    0.665518 0.111173 0.778659 0.208137
H10   H     H_    0.734764 0.109638 0.605493 0.190054
H11   H     H_    0.538720 0.693319 0.125906 0.147463
H12   H     H_    0.258462 0.847698 0.124027 0.123991
H13   H     H_    0.538774 0.693334 0.874745 0.149360
H14   H     H_    0.293085 0.348754 0.876429 0.135821
H15   H     H_    0.296124 0.346664 0.122381 0.203645
H16   H     H_    0.406889 0.211390 0.120619 0.200963
H17   H     H_    0.177808 0.766128 0.341050 0.109498
H18   H     H_    0.058329 0.430227 0.135944 0.139834
H19   H     H_    0.140583 0.512657 0.921953 0.125991
H20   H     H_    0.122494 0.435894 0.702033 0.155383
H21   H     H_    0.870120 0.631204 0.816756 0.118688
H22   H     H_    0.796069 0.579596 0.045824 0.129071
N1    N     N_R   0.499160 0.499140 0.142800 -0.090440
N2    N     N_R   0.499160 0.499180 0.857150 -0.119147
O1    O     O_R   0.500020 0.316790 0.614690 -0.582195
O2    O     O_R   0.500000 0.316760 0.385350 -0.625035
O3    O     O_R   0.316770 0.500030 0.614670 -0.632422
O4    O     O_R   0.316750 0.499990 0.385330 -0.607476
O5    O     O_R   0.500000 0.683240 0.614650 -0.627362
O6    O     O_R   0.499980 0.683210 0.385310 -0.629278
O7    O     O_R   0.683250 0.500010 0.614670 -0.609248
O8    O     O_R   0.683230 0.499970 0.385330 -0.630944
Zn1   Zn    Zn3+2 0.500010 0.500020 0.653130 0.961650
Zn2   Zn    Zn3+2 0.499990 0.499980 0.346870 0.944729
O9    O     O_3   0.404998 0.187579 0.864854 -0.743395
H23   H     H_    0.482434 0.154363 0.907940 0.328010
H24   H     H_    0.877502 0.569341 0.297522 0.162858

loop_
_geom_bond_atom_site_label_1
_geom_bond_atom_site_label_2
_ccdc_geom_bond_type
C11   H2    S    
C30   H15   S    
C19   H6    S    
C16   C21   A    
O4    Zn2   S    
C29   C30   S    
C11   C13   A    
C9    C10   A    
C1    C17   S    
C19   C20   A    
C20   C23   S    
C27   N2    A    
C24   H10   S    
C32   C33   A    
C23   O5    A    
C33   C34   A    
C9    C15   A    
O9    H23   S    
C16   C24   S    
C36   H19   S    
C8    C34   S    
C21   C22   S    
C1    O2    A    
C35   H18   S    
C31   O7    A    
C32   H12   S    
C2    H1    S    
C26   C27   A    
O6    Zn2   S    
C26   H11   S    
C3    H24   S    
C24   H9    S    
N2    Zn1   S    
C23   O6    A    
C2    C32   A    
C28   C29   S    
C10   H22   S    
C17   C18   A    
C6    C7    A    
C9    H21   S    
C29   H14   S    
C28   N2    A    
C3    C8    A    
C33   H17   S    
C5    C6    A    
C12   O4    A    
C22   C24   S    
C7    C12   S    
C13   H3    S    
C4    C31   S    
C5    C15   S    
C10   C11   A    
C25   C28   A    
N1    Zn2   S    
O1    Zn1   S    
C3    C4    A    
C27   H13   S    
C7    C8    A    
C20   C21   A    
O2    Zn2   S    
O8    Zn2   S    
C34   C35   A    
C26   N1    A    
C18   H5    S    
C2    C36   A    
C25   C30   S    
O5    Zn1   S    
C12   O3    A    
C30   H16   S    
C14   C15   A    
C18   C19   A    
C25   N1    A    
O7    Zn1   S    
C13   C14   A    
C14   H4    S    
C31   O8    A    
C22   H7    S    
C22   H8    S    
O3    Zn1   S    
C16   C17   A    
C6    H20   S    
C4    C5    A    
C29   O9    S    
C35   C36   A    
C1    O1    A    
