data_mof_unit_5615.cif
_audit_creation_date              2012-12-10T16:58:23-0500
_audit_creation_method            fapswitch 2.2
_symmetry_space_group_name_H-M    P1
_symmetry_Int_Tables_number       1
_space_group_crystal_system       triclinic
_cell_length_a                    7.739944
_cell_length_b                    8.551981
_cell_length_c                    23.401682
_cell_angle_alpha                 91.083511
_cell_angle_beta                  85.653077
_cell_angle_gamma                 93.900741
_cell_volume                      1540.81948692

loop_
_atom_site_label
_atom_site_type_symbol
_atom_type_description
_atom_site_fract_x
_atom_site_fract_y
_atom_site_fract_z
_atom_type_partial_charge
C1    C     C_R   0.546065 0.794909 0.498519 0.973182
C2    C     C_R   0.339257 0.522127 0.301849 -0.290379
C3    C     C_R   0.382603 0.561446 0.767058 0.257570
C4    C     C_R   0.336730 0.524944 0.242282 0.270929
C5    C     C_R   0.508965 0.476991 0.790610 0.305901
C6    C     C_R   0.491254 0.502759 0.208220 0.296785
C7    C     C_2   0.570339 0.958500 0.497673 -0.376176
C8    C     C_2   0.429666 0.041504 0.502389 -0.376026
C9    C     C_R   0.501896 0.499504 0.610526 0.883734
C10   C     C_R   0.498089 0.499937 0.389307 0.888772
C11   C     C_R   0.411623 0.374840 0.120893 0.552323
C12   C     C_R   0.453937 0.205092 0.501504 0.972637
C13   C     C_R   0.603015 0.595564 0.877240 0.525670
C14   C     C_R   0.584284 0.617706 0.117253 0.488451
C15   C     C_R   0.435729 0.349925 0.880600 0.510897
C16   C     C_R   0.594322 0.615193 0.057014 -0.048843
C17   C     C_R   0.430106 0.349752 0.940818 -0.051622
C18   C     C_R   0.508948 0.486672 0.029063 -0.065853
C19   C     C_R   0.515141 0.478435 0.968831 -0.059514
C20   C     C_R   0.416707 0.366341 0.061269 -0.036559
C21   C     C_R   0.605355 0.599953 0.936671 -0.031848
C22   C     C_R   0.687500 0.734766 0.023869 0.217296
C23   C     C_R   0.632888 0.402367 0.755423 -0.166153
C24   C     C_R   0.339250 0.228918 0.973921 0.210186
C25   C     C_R   0.692974 0.724806 0.964231 -0.265744
C26   C     C_R   0.332325 0.239653 0.033604 -0.254145
C27   C     C_3   0.679431 0.003103 0.056591 -0.679268
C28   C     C_3   0.348846 0.961300 0.940355 -0.672770
C29   C     C_3   0.101974 0.556389 0.819563 -0.746290
C30   C     C_3   0.161905 0.701062 0.195981 -0.720898
C31   C     C_R   0.645318 0.480191 0.233478 -0.158534
C32   C     C_R   0.632008 0.411436 0.696373 -0.217812
C33   C     C_R   0.647507 0.479853 0.292528 -0.214676
C34   C     C_R   0.505503 0.493772 0.672355 -0.061084
C35   C     C_R   0.494580 0.500626 0.327097 -0.060530
C36   C     C_R   0.381181 0.568789 0.707648 -0.276160
H1    H     H_    0.763941 0.817685 0.939587 0.190391
H2    H     H_    0.296997 0.989965 0.506891 0.180027
H3    H     H_    0.014061 0.382538 0.456825 0.190739
H4    H     H_    0.985946 0.617499 0.543161 0.193563
H5    H     H_    0.900414 0.890743 0.030411 0.208380
H6    H     H_    0.659111 0.051448 0.014049 0.209492
H7    H     H_    0.752259 0.094009 0.081422 0.243565
H8    H     H_    0.551604 0.974573 0.080311 0.264878
H9    H     H_    0.127314 0.071566 0.967525 0.208860
H10   H     H_    0.370650 0.912204 0.982645 0.208479
H11   H     H_    0.475926 0.991152 0.916368 0.269524
H12   H     H_    0.261126 0.146858 0.058223 0.190177
H13   H     H_    0.276077 0.870492 0.915447 0.248556
H14   H     H_    0.242153 0.753523 0.787495 0.249516
H15   H     H_    0.027799 0.529034 0.781349 0.244418
H16   H     H_    0.022455 0.626568 0.850587 0.263017
H17   H     H_    0.126665 0.445798 0.840575 0.265444
H18   H     H_    0.069338 0.504415 0.241624 0.220084
H19   H     H_    0.037950 0.704000 0.175145 0.264322
H20   H     H_    0.269874 0.734852 0.163751 0.252478
H21   H     H_    0.161382 0.787241 0.232138 0.246609
H22   H     H_    0.730746 0.338863 0.774026 0.152662
H23   H     H_    0.763420 0.462123 0.207007 0.154681
H24   H     H_    0.728521 0.352646 0.669519 0.169154
H25   H     H_    0.768789 0.462440 0.311000 0.163591
H26   H     H_    0.284556 0.634269 0.689177 0.162429
H27   H     H_    0.220363 0.538215 0.328206 0.161268
H28   H     H_    0.703009 0.010040 0.493175 0.180073
N1    N     N_R   0.493306 0.499466 0.147286 -0.351422
N2    N     N_R   0.517301 0.473257 0.850989 -0.346187
N3    N     N_2   0.950330 0.457950 0.484560 -0.176220
N4    N     N_2   0.049670 0.542050 0.515440 -0.174263
N5    N     N_2   0.777648 0.865089 0.049675 -0.254983
N6    N     N_2   0.249527 0.098453 0.948032 -0.257966
N7    N     N_2   0.263298 0.644971 0.803102 -0.314514
N8    N     N_2   0.178483 0.545066 0.216845 -0.304060
O1    O     O_R   0.389250 0.738570 0.503790 -0.612988
O2    O     O_2   0.683772 0.713324 0.845649 -0.576033
O3    O     O_2   0.663724 0.736624 0.146116 -0.536969
O4    O     O_2   0.358511 0.230361 0.851459 -0.536225
O5    O     O_R   0.610750 0.261430 0.496210 -0.613081
O6    O     O_R   0.678390 0.711620 0.493890 -0.628553
O7    O     O_R   0.321610 0.288380 0.506110 -0.628509
O8    O     O_R   0.355400 0.513520 0.588790 -0.616670
O9    O     O_R   0.644600 0.486480 0.411210 -0.622421
O10   O     O_R   0.644550 0.486570 0.578900 -0.628978
O11   O     O_R   0.355450 0.513430 0.421100 -0.629491
O12   O     O_2   0.327602 0.258678 0.152494 -0.561759
Zn1   Zn    Zn3+2 0.306930 0.518000 0.506610 0.946775
Zn2   Zn    Zn3+2 0.693070 0.482000 0.493390 0.944689

loop_
_geom_bond_atom_site_label_1
_geom_bond_atom_site_label_2
_ccdc_geom_bond_type
C2    C35   A    
C23   H22   S    
C30   H21   S    
C28   H11   S    
C1    O6    A    
C3    N7    S    
C4    N8    S    
C24   N6    S    
C7    C8    D    
C28   H10   S    
C29   H17   S    
C19   C21   A    
C24   C26   A    
C33   C35   A    
C12   O7    A    
C10   O11   A    
C18   C19   A    
C31   H23   S    
C25   H1    S    
C27   H8    S    
C6    N1    S    
C22   C25   A    
C31   C33   A    
C10   C35   S    
C22   N5    S    
C18   C20   A    
O9    Zn2   S    
C27   N5    S    
C26   H12   S    
C9    O10   A    
O6    Zn2   S    
C6    C31   A    
N4    Zn1   S    
C8    H2    S    
C36   H26   S    
C13   N2    A    
C11   C20   A    
C17   C24   A    
N3    N4    D    
C4    C6    A    
O10   Zn2   S    
C15   N2    A    
C30   H20   S    
C9    O8    A    
C32   C34   A    
C2    C4    A    
H14   N7    S    
O8    Zn1   S    
C28   H13   S    
C5    C23   A    
C8    C12   S    
C12   O5    A    
C13   C21   A    
O1    Zn1   S    
C33   H25   S    
O11   Zn1   S    
O5    Zn2   S    
C9    C34   S    
C14   C16   A    
C32   H24   S    
O7    Zn1   S    
C2    H27   S    
H5    N5    S    
C29   H15   S    
C15   C17   A    
C21   C25   A    
N3    Zn2   S    
C16   C22   A    
H9    N6    S    
C1    C7    S    
H3    N3    S    
C28   N6    S    
C5    N2    S    
C3    C5    A    
C30   N8    S    
C11   O12   S    
C30   H19   S    
C10   O9    A    
C1    O1    A    
C23   C32   A    
C14   O3    S    
C27   H6    S    
C20   C26   A    
C3    C36   A    
C17   C19   A    
C14   N1    A    
C15   O4    S    
C34   C36   A    
C7    H28   S    
C27   H7    S    
H18   N8    S    
C13   O2    S    
C16   C18   A    
H4    N4    S    
C11   N1    A    
C29   N7    S    
C29   H16   S    
