data_mof_unit_14921.cif
_audit_creation_date              2012-12-10T17:44:32-0500
_audit_creation_method            fapswitch 2.2
_symmetry_space_group_name_H-M    P1
_symmetry_Int_Tables_number       1
_space_group_crystal_system       triclinic
_cell_length_a                    10.02235
_cell_length_b                    10.667243
_cell_length_c                    15.308866
_cell_angle_alpha                 93.550581
_cell_angle_beta                  69.818258
_cell_angle_gamma                 87.751367
_cell_volume                      1530.03607811

loop_
_atom_site_label
_atom_site_type_symbol
_atom_type_description
_atom_site_fract_x
_atom_site_fract_y
_atom_site_fract_z
_atom_type_partial_charge
C1    C     C_R   0.501056 0.738782 0.491227 0.906150
C2    C     C_R   0.443414 0.371425 0.891727 0.046892
C3    C     C_R   0.298526 0.363788 0.946999 0.162252
C4    C     C_R   0.547741 0.377849 0.935270 0.048104
C5    C     C_R   0.504273 0.372198 0.033509 0.077336
C6    C     C_R   0.364441 0.338037 0.082033 -0.227022
C7    C     C_R   0.262163 0.336784 0.039741 -0.230217
C8    C     C_R   0.689767 0.404401 0.885788 -0.190690
C9    C     C_R   0.784051 0.431691 0.931311 -0.232310
C10   C     C_R   0.737514 0.443105 0.028137 0.165451
C11   C     C_R   0.598263 0.410616 0.080374 0.094569
C12   C     C_R   0.413550 0.486556 0.673533 0.851474
C13   C     C_R   0.825971 0.493625 0.073370 -0.228175
C14   C     C_R   0.779063 0.510424 0.170167 -0.194324
C15   C     C_R   0.553312 0.429719 0.177880 -0.263141
C16   C     C_R   0.238964 0.906661 0.504065 -0.283350
C17   C     C_R   0.111346 0.979830 0.550020 0.081512
C18   C     C_R   0.113063 0.090501 0.603212 0.336611
C19   C     C_R   0.242948 0.135286 0.599938 -0.232013
C20   C     C_R   0.371820 0.069964 0.542710 0.032113
C21   C     C_R   0.369274 0.946504 0.508733 0.044056
C22   C     C_R   0.499188 0.871600 0.476803 -0.121732
C23   C     C_R   0.499891 0.260905 0.505349 0.872333
C24   C     C_R   0.629300 0.928439 0.447061 0.086288
C25   C     C_R   0.629917 0.057211 0.463673 -0.236441
C26   C     C_R   0.501770 0.127550 0.511326 -0.100165
C27   C     C_R   0.777055 0.625205 0.653940 0.132904
C28   C     C_R   0.799259 0.645930 0.738273 -0.329632
C29   C     C_R   0.935886 0.650375 0.738943 0.042554
C30   C     C_R   0.050538 0.626561 0.654484 0.148947
C31   C     C_R   0.030338 0.561785 0.575148 0.041055
C32   C     C_R   0.886127 0.561568 0.574960 0.103281
C33   C     C_R   0.967310 0.438372 0.430925 -0.140764
C34   C     C_R   0.588596 0.496807 0.324350 0.852569
C35   C     C_R   0.109884 0.436010 0.431321 0.180914
C36   C     C_R   0.370646 0.439777 0.766517 -0.070063
C37   C     C_R   0.641835 0.479733 0.222567 -0.052764
C38   C     C_R   0.192078 0.386430 0.908904 -0.203248
C39   C     C_R   0.227153 0.435127 0.821908 -0.239167
C40   C     C_R   0.475831 0.383692 0.795768 0.018888
H1    H     H_    0.152946 0.321270 0.081128 0.147402
H2    H     H_    0.928843 0.525859 0.034094 0.137935
H3    H     H_    0.234456 0.821976 0.462868 0.189312
H4    H     H_    0.242755 0.224068 0.638393 0.187852
H5    H     H_    0.729337 0.102344 0.435996 0.168717
H6    H     H_    0.944635 0.387357 0.374856 0.135269
H7    H     H_    0.712288 0.685142 0.799681 0.168391
H8    H     H_    0.447917 0.409839 0.220864 0.174445
H9    H     H_    0.848374 0.550457 0.203828 0.159480
H10   H     H_    0.891517 0.451937 0.890376 0.154371
H11   H     H_    0.082160 0.373269 0.948400 0.145218
H12   H     H_    0.143368 0.464462 0.796641 0.179257
H13   H     H_    0.329419 0.316441 0.153787 0.143098
H14   H     H_    0.729605 0.412439 0.812091 0.184904
N1    N     N_R   0.856800 0.501200 0.500850 -0.107120
N2    N     N_R   0.142390 0.501280 0.500880 -0.103304
O1    O     O_R   0.385310 0.683220 0.500000 -0.614004
O2    O     O_R   0.614640 0.683250 0.500010 -0.572142
O3    O     O_R   0.319840 0.499980 0.632240 -0.611620
O4    O     O_R   0.549160 0.500000 0.632250 -0.596945
O5    O     O_R   0.385360 0.316750 0.499990 -0.622629
O6    O     O_R   0.614690 0.316780 0.500000 -0.605312
O7    O     O_R   0.450840 0.500000 0.367750 -0.597123
O8    O     O_R   0.680160 0.500020 0.367760 -0.618609
Zn1   Zn    Zn3+2 0.346880 0.499980 0.499990 0.957012
Zn2   Zn    Zn3+2 0.653120 0.500020 0.500010 0.963883
N3    N     N_3   0.758720 0.855813 0.394554 -0.441248
H15   H     H_    0.809439 0.898778 0.333171 0.173550
H16   H     H_    0.824443 0.856080 0.434366 0.192996
N4    N     N_3   0.980854 0.942413 0.541761 -0.422293
H17   H     H_    0.994743 0.940983 0.470941 0.170881
H18   H     H_    0.965897 0.850614 0.561786 0.175967
Br1   Br    Br    0.941786 0.188961 0.673076 -0.607233
N5    N     N_3   0.666608 0.704611 0.643819 -0.362691
H19   H     H_    0.701332 0.795939 0.637474 0.180595
H20   H     H_    0.575833 0.708201 0.704201 0.169150
N6    N     N_3   0.958128 0.708722 0.819448 -0.486632
H21   H     H_    0.899527 0.664415 0.878217 0.191500
H22   H     H_    0.917220 0.802247 0.829083 0.204868
N7    N     N_3   0.169751 0.700275 0.644722 -0.364172
H23   H     H_    0.203849 0.690766 0.701406 0.198927
H24   H     H_    0.132031 0.794303 0.653500 0.177933
N8    N     N_3   0.220369 0.361308 0.359748 -0.431403
H25   H     H_    0.247824 0.284458 0.390526 0.213494
H26   H     H_    0.181198 0.323605 0.309469 0.129314
N9    N     N_3   0.589303 0.305085 0.727813 -0.430316
H27   H     H_    0.675058 0.357920 0.694517 0.239749
H28   H     H_    0.624066 0.232982 0.759662 0.228299

loop_
_geom_bond_atom_site_label_1
_geom_bond_atom_site_label_2
_ccdc_geom_bond_type
C33   N1    A    
O7    Zn1   S    
C28   H7    S    
C16   C21   A    
C34   C37   S    
C19   C20   A    
C4    C8    A    
N6    H21   S    
N5    H20   S    
C28   C29   A    
C5    C11   A    
C3    C7    A    
C5    C6    A    
N9    H28   S    
C14   H9    S    
N2    Zn1   S    
C18   C19   A    
C23   C26   S    
C40   N9    S    
C15   C37   A    
C24   N3    S    
C12   O3    A    
C11   C15   A    
O2    Zn2   S    
C23   O6    A    
N8    H25   S    
C3    C38   A    
C8    C9    A    
C2    C40   A    
N4    H17   S    
C31   N2    A    
C12   C36   S    
C27   N5    S    
C9    C10   A    
C32   N1    A    
C30   N7    S    
C39   H12   S    
C35   N2    A    
O4    Zn2   S    
C1    C22   S    
C21   C22   A    
C33   H6    S    
C15   H8    S    
C13   H2    S    
N6    H22   S    
C38   C39   A    
N5    H19   S    
O6    Zn2   S    
N3    H15   S    
C36   C40   A    
C24   C25   A    
N7    H24   S    
C8    H14   S    
C35   N8    S    
N9    H27   S    
C16   C17   A    
C38   H11   S    
C25   C26   A    
N3    H16   S    
O8    Zn2   S    
C2    C4    A    
C29   C30   A    
C1    O1    A    
C31   C32   A    
C23   O5    A    
C34   O8    A    
C17   C18   A    
C16   H3    S    
N8    H26   S    
C18   Br1   S    
C22   C24   A    
C6    H13   S    
C25   H5    S    
N1    Zn2   S    
C19   H4    S    
C27   C32   A    
C36   C39   A    
C9    H10   S    
O1    Zn1   S    
N7    H23   S    
C10   C13   A    
C6    C7    A    
C2    C3    A    
C1    O2    A    
O3    Zn1   S    
C14   C37   A    
C30   C31   A    
C20   C26   A    
C4    C5    A    
C34   O7    A    
C33   C35   A    
C7    H1    S    
C10   C11   A    
C12   O4    A    
O5    Zn1   S    
C17   N4    S    
C29   N6    S    
C20   C21   A    
C27   C28   A    
N4    H18   S    
C13   C14   A    
