data_mof_unit_26514.cif
_audit_creation_date              2012-10-26T17:11:06-0400
_audit_creation_method            fapswitch 2.2
_symmetry_space_group_name_H-M    P1
_symmetry_Int_Tables_number       1
_space_group_crystal_system       triclinic
_cell_length_a                    28.062469
_cell_length_b                    18.737982
_cell_length_c                    16.870186
_cell_angle_alpha                 89.925933
_cell_angle_beta                  62.687561
_cell_angle_gamma                 89.886215
_cell_volume                      7881.950879

loop_
_atom_site_label
_atom_site_type_symbol
_atom_type_description
_atom_site_fract_x
_atom_site_fract_y
_atom_site_fract_z
_atom_type_partial_charge
C1    C     C_R   0.294972 0.728515 0.329424 0.586701
C2    C     C_R   0.459973 0.123251 0.472184 -0.137616
C3    C     C_R   0.926580 0.097264 0.066264 0.570386
C4    C     C_R   0.426608 0.402748 0.066280 0.569958
C5    C     C_R   0.573539 0.597071 0.933608 0.569786
C6    C     C_R   0.573368 0.402684 0.933778 0.570258
C7    C     C_R   0.426591 0.597279 0.066258 0.570140
C8    C     C_R   0.048674 0.502381 0.505224 0.038340
C9    C     C_R   0.952903 0.502176 0.489845 0.038420
C10   C     C_R   0.535859 0.000170 0.547364 0.038092
C11   C     C_R   0.442734 0.000361 0.522009 0.036584
C12   C     C_R   0.022383 0.567233 0.508005 0.012355
C13   C     C_R   0.422649 0.879018 0.576156 -0.136333
C14   C     C_R   0.975239 0.437742 0.500199 0.015533
C15   C     C_R   0.978838 0.567157 0.487347 0.012394
C16   C     C_R   0.026965 0.437912 0.493787 0.015468
C17   C     C_R   0.515261 0.064762 0.532339 0.013574
C18   C     C_R   0.457808 0.937558 0.552137 0.016237
C19   C     C_R   0.472392 0.063680 0.510091 0.012689
C20   C     C_R   0.506869 0.936153 0.558473 0.016386
C21   C     C_R   0.126300 0.437626 0.499111 0.009221
C22   C     C_R   0.885191 0.565230 0.462751 0.010956
C23   C     C_R   0.875100 0.437230 0.497282 0.009775
C24   C     C_R   0.536329 0.128793 0.545230 -0.140848
C25   C     C_R   0.115469 0.565418 0.534435 0.011252
C26   C     C_R   0.609394 0.935076 0.557499 0.010049
C27   C     C_R   0.381997 0.063177 0.475748 0.011734
C28   C     C_R   0.366537 0.937654 0.519367 0.008460
C29   C     C_R   0.610972 0.065718 0.550707 0.010714
C30   C     C_R   0.172150 0.436171 0.514870 -0.023296
C31   C     C_R   0.833886 0.565256 0.464250 -0.024245
C32   C     C_R   0.828450 0.436024 0.483552 -0.023419
C33   C     C_R   0.166382 0.565305 0.534549 -0.024234
C34   C     C_R   0.663560 0.934739 0.544914 -0.024813
C35   C     C_R   0.058691 0.376502 0.471327 -0.141297
C36   C     C_R   0.332725 0.064387 0.469788 -0.026187
C37   C     C_R   0.325059 0.935993 0.492603 -0.022697
C38   C     C_R   0.664151 0.065486 0.542446 -0.023977
C39   C     C_R   0.191999 0.500300 0.529942 -0.163035
C40   C     C_R   0.808166 0.500322 0.469517 -0.163033
C41   C     C_R   0.689205 0.000030 0.538987 -0.162357
C42   C     C_R   0.307488 0.999865 0.472094 -0.161691
C43   C     C_R   0.096779 0.501756 0.513542 0.035182
C44   C     C_R   0.904449 0.501461 0.482592 0.035328
C45   C     C_R   0.585652 0.000225 0.551513 0.037075
C46   C     C_R   0.961878 0.628834 0.460631 -0.139244
C47   C     C_R   0.397240 0.000282 0.505202 0.036289
C48   C     C_R   0.577318 0.873205 0.577447 -0.111498
C49   C     C_R   0.416681 0.122285 0.453307 -0.107189
C50   C     C_R   0.377428 0.879929 0.562406 -0.115445
C51   C     C_R   0.580996 0.128712 0.560078 -0.109549
C52   C     C_R   0.109002 0.378024 0.467621 -0.113515
C53   C     C_R   0.918024 0.626620 0.443133 -0.105965
C54   C     C_R   0.893389 0.377371 0.527081 -0.113669
C55   C     C_R   0.082463 0.626750 0.553533 -0.106100
C56   C     C_1   0.170596 0.651433 0.010496 0.197363
C57   C     C_R   0.944020 0.376031 0.522137 -0.141642
C58   C     C_1   0.829135 0.349448 0.990456 0.184921
C59   C     C_1   0.831115 0.650142 0.988212 0.198243
C60   C     C_1   0.170247 0.348217 0.009999 0.185232
C61   C     C_1   0.670936 0.150138 0.009439 0.198005
C62   C     C_1   0.330219 0.849387 0.988863 0.183644
C63   C     C_1   0.330238 0.150565 0.989612 0.197932
C64   C     C_1   0.670296 0.847265 0.010630 0.186045
C65   C     C_R   0.038876 0.628890 0.535273 -0.139614
C66   C     C_R   0.219739 0.765650 0.955723 0.032294
C67   C     C_R   0.780127 0.235106 0.045139 -0.012547
C68   C     C_R   0.781341 0.764058 0.043397 0.031634
C69   C     C_R   0.705208 0.271668 0.670620 0.552423
C70   C     C_R   0.220094 0.234343 0.954805 -0.012641
C71   C     C_R   0.719357 0.264977 0.956000 0.032096
C72   C     C_R   0.280458 0.735710 0.044915 -0.012327
C73   C     C_R   0.280934 0.264919 0.043635 0.031890
C74   C     C_R   0.720492 0.733715 0.954492 -0.012818
C75   C     C_R   0.259328 0.813573 0.950801 -0.127156
C76   C     C_R   0.741033 0.186712 0.049081 -0.145265
C77   C     C_R   0.741452 0.811746 0.048459 -0.125624
C78   C     C_R   0.259646 0.186382 0.950528 -0.145040
C79   C     C_R   0.758596 0.313235 0.951738 -0.126918
C80   C     C_R   0.705110 0.728363 0.670514 0.577808
C81   C     C_R   0.241029 0.687643 0.049482 -0.145308
C82   C     C_R   0.241247 0.312745 0.048210 -0.126592
C83   C     C_R   0.760244 0.685875 0.949723 -0.144870
C84   C     C_R   0.289767 0.799028 0.995147 -0.013803
C85   C     C_R   0.710653 0.201158 0.004609 0.005577
C86   C     C_R   0.710980 0.797028 0.004258 -0.013319
C87   C     C_R   0.290057 0.201177 0.994825 0.005585
C88   C     C_R   0.789056 0.298727 0.996052 -0.013585
C89   C     C_R   0.210670 0.702125 0.004995 0.005048
C90   C     C_R   0.210766 0.297892 0.004065 -0.013514
C91   C     C_R   0.294775 0.271704 0.329408 0.551412
C92   C     C_R   0.790676 0.700569 0.994033 0.005645
C93   C     C_R   0.142806 0.825641 0.947855 0.075133
C94   C     C_R   0.856936 0.174520 0.052691 0.088582
C95   C     C_R   0.857734 0.825028 0.051772 0.075183
C96   C     C_R   0.143435 0.173617 0.947063 0.088820
C97   C     C_R   0.642525 0.325179 0.948042 0.074863
C98   C     C_R   0.357131 0.674842 0.052566 0.088701
C99   C     C_R   0.357520 0.325413 0.051911 0.075219
C100  C     C_R   0.643748 0.673119 0.946849 0.088663
C101  C     C_R   0.117664 0.850534 0.896975 0.018088
C102  C     C_R   0.794943 0.228459 0.329438 0.586222
C103  C     C_R   0.882360 0.149564 0.103154 0.017655
C104  C     C_R   0.882524 0.850354 0.102945 0.018358
C105  C     C_R   0.117852 0.149132 0.896688 0.017537
C106  C     C_R   0.617538 0.350344 0.897048 0.018161
C107  C     C_R   0.382433 0.649669 0.103119 0.017353
C108  C     C_R   0.382432 0.350505 0.102998 0.018109
C109  C     C_R   0.617976 0.648957 0.896619 0.017548
C110  C     C_R   0.137786 0.829816 0.807788 -0.188425
C111  C     C_R   0.862597 0.170387 0.192195 -0.195118
C112  C     C_R   0.862268 0.829756 0.192225 -0.188341
C113  C     C_R   0.205260 0.771767 0.670592 0.548891
C114  C     C_R   0.137542 0.170198 0.807726 -0.195145
C115  C     C_R   0.637722 0.329735 0.807809 -0.188433
C116  C     C_R   0.362616 0.670394 0.192207 -0.195091
C117  C     C_R   0.362200 0.329851 0.192249 -0.188525
C118  C     C_R   0.637554 0.670215 0.807746 -0.197111
C119  C     C_R   0.183318 0.786525 0.767020 -0.015381
C120  C     C_R   0.817282 0.213920 0.233047 0.015097
C121  C     C_R   0.817132 0.785875 0.232702 -0.015670
C122  C     C_R   0.182854 0.213584 0.766876 0.015209
C123  C     C_R   0.683142 0.286231 0.767125 -0.015296
C124  C     C_R   0.205106 0.228367 0.670513 0.585452
C125  C     C_R   0.317393 0.714099 0.232990 0.015011
C126  C     C_R   0.316862 0.286341 0.232862 -0.015479
C127  C     C_R   0.682911 0.713516 0.766854 0.015173
C128  C     C_R   0.209021 0.762431 0.818007 0.087218
C129  C     C_R   0.791467 0.238488 0.182989 0.089680
C130  C     C_R   0.792111 0.760796 0.181187 0.088022
C131  C     C_R   0.208732 0.237801 0.816892 0.089644
C132  C     C_R   0.708635 0.261756 0.818276 0.087724
C133  C     C_R   0.291749 0.738974 0.182804 0.089468
C134  C     C_R   0.291500 0.261890 0.181596 0.087585
C135  C     C_R   0.794861 0.771535 0.329363 0.558412
C136  C     C_R   0.708908 0.737537 0.816774 0.090020
C137  C     C_R   0.188991 0.783239 0.907117 0.043520
C138  C     C_R   0.810927 0.217439 0.093656 0.010295
C139  C     C_R   0.812004 0.781859 0.092118 0.043696
C140  C     C_R   0.189386 0.216520 0.906164 0.010050
C141  C     C_R   0.688608 0.282575 0.907392 0.043480
C142  C     C_R   0.311226 0.717960 0.093453 0.010510
C143  C     C_R   0.311544 0.282723 0.092432 0.043428
C144  C     C_R   0.689705 0.716012 0.905933 0.009811
C145  C     C_R   0.196959 0.631751 0.526456 0.550422
C146  C     C_R   0.527858 0.873418 0.576612 -0.133688
C147  C     C_R   0.800291 0.369059 0.483457 0.554891
C148  C     C_R   0.803100 0.631794 0.473289 0.549701
C149  C     C_R   0.199875 0.369046 0.516069 0.554448
C150  C     C_R   0.696796 0.131658 0.526841 0.550448
C151  C     C_R   0.299161 0.868964 0.486602 0.554294
C152  C     C_R   0.302937 0.131479 0.474475 0.548704
C153  C     C_R   0.696427 0.868237 0.528163 0.548869
C154  C     C_R   0.926609 0.902744 0.066283 0.569975
C155  C     C_R   0.073499 0.097123 0.933637 0.569967
C156  C     C_R   0.073397 0.902725 0.933758 0.569983
Cu1   Cu    Cu3+1 0.209920 0.785290 0.495070 0.950326
Cu2   Cu    Cu3+1 0.504760 0.500000 0.075850 0.980573
Cu3   Cu    Cu3+1 0.995240 0.000000 0.924150 0.979257
Cu4   Cu    Cu3+1 0.004760 0.000000 0.075850 0.979171
Cu5   Cu    Cu3+1 0.790080 0.214710 0.504930 0.914143
Cu6   Cu    Cu3+1 0.790080 0.785290 0.504930 0.950874
Cu7   Cu    Cu3+1 0.209920 0.214710 0.495070 0.914250
Cu8   Cu    Cu3+1 0.709920 0.285290 0.495070 0.948847
Cu9   Cu    Cu3+1 0.290080 0.714710 0.504930 0.917991
Cu10  Cu    Cu3+1 0.290080 0.285290 0.504930 0.952735
Cu11  Cu    Cu3+1 0.709920 0.714710 0.495070 0.914842
Cu12  Cu    Cu3+1 0.495240 0.500000 0.924150 0.976565
H1    H     H_    0.229031 0.499912 0.535270 0.161763
H2    H     H_    0.911558 0.673510 0.412219 0.152672
H3    H     H_    0.869207 0.331319 0.558188 0.152309
H4    H     H_    0.088448 0.673593 0.584883 0.153181
H5    H     H_    0.507534 0.822799 0.588369 0.107001
H6    H     H_    0.484961 0.170366 0.452933 0.110236
H7    H     H_    0.428104 0.832380 0.608645 0.106091
H8    H     H_    0.516789 0.179409 0.549026 0.108695
H9    H     H_    0.046418 0.328273 0.450449 0.112028
H10   H     H_    0.984205 0.678158 0.447878 0.110268
H11   H     H_    0.956869 0.327680 0.542050 0.111941
H12   H     H_    0.770692 0.500105 0.465619 0.161819
H13   H     H_    0.016315 0.678115 0.548020 0.110262
H14   H     H_    0.266312 0.862291 0.912253 0.117798
H15   H     H_    0.734412 0.137680 0.086932 0.120549
H16   H     H_    0.734249 0.860449 0.087017 0.119715
H17   H     H_    0.266628 0.137431 0.912506 0.120288
H18   H     H_    0.765292 0.362193 0.913722 0.118161
H19   H     H_    0.234130 0.638833 0.087834 0.120379
H20   H     H_    0.234190 0.361628 0.086386 0.118218
H21   H     H_    0.767377 0.637108 0.911303 0.120396
H22   H     H_    0.118769 0.849528 0.768835 0.160241
H23   H     H_    0.730289 0.999889 0.528502 0.161653
H24   H     H_    0.881636 0.150533 0.231050 0.160609
H25   H     H_    0.880870 0.850015 0.231467 0.159955
H26   H     H_    0.118418 0.150675 0.768945 0.160696
H27   H     H_    0.618851 0.349704 0.768748 0.160107
H28   H     H_    0.381536 0.650331 0.231148 0.161011
H29   H     H_    0.380991 0.349774 0.231360 0.160267
H30   H     H_    0.618307 0.650907 0.769058 0.158834
H31   H     H_    0.113525 0.797013 0.077992 0.233804
H32   H     H_    0.151165 0.872571 0.049382 0.229022
H33   H     H_    0.847947 0.127196 0.951977 0.235855
H34   H     H_    0.272639 0.999672 0.460325 0.161335
H35   H     H_    0.885804 0.202568 0.922443 0.240851
H36   H     H_    0.887439 0.796764 0.921500 0.233725
H37   H     H_    0.849059 0.871811 0.950321 0.228924
H38   H     H_    0.152808 0.125729 0.047243 0.235484
H39   H     H_    0.114708 0.201031 0.077440 0.240839
H40   H     H_    0.613098 0.296367 0.078140 0.233707
H41   H     H_    0.650780 0.371885 0.049787 0.229131
H42   H     H_    0.348070 0.627732 0.951800 0.235867
H43   H     H_    0.386188 0.702871 0.922276 0.238977
H44   H     H_    0.387134 0.296808 0.921772 0.233903
H45   H     H_    0.588410 0.823827 0.597362 0.154135
H46   H     H_    0.349133 0.372191 0.950191 0.228893
H47   H     H_    0.653408 0.624816 0.046532 0.235809
H48   H     H_    0.615245 0.700055 0.077341 0.241872
H49   H     H_    0.247712 0.670464 0.757528 0.261404
H50   H     H_    0.288071 0.745278 0.732085 0.243415
H51   H     H_    0.712667 0.258078 0.220676 0.230269
H52   H     H_    0.752892 0.331198 0.186379 0.239209
H53   H     H_    0.754942 0.668171 0.241738 0.259157
H54   H     H_    0.713220 0.741633 0.265962 0.255896
H55   H     H_    0.287529 0.257155 0.779053 0.230486
H56   H     H_    0.412413 0.167741 0.417734 0.150701
H57   H     H_    0.247215 0.330343 0.813645 0.239086
H58   H     H_    0.746955 0.169626 0.757708 0.260747
H59   H     H_    0.787663 0.244049 0.732695 0.247287
H60   H     H_    0.213034 0.759116 0.220396 0.230412
H61   H     H_    0.253548 0.831949 0.185925 0.239250
H62   H     H_    0.253401 0.169729 0.242152 0.260736
H63   H     H_    0.212499 0.244130 0.267043 0.246834
H64   H     H_    0.787732 0.756915 0.778684 0.230707
H65   H     H_    0.747374 0.830039 0.813765 0.238453
H66   H     H_    0.350422 0.835408 0.589465 0.145340
H67   H     H_    0.589704 0.178980 0.581174 0.157273
H68   H     H_    0.133778 0.332322 0.436484 0.151372
N1    N     N_1   0.138466 0.610824 0.014856 -0.264796
N2    N     N_3   0.877328 0.155746 0.960234 -0.585943
N3    N     N_3   0.878464 0.843652 0.959180 -0.591290
N4    N     N_3   0.123261 0.154394 0.039365 -0.585783
N5    N     N_3   0.621639 0.343414 0.040754 -0.591273
N6    N     N_3   0.377523 0.656058 0.960111 -0.587373
N7    N     N_3   0.378382 0.343797 0.959229 -0.591165
N8    N     N_3   0.623769 0.653561 0.039013 -0.584999
N9    N     N_3   0.255887 0.717706 0.781837 -0.621206
N10   N     N_3   0.745019 0.283825 0.223004 -0.588640
N11   N     N_3   0.746117 0.714694 0.216769 -0.618363
N12   N     N_1   0.861264 0.390085 0.986032 -0.261397
N13   N     N_3   0.255115 0.283068 0.776901 -0.588396
N14   N     N_3   0.755284 0.216632 0.782257 -0.620300
N15   N     N_3   0.245478 0.784627 0.222687 -0.588526
N16   N     N_3   0.244973 0.216737 0.217542 -0.620340
N17   N     N_3   0.755252 0.782875 0.776811 -0.588661
N18   N     N_1   0.863542 0.609749 0.983573 -0.264061
N19   N     N_1   0.137762 0.388533 0.014698 -0.261659
N20   N     N_1   0.639096 0.109259 0.013250 -0.264767
N21   N     N_1   0.362650 0.889732 0.983870 -0.263256
N22   N     N_1   0.362453 0.110013 0.985481 -0.264394
N23   N     N_1   0.637682 0.887502 0.015689 -0.261699
N24   N     N_3   0.122002 0.844002 0.040514 -0.591310
O1    O     O_R   0.255040 0.869590 0.478480 -0.507362
O2    O     O_R   0.817950 0.203450 0.375560 -0.516947
O3    O     O_R   0.817950 0.796550 0.375560 -0.514768
O4    O     O_R   0.182050 0.203450 0.624440 -0.516754
O5    O     O_R   0.682050 0.296550 0.624440 -0.517142
O6    O     O_R   0.317950 0.703450 0.375560 -0.515994
O7    O     O_R   0.317950 0.296550 0.375560 -0.516104
O8    O     O_R   0.682050 0.703450 0.624440 -0.526371
O9    O     O_R   0.250530 0.763330 0.367210 -0.455507
O10   O     O_R   0.749470 0.236670 0.632790 -0.527490
O11   O     O_R   0.749470 0.763330 0.632790 -0.457067
O12   O     O_R   0.744960 0.130410 0.521520 -0.508151
O13   O     O_R   0.250530 0.236670 0.367210 -0.528144
O14   O     O_R   0.750530 0.263330 0.367210 -0.455568
O15   O     O_R   0.249470 0.736670 0.632790 -0.530857
O16   O     O_R   0.249470 0.263330 0.632790 -0.455560
O17   O     O_R   0.750530 0.736670 0.367210 -0.517744
O18   O     O_R   0.177260 0.690030 0.513710 -0.521018
O19   O     O_R   0.822740 0.309970 0.486290 -0.522405
O20   O     O_R   0.822740 0.690030 0.486290 -0.520386
O21   O     O_R   0.177260 0.309970 0.513710 -0.521484
O22   O     O_R   0.677260 0.190030 0.513710 -0.523143
O23   O     O_R   0.744960 0.869590 0.521520 -0.505160
O24   O     O_R   0.322740 0.809970 0.486290 -0.516437
O25   O     O_R   0.322740 0.190030 0.486290 -0.518852
O26   O     O_R   0.677260 0.809970 0.513710 -0.521114
O27   O     O_R   0.051640 0.926880 0.885090 -0.527543
O28   O     O_R   0.948360 0.073120 0.114910 -0.526038
O29   O     O_R   0.948360 0.926880 0.114910 -0.527355
O30   O     O_R   0.051640 0.073120 0.885090 -0.525864
O31   O     O_R   0.551640 0.426880 0.885090 -0.527463
O32   O     O_R   0.448360 0.573120 0.114910 -0.525707
O33   O     O_R   0.448360 0.426880 0.114910 -0.527236
O34   O     O_R   0.255040 0.130410 0.478480 -0.507674
O35   O     O_R   0.551640 0.573120 0.885090 -0.526874
O36   O     O_R   0.940620 0.926560 0.986760 -0.464733
O37   O     O_R   0.059380 0.073440 0.013240 -0.465361
O38   O     O_R   0.059380 0.926560 0.013240 -0.464730
O39   O     O_R   0.940620 0.073440 0.986760 -0.465362
O40   O     O_R   0.440620 0.426560 0.986760 -0.464706
O41   O     O_R   0.559380 0.573440 0.013240 -0.464852
O42   O     O_R   0.559380 0.426560 0.013240 -0.464581
O43   O     O_R   0.440620 0.573440 0.986760 -0.465935
O44   O     O_R   0.755040 0.369590 0.478480 -0.506089
O45   O     O_R   0.244960 0.630410 0.521520 -0.508621
O46   O     O_R   0.244960 0.369590 0.521520 -0.506587
O47   O     O_R   0.755040 0.630410 0.478480 -0.508717
O48   O     O_R   0.182050 0.796550 0.624440 -0.517613

loop_
_geom_bond_atom_site_label_1
_geom_bond_atom_site_label_2
_ccdc_geom_bond_type
Cu1   O1    S    
C28   C47   A    
H48   N8    S    
C153  O23   A    
C36   C42   A    
Cu9   O24   S    
Cu2   O32   S    
C74   C83   A    
C72   C142  S    
C154  O36   A    
C13   C18   A    
C99   C143  A    
H49   N9    S    
C16   C35   A    
C69   O5    A    
C69   C123  S    
C51   H67   S    
C37   C42   A    
C67   C138  S    
Cu11  O8    S    
H35   N2    S    
C115  H27   S    
C131  C140  A    
H31   N24   S    
C40   H12   S    
Cu7   O21   S    
C10   C20   A    
C102  O2    A    
C134  N16   S    
C117  C126  A    
C119  C128  A    
C24   C51   A    
C100  C109  A    
C8    C16   A    
H36   N3    S    
C91   O7    A    
C55   C65   A    
C109  C118  A    
H32   N24   S    
C66   C89   A    
C3    O28   A    
C115  C123  A    
C127  C136  A    
H42   N6    S    
C100  C144  A    
C63   N22   T    
C93   C101  A    
C30   C149  S    
H53   N11   S    
C101  C110  A    
C110  H22   S    
C29   C45   A    
C7    O32   A    
C6    C106  S    
Cu8   O22   S    
C95   N3    S    
C121  C135  S    
C3    O39   A    
C72   C84   A    
C61   C85   S    
H39   N4    S    
C49   H56   S    
C20   C146  A    
Cu7   O13   S    
H41   N5    S    
C24   H8    S    
C55   H4    S    
Cu7   O34   S    
C52   H68   S    
C21   C30   A    
C34   C153  S    
C3    C103  S    
C68   C77   A    
C13   H7    S    
C14   C57   A    
C48   H45   S    
C114  H26   S    
C2    C19   A    
H64   N17   S    
C25   C55   A    
Cu10  O25   S    
C58   C88   S    
C130  N11   S    
C60   C90   S    
Cu5   O10   S    
H54   N11   S    
C95   C139  A    
C106  C115  A    
C9    C15   A    
C39   H1    S    
C46   C53   A    
C68   C92   A    
C98   N6    S    
C126  C134  A    
C124  O4    A    
C4    O40   A    
C5    O41   A    
C76   C85   A    
Cu2   O42   S    
C7    O43   A    
C78   C87   A    
C11   C18   A    
C123  C132  A    
C121  C130  A    
C25   C43   A    
C71   C79   A    
C32   C147  S    
Cu6   O23   S    
C99   C108  A    
C133  C142  A    
C128  N9    S    
Cu8   O44   S    
Cu11  O26   S    
C75   C84   A    
C1    O9    A    
C26   C45   A    
C69   O10   A    
C29   C38   A    
Cu11  O47   S    
Cu11  O17   S    
C100  N8    S    
C71   C141  S    
H60   N15   S    
C134  C143  A    
C98   C142  A    
H43   N6    S    
Cu3   O39   S    
C148  O47   A    
Cu5   O12   S    
Cu6   O11   S    
C41   H23   S    
C120  C129  A    
H50   N9    S    
C136  N17   S    
C4    O33   A    
C38   C41   A    
Cu1   Cu9   S    
C104  C112  A    
C36   C152  S    
C82   H20   S    
Cu4   O37   S    
C8    C12   A    
Cu1   O9    S    
C10   C45   A    
H51   N10   S    
H61   N15   S    
C56   C89   S    
C105  C155  S    
Cu9   O6    S    
C7    C107  S    
C42   H34   S    
C118  C127  A    
C122  C124  S    
C118  H30   S    
C122  C131  A    
C153  O26   A    
C29   C51   A    
C27   C47   A    
C132  C141  A    
C62   C84   S    
Cu12  O35   S    
C149  O21   A    
C80   O8    A    
C108  C117  A    
Cu2   O33   S    
C110  C119  A    
C96   C140  A    
Cu9   O45   S    
C154  O29   A    
C116  C125  A    
C58   N12   T    
Cu3   O30   S    
C112  C121  A    
C151  O24   A    
C28   C37   A    
C30   C39   A    
C107  C116  A    
C13   C50   A    
C116  H28   S    
C102  O14   A    
C15   C46   A    
C75   H14   S    
C156  O27   A    
C131  N13   S    
C25   C33   A    
C54   C57   A    
C35   H9    S    
C96   C105  A    
C79   H18   S    
C11   C47   A    
C8    C43   A    
C113  O15   A    
Cu2   Cu12  S    
H33   N2    S    
C4    C108  S    
C11   C19   A    
C67   C88   A    
Cu8   O14   S    
H44   N7    S    
C145  O45   A    
Cu12  O40   S    
C113  O48   A    
C31   C40   A    
C103  C111  A    
C50   H66   S    
C73   C87   A    
C6    O42   A    
C113  C119  S    
C1    O6    A    
Cu7   O4    S    
Cu10  O7    S    
C76   H15   S    
C133  N15   S    
C72   C81   A    
C64   N23   T    
C26   C48   A    
C81   C89   A    
C111  H24   S    
C96   N4    S    
C34   C41   A    
C130  C139  A    
C64   C86   S    
C79   C88   A    
C129  N10   S    
C56   N1    T    
Cu7   Cu10  S    
Cu3   O36   S    
Cu5   O19   S    
C57   H11   S    
Cu6   O20   S    
C152  O25   A    
C101  C156  S    
C23   C44   A    
C148  O20   A    
H46   N7    S    
C9    C14   A    
Cu3   Cu4   S    
C12   C15   A    
H47   N8    S    
C78   H17   S    
H40   N5    S    
C62   N21   T    
C97   C141  A    
C31   C148  S    
C149  O46   A    
C94   C103  A    
C155  O30   A    
C94   C138  A    
C150  O12   A    
C73   C82   A    
Cu5   Cu8   S    
C102  C120  S    
C6    O31   A    
C73   C143  S    
H58   N14   S    
C74   C144  S    
C147  O44   A    
C135  O17   A    
C83   H21   S    
C27   C36   A    
C12   C65   A    
C155  O37   A    
C82   C90   A    
C80   O11   A    
C23   C32   A    
C136  C144  A    
C5    C109  S    
C66   C75   A    
C59   C92   S    
C99   N7    S    
C151  O1    A    
C97   N5    S    
Cu12  O31   S    
C35   C52   A    
C68   C139  S    
C104  C154  S    
C135  O3    A    
Cu10  O46   S    
C91   C126  S    
C70   C78   A    
C46   H10   S    
C145  O18   A    
Cu4   O29   S    
C132  N14   S    
C65   H13   S    
C83   C92   A    
C33   C39   A    
C156  O38   A    
C1    C125  S    
C5    O35   A    
C10   C17   A    
C146  H5    S    
C77   H16   S    
C150  O22   A    
H37   N3    S    
Cu4   O38   S    
Cu1   O18   S    
C71   C85   A    
C28   C50   A    
Cu5   O2    S    
C94   N2    S    
C22   C44   A    
C129  C138  A    
Cu1   O48   S    
C48   C146  A    
Cu12  O43   S    
Cu2   O41   S    
H65   N17   S    
C70   C140  S    
H55   N13   S    
C21   C43   A    
C59   N18   T    
C70   C90   A    
C37   C151  S    
H62   N16   S    
H63   N16   S    
C26   C34   A    
C22   C53   A    
C17   C24   A    
C22   C31   A    
C105  C114  A    
C91   O13   A    
C60   N19   T    
Cu3   O27   S    
C111  C120  A    
Cu4   O28   S    
C152  O34   A    
C128  C137  A    
C2    C49   A    
C93   N24   S    
Cu10  O16   S    
C74   C86   A    
C33   C145  S    
H59   N14   S    
C53   H2    S    
C77   C86   A    
C61   N20   T    
C14   C16   A    
C97   C106  A    
C117  H29   S    
C95   C104  A    
C23   C54   A    
C125  C133  A    
H52   N10   S    
C9    C44   A    
H57   N13   S    
C63   C87   S    
C54   H3    S    
C147  O19   A    
C80   C127  S    
Cu8   O5    S    
C2    H6    S    
C124  O16   A    
C66   C137  S    
Cu6   O3    S    
C17   C19   A    
C38   C150  S    
C18   C20   A    
C32   C40   A    
Cu9   O15   S    
C112  H25   S    
C93   C137  A    
Cu6   Cu11  S    
C114  C122  A    
C27   C49   A    
H38   N4    S    
C67   C76   A    
C81   H19   S    
C21   C52   A    
C98   C107  A    
