data_mof_unit_67241.cif
_audit_creation_date              2012-12-11T18:15:41-0500
_audit_creation_method            fapswitch 2.2
_symmetry_space_group_name_H-M    P1
_symmetry_Int_Tables_number       1
_space_group_crystal_system       monoclinic
_cell_length_a                    20.110377
_cell_length_b                    19.906794
_cell_length_c                    8.335793
_cell_angle_alpha                 90.0
_cell_angle_beta                  91.827937
_cell_angle_gamma                 90.0
_cell_volume                      3335.39596029

loop_
_atom_site_label
_atom_site_type_symbol
_atom_type_description
_atom_site_fract_x
_atom_site_fract_y
_atom_site_fract_z
_atom_type_partial_charge
Ba1   Ba    Ba6+2 0.999980 0.452130 0.155200 1.620889
Ba2   Ba    Ba6+2 0.999980 0.547870 0.655200 1.620889
Ba3   Ba    Ba6+2 0.499980 0.952130 0.155200 1.620889
Ba4   Ba    Ba6+2 0.499980 0.047870 0.655200 1.620889
C1    C     C_3   0.940947 0.139477 0.359154 -0.383322
C2    C     C_R   0.110852 0.663817 0.180602 -0.291674
C3    C     C_R   0.610852 0.836183 0.680602 -0.291674
C4    C     C_R   0.610852 0.163817 0.180602 -0.291674
C5    C     C_R   0.123403 0.282552 0.577998 0.007882
C6    C     C_R   0.123403 0.717448 0.077998 0.007882
C7    C     C_R   0.623403 0.782552 0.577998 0.007882
C8    C     C_R   0.623403 0.217448 0.077998 0.007882
C9    C     C_R   0.171168 0.234550 0.622519 -0.146434
C10   C     C_R   0.171167 0.765450 0.122519 -0.146434
C11   C     C_R   0.671168 0.734550 0.622519 -0.146434
C12   C     C_3   0.940947 0.860522 0.859154 -0.383323
C13   C     C_R   0.671168 0.265450 0.122519 -0.146434
C14   C     C_R   0.209261 0.241859 0.766148 -0.005924
C15   C     C_R   0.209261 0.758141 0.266148 -0.005924
C16   C     C_R   0.709261 0.741859 0.766148 -0.005924
C17   C     C_R   0.709261 0.258141 0.266148 -0.005924
C18   C     C_R   0.200528 0.299328 0.864192 -0.029527
C19   C     C_R   0.200528 0.700672 0.364192 -0.029527
C20   C     C_R   0.700528 0.799328 0.864192 -0.029527
C21   C     C_R   0.700528 0.200672 0.364192 -0.029527
C22   C     C_R   0.799548 0.701088 0.946548 -0.029070
C23   C     C_3   0.440947 0.639477 0.359154 -0.383323
C24   C     C_R   0.799548 0.298912 0.446548 -0.029071
C25   C     C_R   0.299548 0.201088 0.946548 -0.029070
C26   C     C_R   0.299548 0.798912 0.446548 -0.029071
C27   C     C_R   0.790841 0.758559 0.044592 -0.000951
C28   C     C_R   0.790841 0.241441 0.544592 -0.000951
C29   C     C_R   0.290841 0.258559 0.044592 -0.000950
C30   C     C_R   0.290841 0.741441 0.544592 -0.000950
C31   C     C_R   0.850232 0.653668 0.990102 0.040493
C32   C     C_R   0.850232 0.346332 0.490102 0.040493
C33   C     C_R   0.350232 0.153668 0.990102 0.040493
C34   C     C_3   0.440947 0.360523 0.859154 -0.383323
C35   C     C_R   0.350232 0.846332 0.490102 0.040493
C36   C     C_R   0.889221 0.664148 0.130001 -0.289912
C37   C     C_R   0.889221 0.335852 0.630001 -0.289911
C38   C     C_R   0.389221 0.164148 0.130001 -0.289912
C39   C     C_R   0.389221 0.835852 0.630000 -0.289911
C40   C     C_3   0.022405 0.204039 0.910062 0.362171
C41   C     C_3   0.022406 0.795961 0.410062 0.362170
C42   C     C_3   0.522405 0.704039 0.910061 0.362171
C43   C     C_3   0.522406 0.295961 0.410062 0.362170
C44   C     C_R   0.876774 0.717826 0.232523 0.009005
C45   C     C_R   0.149821 0.346721 0.820569 0.044661
C46   C     C_R   0.876774 0.282174 0.732523 0.009005
C47   C     C_R   0.376774 0.217826 0.232523 0.009005
C48   C     C_R   0.376774 0.782174 0.732523 0.009005
C49   C     C_R   0.829013 0.765862 0.188118 -0.144086
C50   C     C_R   0.829013 0.234138 0.688118 -0.144086
C51   C     C_R   0.329013 0.265862 0.188118 -0.144086
C52   C     C_R   0.329013 0.734138 0.688118 -0.144086
C53   C     C_R   0.757329 0.693186 0.809284 -0.042604
C54   C     C_R   0.757329 0.306814 0.309284 -0.042604
C55   C     C_R   0.257329 0.193186 0.809284 -0.042603
C56   C     C_R   0.149821 0.653278 0.320569 0.044661
C57   C     C_R   0.257329 0.806813 0.309284 -0.042604
C58   C     C_3   0.058502 0.137611 0.946501 -0.012516
C59   C     C_3   0.058502 0.862389 0.446501 -0.012516
C60   C     C_3   0.558502 0.637611 0.946500 -0.012516
C61   C     C_3   0.558502 0.362389 0.446501 -0.012517
C62   C     C_3   0.811033 0.457627 0.818005 0.309682
C63   C     C_3   0.811033 0.542373 0.318005 0.309682
C64   C     C_3   0.311033 0.957627 0.818005 0.309682
C65   C     C_3   0.311033 0.042373 0.318005 0.309682
C66   C     C_3   0.748446 0.414731 0.804326 -0.390198
C67   C     C_R   0.649821 0.846721 0.820569 0.044661
C68   C     C_3   0.748446 0.585269 0.304326 -0.390198
C69   C     C_3   0.248446 0.914731 0.804326 -0.390198
C70   C     C_3   0.248446 0.085269 0.304326 -0.390198
C71   C     C_3   0.189025 0.542737 0.992598 0.309745
C72   C     C_3   0.189025 0.457263 0.492598 0.309744
C73   C     C_3   0.689025 0.042737 0.992598 0.309744
C74   C     C_3   0.689025 0.957263 0.492598 0.309744
C75   C     C_3   0.251649 0.585620 0.005304 -0.395489
C76   C     C_3   0.251649 0.414380 0.505304 -0.395489
C77   C     C_3   0.751649 0.085620 0.005304 -0.395488
C78   C     C_R   0.649821 0.153279 0.320569 0.044661
C79   C     C_3   0.751649 0.914380 0.505304 -0.395489
C80   C     C_3   0.975250 0.206621 0.389834 0.361369
C81   C     C_3   0.975250 0.793379 0.889835 0.361368
C82   C     C_3   0.475250 0.706621 0.389834 0.361369
C83   C     C_3   0.475250 0.293379 0.889835 0.361369
C84   C     C_R   0.242729 0.307221 0.001522 -0.041920
C85   C     C_R   0.242729 0.692779 0.501522 -0.041920
C86   C     C_R   0.742729 0.807221 0.001522 -0.041920
C87   C     C_R   0.742729 0.192779 0.501522 -0.041920
C88   C     C_3   0.999057 0.067347 0.744942 -0.211947
C89   C     C_R   0.110852 0.336182 0.680602 -0.291674
C90   C     C_3   0.999057 0.932652 0.244941 -0.211947
C91   C     C_3   0.499056 0.567347 0.744943 -0.211947
C92   C     C_3   0.499057 0.432652 0.244942 -0.211947
H1    H     H_    0.945607 0.246035 0.325869 0.091168
H2    H     H_    0.761100 0.637613 0.272219 0.067364
H3    H     H_    0.346377 0.066480 0.405350 0.071218
H4    H     H_    0.978155 0.073025 0.988336 0.216146
H5    H     H_    0.978235 0.015942 0.731538 0.102608
H6    H     H_    0.043461 0.071296 0.669493 0.121101
H7    H     H_    0.960588 0.103965 0.703406 0.104397
H8    H     H_    0.978155 0.926975 0.488335 0.216146
H9    H     H_    0.978237 0.984058 0.231536 0.102609
H10   H     H_    0.960588 0.896035 0.203406 0.104397
H11   H     H_    0.043462 0.928702 0.169493 0.121101
H12   H     H_    0.478155 0.573025 0.988337 0.216146
H13   H     H_    0.261100 0.862387 0.772219 0.067364
H14   H     H_    0.478234 0.515942 0.731540 0.102608
H15   H     H_    0.543460 0.571295 0.669494 0.121102
H16   H     H_    0.460587 0.603965 0.703407 0.104397
H17   H     H_    0.478155 0.426975 0.488336 0.216146
H18   H     H_    0.478236 0.484058 0.231537 0.102609
H19   H     H_    0.460588 0.396035 0.203406 0.104397
H20   H     H_    0.543462 0.428703 0.169493 0.121101
H21   H     H_    0.261100 0.137613 0.272219 0.067364
H22   H     H_    0.723224 0.414201 0.920918 0.120180
H23   H     H_    0.723224 0.585799 0.420918 0.120180
H24   H     H_    0.223224 0.914200 0.920918 0.120180
H25   H     H_    0.223224 0.085799 0.420918 0.120180
H26   H     H_    0.166907 0.539405 0.112020 0.010700
H27   H     H_    0.166907 0.460595 0.612020 0.010700
H28   H     H_    0.666907 0.039405 0.112020 0.010700
H29   H     H_    0.945607 0.753965 0.825869 0.091168
H30   H     H_    0.666907 0.960595 0.612020 0.010699
H31   H     H_    0.153400 0.566869 0.905956 0.071390
H32   H     H_    0.153400 0.433131 0.405956 0.071390
H33   H     H_    0.653400 0.066869 0.905956 0.071390
H34   H     H_    0.653400 0.933131 0.405956 0.071390
H35   H     H_    0.286497 0.564838 0.098729 0.121721
H36   H     H_    0.286497 0.435162 0.598730 0.121721
H37   H     H_    0.786497 0.064838 0.098729 0.121721
H38   H     H_    0.786497 0.935162 0.598729 0.121721
H39   H     H_    0.239123 0.637958 0.037715 0.071907
H40   H     H_    0.445607 0.746035 0.325868 0.091169
H41   H     H_    0.239123 0.362042 0.537715 0.071906
H42   H     H_    0.739123 0.137958 0.037715 0.071906
H43   H     H_    0.739123 0.862042 0.537715 0.071907
H44   H     H_    0.276535 0.586157 0.888278 0.116974
H45   H     H_    0.276535 0.413842 0.388278 0.116974
H46   H     H_    0.776535 0.086157 0.888278 0.116974
H47   H     H_    0.776535 0.913842 0.388278 0.116975
H48   H     H_    0.975969 0.216688 0.520772 -0.064617
H49   H     H_    0.975969 0.783312 0.020772 -0.064617
H50   H     H_    0.475968 0.716688 0.520772 -0.064617
H51   H     H_    0.445607 0.253965 0.825869 0.091168
H52   H     H_    0.475969 0.283312 0.020772 -0.064617
H53   H     H_    0.892009 0.138908 0.417188 0.069775
H54   H     H_    0.892010 0.861091 0.917188 0.069775
H55   H     H_    0.392009 0.638908 0.417188 0.069775
H56   H     H_    0.392010 0.361092 0.917188 0.069775
H57   H     H_    0.932655 0.131287 0.228533 0.147373
H58   H     H_    0.932655 0.868712 0.728533 0.147373
H59   H     H_    0.432655 0.631287 0.228533 0.147373
H60   H     H_    0.432655 0.368712 0.728533 0.147373
H61   H     H_    0.104559 0.134977 0.876393 0.040884
H62   H     H_    0.713861 0.435477 0.710295 0.126759
H63   H     H_    0.104560 0.865023 0.376394 0.040884
H64   H     H_    0.604559 0.634976 0.876392 0.040884
H65   H     H_    0.604560 0.365023 0.376394 0.040884
H66   H     H_    0.073254 0.372670 0.645501 0.069290
H67   H     H_    0.073254 0.627329 0.145501 0.069290
H68   H     H_    0.573254 0.872670 0.645501 0.069290
H69   H     H_    0.573254 0.127330 0.145501 0.069290
H70   H     H_    0.179693 0.192563 0.543144 0.070931
H71   H     H_    0.179693 0.807437 0.043144 0.070931
H72   H     H_    0.679693 0.692563 0.543144 0.070931
H73   H     H_    0.713861 0.564523 0.210295 0.126759
H74   H     H_    0.679693 0.307437 0.043144 0.070931
H75   H     H_    0.820532 0.807835 0.267549 0.068070
H76   H     H_    0.820532 0.192164 0.767549 0.068070
H77   H     H_    0.320532 0.307835 0.267549 0.068070
H78   H     H_    0.320532 0.692164 0.767549 0.068070
H79   H     H_    0.926743 0.627581 0.165115 0.068397
H80   H     H_    0.926743 0.372419 0.665115 0.068397
H81   H     H_    0.426743 0.127581 0.165115 0.068397
H82   H     H_    0.426743 0.872419 0.665115 0.068397
H83   H     H_    0.238816 0.350975 0.077183 0.099668
H84   H     H_    0.213861 0.935477 0.710295 0.126759
H85   H     H_    0.238816 0.649025 0.577183 0.099668
H86   H     H_    0.738816 0.850975 0.077183 0.099668
H87   H     H_    0.738816 0.149025 0.577183 0.099668
H88   H     H_    0.761202 0.649417 0.733666 0.101551
H89   H     H_    0.761202 0.350583 0.233666 0.101551
H90   H     H_    0.261202 0.149417 0.733666 0.101551
H91   H     H_    0.261202 0.850583 0.233666 0.101551
H92   H     H_    0.972049 0.097837 0.408434 0.113748
H93   H     H_    0.972049 0.902163 0.908433 0.113748
H94   H     H_    0.472049 0.597837 0.408434 0.113748
H95   H     H_    0.213861 0.064523 0.210295 0.126759
H96   H     H_    0.472049 0.402163 0.908434 0.113748
H97   H     H_    0.054144 0.245157 0.960369 0.043534
H98   H     H_    0.054144 0.754842 0.460370 0.043534
H99   H     H_    0.554144 0.745157 0.960368 0.043533
H100  H     H_    0.554144 0.254843 0.460370 0.043534
H101  H     H_    0.017289 0.210430 0.778050 -0.077980
H102  H     H_    0.017289 0.789569 0.278050 -0.077980
H103  H     H_    0.517289 0.710430 0.778049 -0.077980
H104  H     H_    0.517289 0.289569 0.278050 -0.077979
H105  H     H_    0.074206 0.136397 0.075392 0.117219
H106  H     H_    0.761100 0.362387 0.772219 0.067364
H107  H     H_    0.074206 0.863603 0.575393 0.117219
H108  H     H_    0.574206 0.636397 0.075392 0.117218
H109  H     H_    0.574206 0.363603 0.575393 0.117219
H110  H     H_    0.833551 0.460842 0.698995 0.010158
H111  H     H_    0.833551 0.539158 0.198995 0.010158
H112  H     H_    0.333551 0.960842 0.698995 0.010158
H113  H     H_    0.333551 0.039158 0.198995 0.010158
H114  H     H_    0.846377 0.433520 0.905350 0.071218
H115  H     H_    0.846377 0.566480 0.405350 0.071218
H116  H     H_    0.346377 0.933520 0.905350 0.071218
N1    N     N_2   0.016933 0.079432 0.911788 -0.416539
N2    N     N_2   0.016933 0.920568 0.411787 -0.416540
N3    N     N_2   0.516932 0.579431 0.911788 -0.416540
N4    N     N_2   0.516933 0.420568 0.411788 -0.416540
O1    O     O_2   0.130070 0.404060 0.104920 -0.466755
O2    O     O_3   0.959706 0.795642 0.480273 -0.605084
O3    O     O_3   0.459706 0.704358 0.980273 -0.605084
O4    O     O_3   0.459706 0.295642 0.480273 -0.605084
O5    O     O_3   0.924190 0.533610 0.949240 -0.492346
O6    O     O_3   0.924190 0.466390 0.449240 -0.492346
O7    O     O_3   0.424190 0.033610 0.949240 -0.492346
O8    O     O_3   0.424190 0.966390 0.449240 -0.492346
O9    O     O_3   0.075780 0.466370 0.861070 -0.492401
O10   O     O_3   0.075780 0.533630 0.361070 -0.492402
O11   O     O_3   0.575780 0.966370 0.861070 -0.492401
O12   O     O_2   0.130070 0.595940 0.604920 -0.466755
O13   O     O_3   0.575780 0.033630 0.361070 -0.492402
O14   O     O_3   0.022320 0.344950 0.359800 -0.486882
O15   O     O_3   0.022320 0.655050 0.859800 -0.486882
O16   O     O_3   0.522320 0.844950 0.359800 -0.486882
O17   O     O_3   0.522320 0.155050 0.859800 -0.486882
O18   O     O_2   0.130473 0.289499 0.244612 -0.486845
O19   O     O_2   0.130473 0.710501 0.744612 -0.486845
O20   O     O_2   0.630473 0.789499 0.244612 -0.486844
O21   O     O_2   0.630473 0.210501 0.744612 -0.486845
O22   O     O_3   0.206696 0.478652 0.940176 -0.640647
O23   O     O_2   0.630070 0.904060 0.104920 -0.466755
O24   O     O_3   0.206696 0.521348 0.440176 -0.640647
O25   O     O_3   0.706696 0.978652 0.940176 -0.640647
O26   O     O_3   0.706696 0.021348 0.440176 -0.640647
O27   O     O_3   0.040297 0.204038 0.333049 -0.601941
O28   O     O_3   0.040297 0.795962 0.833049 -0.601941
O29   O     O_3   0.540297 0.704038 0.333049 -0.601941
O30   O     O_3   0.540297 0.295962 0.833049 -0.601941
O31   O     O_2   0.869860 0.403670 0.205810 -0.467252
O32   O     O_2   0.869860 0.596330 0.705810 -0.467253
O33   O     O_2   0.369860 0.903670 0.205810 -0.467253
O34   O     O_2   0.630070 0.095940 0.604920 -0.466755
O35   O     O_2   0.369860 0.096330 0.705810 -0.467253
O36   O     O_3   0.977590 0.344880 0.951200 -0.482372
O37   O     O_3   0.977590 0.655120 0.451200 -0.482373
O38   O     O_3   0.477590 0.844880 0.951200 -0.482372
O39   O     O_3   0.477590 0.155120 0.451200 -0.482373
O40   O     O_2   0.869036 0.289824 0.065138 -0.487631
O41   O     O_2   0.869036 0.710176 0.565138 -0.487631
O42   O     O_2   0.369036 0.789824 0.065138 -0.487631
O43   O     O_2   0.369036 0.210176 0.565138 -0.487631
O44   O     O_3   0.793230 0.478230 0.369938 -0.638563
O45   O     O_3   0.793230 0.521770 0.869938 -0.638563
O46   O     O_3   0.293230 0.978230 0.369938 -0.638563
O47   O     O_3   0.293230 0.021770 0.869938 -0.638563
O48   O     O_3   0.959706 0.204358 0.980273 -0.605084
P1    P     P_3+3 0.136530 0.426510 0.931350 0.971224
P2    P     P_3+3 0.919620 0.719965 0.431289 0.941482
P3    P     P_3+3 0.419620 0.780035 0.931289 0.941482
P4    P     P_3+3 0.419620 0.219965 0.431289 0.941481
P5    P     P_3+3 0.080282 0.719922 0.879523 0.940871
P6    P     P_3+3 0.080282 0.280078 0.379523 0.940871
P7    P     P_3+3 0.580282 0.219922 0.879523 0.940871
P8    P     P_3+3 0.580282 0.780078 0.379523 0.940871
P9    P     P_3+3 0.136530 0.573490 0.431350 0.971224
P10   P     P_3+3 0.636530 0.926510 0.931350 0.971224
P11   P     P_3+3 0.636530 0.073490 0.431350 0.971224
P12   P     P_3+3 0.863410 0.426100 0.379280 0.969726
P13   P     P_3+3 0.863410 0.573900 0.879280 0.969726
P14   P     P_3+3 0.363410 0.926100 0.379280 0.969726
P15   P     P_3+3 0.363410 0.073900 0.879280 0.969726
P16   P     P_3+3 0.919620 0.280035 0.931289 0.941482

loop_
_geom_bond_atom_site_label_1
_geom_bond_atom_site_label_2
_ccdc_geom_bond_type
Ba1   O10   S    
C66   H106  S    
C79   H47   S    
C5    P6    S    
C32   P12   S    
C90   H9    S    
C29   C51   A    
Ba3   O8    S    
C76   H36   S    
C87   H87   S    
C71   H26   S    
C91   N3    S    
Ba4   O17   S    
C60   N3    S    
O5    P13   S    
O31   P12   D    
C8    P7    S    
C59   H63   S    
C24   C54   A    
Ba3   O13   S    
Ba2   P13   S    
C79   H43   S    
C9    H70   S    
Ba1   O36   S    
Ba2   O12   S    
C42   H99   S    
C39   H82   S    
C73   C77   S    
C68   H2    S    
O33   P14   D    
C3    C7    A    
O1    P1    D    
C40   H97   S    
C74   O26   S    
C83   H51   S    
C9    C14   A    
C84   H83   S    
C4    C78   A    
C80   H1    S    
C53   H88   S    
O11   P10   S    
C81   H49   S    
O26   P11   S    
Ba1   Ba2   S    
C91   H16   S    
C3    C67   A    
C62   H110  S    
O37   P2    S    
O47   P15   S    
C39   C48   A    
C28   C87   A    
O7    P15   S    
O39   P4    S    
C80   H48   S    
C38   H81   S    
C76   H41   S    
O46   P14   S    
C74   H30   S    
C46   P16   S    
C57   H91   S    
C67   P10   S    
C1    H53   S    
O24   P9    S    
C55   H90   S    
Ba1   O5    S    
C63   C68   S    
C7    P8    S    
Ba4   O11   S    
O9    P1    S    
C33   C38   A    
C5    C9    A    
C51   H77   S    
Ba1   P12   S    
Ba2   O32   S    
O43   P4    D    
O45   P13   S    
C88   H7    S    
O2    P2    S    
C69   H84   S    
C7    C11   A    
C74   C79   S    
O13   P11   S    
C25   C55   A    
C25   C29   A    
C79   H38   S    
C6    P5    S    
C8    C13   A    
C64   H112  S    
Ba3   O7    S    
O16   P8    S    
C92   H19   S    
C63   H115  S    
C23   H94   S    
C34   H60   S    
C62   H114  S    
C62   O45   S    
C47   C51   A    
C63   O44   S    
Ba2   O6    S    
C88   H6    S    
C38   C47   A    
C75   H44   S    
C60   H108  S    
C75   H35   S    
C40   H101  S    
C69   H24   S    
C54   H89   S    
O6    P12   S    
C41   O2    S    
C72   H27   S    
C2    C56   A    
C92   H18   S    
C32   C37   A    
C19   C56   A    
Ba2   O9    S    
C30   C52   A    
O42   P3    D    
C82   H50   S    
C10   H71   S    
C28   C50   A    
O40   P16   D    
O18   P6    D    
C23   H59   S    
C11   C16   A    
C90   H11   S    
H4    N1    S    
C90   N2    S    
C15   C57   A    
C21   C87   A    
C56   P9    S    
C26   C30   A    
O38   P3    S    
C48   P3    S    
C86   H86   S    
C43   H100  S    
C24   C28   A    
O29   P8    S    
C61   N4    S    
O30   P7    S    
Ba1   O31   S    
C1    C80   S    
C49   H75   S    
C13   H74   S    
Ba3   P14   S    
C35   C39   A    
O14   P6    S    
C40   C58   S    
C64   C69   S    
Ba4   O8    S    
C41   C59   S    
O20   P8    D    
C13   C17   A    
O28   P5    S    
C52   H78   S    
Ba1   O6    S    
C66   H62   S    
C85   H85   S    
O25   P10   S    
C23   C82   S    
C15   C19   A    
C58   H105  S    
C2    C6    A    
C50   H76   S    
C36   H79   S    
C14   C55   A    
C44   P2    S    
O12   P9    D    
C4    C8    A    
C27   C86   A    
O8    P14   S    
C47   P4    S    
C60   H64   S    
C19   C85   A    
Ba2   O5    S    
C58   H61   S    
C40   O48   S    
C65   C70   S    
O21   P7    D    
C73   H33   S    
O34   P11   D    
C27   C49   A    
C77   H37   S    
O32   P13   D    
C59   H107  S    
Ba2   O15   S    
C33   P15   S    
C18   C45   A    
C88   H5    S    
C65   H3    S    
C82   H40   S    
C77   H46   S    
O10   P9    S    
C37   H80   S    
Ba1   O14   S    
C82   O29   S    
C18   C84   A    
C6    C10   A    
C12   C81   S    
C72   H32   S    
C58   N1    S    
O3    P3    S    
C43   H104  S    
O23   P10   D    
C65   H113  S    
O36   P16   S    
C61   H65   S    
Ba3   Ba4   S    
C64   H116  S    
Ba2   O37   S    
C5    C89   A    
C37   C46   A    
C46   C50   A    
C63   H111  S    
Ba3   P10   S    
C3    H68   S    
C41   H98   S    
C36   C44   A    
C70   H21   S    
C17   C21   A    
C90   H10   S    
C23   H55   S    
C42   O3    S    
C31   P13   S    
C81   H29   S    
C14   C18   A    
Ba4   P11   S    
Ba3   O23   S    
C10   C15   A    
C29   C84   A    
O22   P1    S    
O41   P2    D    
C72   C76   S    
Ba4   O35   S    
C77   H42   S    
C91   H14   S    
C20   C86   A    
Ba3   O16   S    
O17   P7    S    
C88   N1    S    
C12   H54   S    
C69   H13   S    
C65   O46   S    
C45   P1    S    
C44   C49   A    
C83   H52   S    
Ba4   O7    S    
C75   H39   S    
C43   O4    S    
C62   C66   S    
C34   H96   S    
C92   N4    S    
C34   C83   S    
C72   O24   S    
C61   H109  S    
C64   O47   S    
C68   H73   S    
C30   C85   A    
C31   C36   A    
C41   H102  S    
O27   P6    S    
H8    N2    S    
C17   C54   A    
C34   H56   S    
C73   H28   S    
C91   H15   S    
C11   H72   S    
Ba2   P9    S    
C12   H58   S    
C35   P14   S    
C42   H103  S    
C21   C78   A    
C89   H66   S    
C66   H22   S    
C1    H57   S    
O15   P5    S    
C68   H23   S    
O48   P16   S    
C43   C61   S    
C26   C35   A    
C78   P11   S    
C80   O27   S    
C71   H31   S    
C83   O30   S    
C81   O28   S    
C59   N2    S    
C74   H34   S    
C73   O25   S    
C22   C53   A    
O35   P15   D    
Ba3   O38   S    
H12   N3    S    
C4    H69   S    
Ba4   O39   S    
Ba4   O34   S    
C70   H95   S    
O44   P12   S    
C22   C31   A    
C22   C27   A    
C70   H25   S    
Ba1   P1    S    
C2    H67   S    
C24   C32   A    
C76   H45   S    
C26   C57   A    
C25   C33   A    
C42   C60   S    
Ba4   P15   S    
C92   H20   S    
C71   O22   S    
Ba1   O1    S    
C1    H92   S    
C45   C89   A    
C16   C53   A    
C71   C75   S    
C12   H93   S    
C16   C20   A    
O19   P5    D    
C48   C52   A    
C20   C67   A    
H17   N4    S    
Ba3   O33   S    
O4    P4    S    
