data_mof_unit_15520.cif
_audit_creation_date              2013-03-05T16:06:17-0500
_audit_creation_method            fapswitch 2.2
_symmetry_space_group_name_H-M    P1
_symmetry_Int_Tables_number       1
_space_group_crystal_system       triclinic
_cell_length_a                    10.86827
_cell_length_b                    9.50524
_cell_length_c                    27.819264
_cell_angle_alpha                 89.998196
_cell_angle_beta                  90.829586
_cell_angle_gamma                 90.000946
_cell_volume                      2873.58214771

loop_
_atom_site_label
_atom_site_type_symbol
_atom_site_description
_atom_site_fract_x
_atom_site_fract_y
_atom_site_fract_z
_atom_type_partial_charge
O1    O     O_R   0.319640 0.618740 0.500000 -0.585972
O2    O     O_R   0.680360 0.381260 0.500000 -0.598159
O3    O     O_R   0.680360 0.618740 0.500000 -0.585809
O4    O     O_R   0.319640 0.381260 0.500000 -0.598145
C1    C     C_R   0.261973 0.500006 0.499924 0.813353
C2    C     C_R   0.738027 0.500007 0.500077 0.813696
O5    O     O_R   0.500020 0.618770 0.430260 -0.543295
O6    O     O_R   0.499980 0.381230 0.569740 -0.585384
O7    O     O_R   0.499980 0.618770 0.569740 -0.543413
O8    O     O_R   0.500020 0.381230 0.430260 -0.585415
C3    C     C_R   0.496995 0.499921 0.407414 0.896174
C4    C     C_R   0.503027 0.499919 0.592583 0.896554
Cu1   Cu    Cu3+1 0.500000 0.640660 0.500000 1.029055
Cu2   Cu    Cu3+1 0.500000 0.359340 0.500000 0.981784
C5    C     C_R   0.386123 0.448901 0.177022 0.703614
C6    C     C_R   0.614061 0.448785 0.822962 0.703607
O9    O     O_2   0.283039 0.424362 0.202018 -0.401326
O10   O     O_2   0.717066 0.423907 0.797956 -0.401235
N1    N     N_R   0.492146 0.480328 0.201667 -0.445290
N2    N     N_R   0.508078 0.480447 0.798324 -0.445302
C7    C     C_R   0.599908 0.505879 0.178723 0.690336
C8    C     C_R   0.400379 0.506248 0.821280 0.690256
C9    C     C_R   0.543484 0.374581 0.280436 0.350586
C10   C     C_R   0.456244 0.374894 0.719572 0.350744
C11   C     C_R   0.544453 0.383130 0.330566 -0.283190
C12   C     C_R   0.455235 0.383414 0.669442 -0.283327
C13   C     C_R   0.437095 0.607604 0.327349 0.245443
C14   C     C_R   0.563478 0.607345 0.672617 0.245253
C15   C     C_R   0.437954 0.602255 0.276685 0.257389
C16   C     C_R   0.562661 0.602027 0.723283 0.257419
C17   C     C_R   0.491054 0.485611 0.253322 0.064198
C18   C     C_R   0.509134 0.485680 0.746668 0.064188
C19   C     C_R   0.496790 0.466685 0.101876 -0.123670
C20   C     C_R   0.503463 0.466792 0.898116 -0.123692
C21   C     C_R   0.384761 0.444257 0.126259 -0.111927
C22   C     C_R   0.615460 0.444223 0.873727 -0.111956
C23   C     C_R   0.276714 0.416532 0.098875 0.440200
C24   C     C_R   0.723507 0.416438 0.901106 0.440181
C25   C     C_R   0.607025 0.490640 0.128418 -0.121829
C26   C     C_R   0.393248 0.490935 0.871580 -0.121808
C27   C     C_R   0.492405 0.498052 0.354367 -0.253400
C28   C     C_R   0.507689 0.498060 0.645624 -0.253229
C29   C     C_R   0.388369 0.471403 0.973454 0.028532
C30   C     C_R   0.611897 0.471244 0.026539 0.028537
C31   C     C_R   0.613150 0.455372 0.975796 0.014199
C32   C     C_R   0.387104 0.455461 0.024193 0.014190
C33   C     C_R   0.501611 0.464695 0.949181 0.089799
C34   C     C_R   0.498648 0.464634 0.050811 0.089799
C35   C     C_R   0.279811 0.493721 0.946305 -0.223274
C36   C     C_R   0.720471 0.493398 0.053694 -0.223264
C37   C     C_R   0.280743 0.502473 0.896279 0.345860
C38   C     C_R   0.719540 0.502079 0.103722 0.345860
O11   O     O_2   0.302006 0.549729 0.795182 -0.422536
O12   O     O_2   0.698355 0.549063 0.204835 -0.422529
C39   C     C_R   0.278240 0.426108 0.048999 -0.218786
C40   C     C_R   0.721994 0.425971 0.950983 -0.218760
H1    H     H_    0.413531 0.298980 0.648725 0.221484
H2    H     H_    0.585803 0.298498 0.351293 0.221671
H3    H     H_    0.191930 0.506851 0.963314 0.181622
H4    H     H_    0.808369 0.506459 0.036691 0.181591
H5    H     H_    0.193314 0.402606 0.030062 0.181546
H6    H     H_    0.806916 0.402416 0.969914 0.181538
C41   C     C_R   0.063746 0.372252 0.499948 -0.148464
C42   C     C_R   0.936251 0.627810 0.500072 -0.124420
C43   C     C_R   0.936251 0.372253 0.500045 -0.148478
C44   C     C_R   0.063752 0.627810 0.499944 -0.124713
H7    H     H_    0.111634 0.272305 0.499908 0.157545
H8    H     H_    0.888354 0.727753 0.500137 0.159155
H9    H     H_    0.888361 0.272304 0.500076 0.157560
H10   H     H_    0.111651 0.727753 0.499888 0.159118
C45   C     C_R   0.871863 0.500027 0.500090 -0.020341
C46   C     C_R   0.128137 0.500026 0.499913 -0.020420
C47   C     C_R   0.416194 0.074488 0.472859 0.005263
C48   C     C_R   0.583997 0.925602 0.527032 0.026551
C49   C     C_R   0.583803 0.074485 0.527143 0.005188
C50   C     C_R   0.415998 0.925606 0.472971 0.026901
H11   H     H_    0.349169 0.130674 0.451081 0.144115
H12   H     H_    0.651484 0.869579 0.548548 0.180229
H13   H     H_    0.650826 0.130668 0.548922 0.144179
H14   H     H_    0.348500 0.869587 0.451461 0.180160
N3    N     N_R   0.500000 0.852070 0.500000 -0.186061
N4    N     N_R   0.500000 0.147930 0.500000 -0.178260
N5    N     N_R   0.377926 0.722649 0.351050 0.157431
O13   O     O_R   0.412253 0.851433 0.342783 -0.285662
O14   O     O_R   0.283765 0.699267 0.378282 -0.354446
N6    N     N_R   0.623138 0.722025 0.648890 0.157292
O15   O     O_R   0.589766 0.851054 0.657307 -0.285662
O16   O     O_R   0.716805 0.698006 0.621462 -0.354736
N7    N     N_R   0.382016 0.713179 0.248846 0.179334
O17   O     O_R   0.271609 0.756658 0.258563 -0.204948
O18   O     O_R   0.439772 0.768669 0.212855 -0.280819
N8    N     N_R   0.619123 0.712635 0.751103 0.179361
O19   O     O_R   0.729826 0.755215 0.741434 -0.204805
O20   O     O_R   0.561584 0.768621 0.787059 -0.280847
Cl1   Cl    Cl    0.135739 0.364163 0.123734 -0.367467
Cl2   Cl    Cl    0.864506 0.364174 0.876239 -0.367414
N9    N     N_R   0.403761 0.253133 0.742373 0.174040
O21   O     O_R   0.317837 0.181082 0.720517 -0.265985
O22   O     O_R   0.448851 0.205548 0.782791 -0.286575
N10   N     N_R   0.595558 0.252558 0.257656 0.174101
O23   O     O_R   0.681145 0.180075 0.279544 -0.265915
O24   O     O_R   0.550402 0.205208 0.217217 -0.286404
N11   N     N_R   0.164774 0.513374 0.871342 0.181673
O25   O     O_R   0.130184 0.413311 0.842220 -0.192343
O26   O     O_R   0.084732 0.606899 0.884637 -0.263802
N12   N     N_R   0.835511 0.512858 0.128660 0.181677
O27   O     O_R   0.870078 0.412679 0.157741 -0.192479
O28   O     O_R   0.915561 0.606433 0.115409 -0.263743

loop_
_geom_bond_atom_site_label_1
_geom_bond_atom_site_label_2
_geom_bond_distance
_ccdc_geom_bond_type
C41   C43   1.385690 A    
C13   C15   1.410539 A    
O3    C2    1.290925 A    
N1    C17   1.438095 S    
C15   N7    1.437843 S    
N9    O21   1.301673 A    
O5    C3    1.296399 A    
C19   C25   1.416615 A    
C49   H13   1.081713 S    
O1    C1    1.290917 A    
C42   H8    1.083273 S    
C21   C23   1.415214 A    
C10   C12   1.396808 A    
C1    C46   1.454567 S    
C7    O12   1.348511 S    
N6    O16   1.301218 A    
N12   O27   1.301366 A    
C37   N11   1.433603 S    
Cu1   N3    2.009503 S    
C23   Cl1   1.761868 S    
C42   C45   1.401770 A    
C5    C21   1.412744 A    
O7    Cu1   1.951238 S    
N10   O23   1.301637 A    
C4    C28   1.475803 S    
C44   C46   1.401779 A    
C31   C40   1.406273 A    
C35   C37   1.394365 A    
C32   C39   1.406258 A    
C36   C38   1.394366 A    
N7    O18   1.301115 A    
O3    Cu1   1.971247 S    
O6    C4    1.295036 A    
C9    N10   1.441409 S    
C38   N12   1.433556 S    
Cu1   Cu2   2.674014 S    
O2    C2    1.291028 A    
N10   O24   1.301169 A    
N9    O22   1.301162 A    
C8    O11   1.348514 S    
C32   C34   1.414062 A    
C31   C33   1.414071 A    
C2    C45   1.454566 S    
C41   H7    1.083265 S    
C48   C49   1.415174 A    
C10   N9    1.441392 S    
C16   N8    1.437751 S    
O8    Cu2   1.951238 S    
C11   C27   1.400917 A    
N6    O15   1.301171 A    
C29   C35   1.407702 A    
C43   C45   1.401722 A    
C25   C38   1.415452 A    
C9    C17   1.412451 A    
C12   H1    1.083580 S    
C5    N1    1.365358 A    
C10   C18   1.412451 A    
C13   C27   1.413327 A    
N5    O13   1.301155 A    
C7    C25   1.410146 A    
C6    N2    1.365377 A    
C8    C26   1.410106 A    
N8    O20   1.301138 A    
N11   O26   1.301222 A    
N5    O14   1.301152 A    
N2    C8    1.363717 A    
C14   N6    1.434109 S    
C47   C50   1.415166 A    
C40   H6    1.079467 S    
O1    Cu1   1.971240 S    
C11   H2    1.083544 S    
Cu2   N4    2.009504 S    
C48   N3    1.366586 A    
C47   N4    1.366428 A    
C30   C31   1.419938 A    
C12   C28   1.400868 A    
N2    C18   1.438122 S    
C30   C36   1.407702 A    
C5    O9    1.347461 S    
O6    Cu2   1.951251 S    
N1    C7    1.363713 A    
O7    C4    1.296338 A    
C50   H14   1.080296 S    
O4    C1    1.291038 A    
C50   N3    1.366588 A    
C49   N4    1.366437 A    
C26   C37   1.415464 A    
C35   H3    1.079268 S    
C36   H4    1.079267 S    
C22   C24   1.415246 A    
C14   C16   1.410563 A    
C15   C17   1.412678 A    
C6    C22   1.412760 A    
C16   C18   1.412639 A    
C44   H10   1.083273 S    
N12   O28   1.301213 A    
C43   H9    1.083264 S    
C39   H5    1.079478 S    
C14   C28   1.413308 A    
N8    O19   1.301186 A    
C19   C21   1.418413 A    
C3    C27   1.475951 S    
C20   C22   1.418423 A    
C9    C11   1.396824 A    
O4    Cu2   1.971247 S    
O2    Cu2   1.971240 S    
C29   C32   1.419901 A    
O8    C3    1.295062 A    
C13   N5    1.434031 S    
C23   C39   1.390831 A    
O5    Cu1   1.951251 S    
C24   C40   1.390852 A    
C41   C46   1.401714 A    
C6    O10   1.347456 S    
C48   H12   1.080321 S    
C24   Cl2   1.761923 S    
N11   O25   1.301361 A    
C19   C34   1.421186 A    
C47   H11   1.081716 S    
C20   C26   1.416618 A    
C20   C33   1.421172 A    
N7    O17   1.301195 A    
C29   C33   1.413795 A    
C30   C34   1.413800 A    
C42   C44   1.385777 A    
