data_mof_unit_17185.cif
_audit_creation_date              2012-10-26T19:06:53-0400
_audit_creation_method            fapswitch 2.2
_symmetry_space_group_name_H-M    P1
_symmetry_Int_Tables_number       1
_space_group_crystal_system       triclinic
_cell_length_a                    12.313019
_cell_length_b                    13.174184
_cell_length_c                    27.812136
_cell_angle_alpha                 77.767909
_cell_angle_beta                  101.14605
_cell_angle_gamma                 116.530725
_cell_volume                      3919.59600768

loop_
_atom_site_label
_atom_site_type_symbol
_atom_type_description
_atom_site_fract_x
_atom_site_fract_y
_atom_site_fract_z
_atom_type_partial_charge
C1    C     C_R   0.854881 0.286550 0.504282 0.532427
C2    C     C_R   0.978092 0.396042 0.034096 0.017884
C3    C     C_R   0.019758 0.601270 0.016992 0.018327
C4    C     C_R   0.999163 0.499543 0.592401 0.550077
C5    C     C_R   0.999828 0.498912 0.050839 0.033805
C6    C     C_R   0.964196 0.298042 0.069756 -0.139691
C7    C     C_R   0.967137 0.299933 0.119724 -0.111864
C8    C     C_R   0.984741 0.399555 0.136329 0.024428
C9    C     C_R   0.001567 0.499408 0.102082 -0.027231
C10   C     C_R   0.020001 0.599725 0.119214 0.024823
C11   C     C_R   0.021088 0.598335 0.169912 0.396563
C12   C     C_R   0.083613 0.476692 0.730942 -0.057811
C13   C     C_R   0.985971 0.401652 0.186698 0.396896
C14   C     C_R   0.095552 0.485451 0.288903 -0.058742
C15   C     C_R   0.094784 0.485298 0.338990 -0.145621
C16   C     C_R   0.145087 0.713427 0.492757 0.551467
C17   C     C_R   0.909194 0.514694 0.319541 -0.147967
C18   C     C_R   0.910058 0.514578 0.269522 -0.058054
C19   C     C_R   0.003211 0.500063 0.253994 0.240777
C20   C     C_R   0.971780 0.394528 0.982643 0.018260
C21   C     C_R   0.996138 0.497851 0.949051 0.033872
C22   C     C_R   0.022236 0.601690 0.966043 0.017893
C23   C     C_R   0.993579 0.496600 0.746033 0.241634
C24   C     C_R   0.941021 0.292685 0.963315 -0.140451
C25   C     C_R   0.050050 0.701482 0.881388 -0.111634
C26   C     C_R   0.035871 0.699896 0.035483 -0.140246
C27   C     C_R   0.036277 0.698959 0.085524 -0.113103
C28   C     C_R   0.000552 0.500077 0.407611 0.548259
C29   C     C_R   0.050806 0.702924 0.931221 -0.139587
C30   C     C_R   0.275459 0.021386 0.434113 -0.124398
C31   C     C_R   0.227972 0.834541 0.482569 -0.000647
C32   C     C_R   0.815479 0.085200 0.536539 -0.127318
C33   C     C_R   0.736709 0.970306 0.546235 -0.133269
C34   C     C_R   0.994503 0.497349 0.897818 -0.027199
C35   C     C_R   0.613348 0.932606 0.528888 -0.117018
C36   C     C_R   0.566547 0.009366 0.499512 0.033765
C37   C     C_R   0.650031 0.123752 0.484845 0.024823
C38   C     C_R   0.439877 0.976089 0.483727 0.029786
C39   C     C_R   0.400183 0.053299 0.449980 0.050964
C40   C     C_R   0.965419 0.396261 0.829438 0.396514
C41   C     C_R   0.485489 0.160370 0.431468 -0.134529
C42   C     C_R   0.608629 0.194481 0.447985 -0.117789
C43   C     C_R   0.351028 0.868482 0.500795 -0.131638
C44   C     C_R   0.189658 0.912058 0.450070 -0.130714
C45   C     C_R   0.966173 0.394827 0.880117 0.024676
C46   C     C_R   0.773048 0.163528 0.507037 -0.001117
C47   C     C_R   0.346723 0.328717 0.578860 -0.144923
C48   C     C_R   0.759534 0.645314 0.433121 0.048775
C49   C     C_R   0.662971 0.676995 0.418652 -0.156852
C50   C     C_R   0.559492 0.622202 0.443795 -0.136688
C51   C     C_R   0.551409 0.534545 0.484043 -0.005840
C52   C     C_R   0.020200 0.597222 0.813802 0.397541
C53   C     C_R   0.653049 0.505289 0.497632 0.179570
C54   C     C_R   0.447037 0.475170 0.511360 -0.012359
C55   C     C_R   0.446842 0.388306 0.551437 0.036300
C56   C     C_R   0.938645 0.293155 0.913158 -0.113179
C57   C     C_R   0.546646 0.361448 0.564120 -0.173748
C58   C     C_R   0.647383 0.418782 0.537971 -0.100903
C59   C     C_R   0.342019 0.497762 0.500920 0.040035
C60   C     C_R   0.246739 0.355217 0.566740 0.043050
C61   C     C_R   0.905089 0.517150 0.710755 -0.058350
C62   C     C_R   0.906680 0.518016 0.660676 -0.149016
C63   C     C_R   0.085496 0.477586 0.680907 -0.143995
C64   C     C_R   0.021371 0.599401 0.864152 0.024261
C65   C     C_R   0.997141 0.498471 0.645276 0.002879
C66   C     C_R   0.001552 0.499986 0.354766 0.003577
Cu1   Cu    Cu3+1 0.098270 0.475420 0.511360 0.933585
Cu2   Cu    Cu3+1 0.901730 0.524580 0.488640 0.918982
H1    H     H_    0.156214 0.462142 0.670188 0.131693
H2    H     H_    0.456959 0.218187 0.404019 0.113101
H3    H     H_    0.244731 0.079900 0.408266 0.116624
H4    H     H_    0.152480 0.461071 0.758046 0.131700
H5    H     H_    0.374929 0.808190 0.528031 0.121236
H6    H     H_    0.909446 0.113185 0.553212 0.131996
H7    H     H_    0.557906 0.842340 0.538218 0.106596
H8    H     H_    0.770769 0.910476 0.568684 0.127261
H9    H     H_    0.670724 0.275895 0.430306 0.153043
H10   H     H_    0.169065 0.309601 0.587730 0.122789
H11   H     H_    0.547225 0.295337 0.594838 0.118306
H12   H     H_    0.835011 0.532261 0.722221 0.131059
H13   H     H_    0.345918 0.262155 0.609520 0.102401
H14   H     H_    0.334059 0.562075 0.471127 0.118330
H15   H     H_    0.839522 0.688356 0.413419 0.128099
H16   H     H_    0.914928 0.212846 0.900383 0.165072
H17   H     H_    0.487570 0.650234 0.431004 0.102445
H18   H     H_    0.668348 0.744272 0.387841 0.113670
H19   H     H_    0.719046 0.392216 0.551023 0.184917
H20   H     H_    0.167320 0.474080 0.365253 0.128313
H21   H     H_    0.168100 0.474582 0.277139 0.131207
H22   H     H_    0.955578 0.222387 0.145397 0.167179
H23   H     H_    0.072512 0.781416 0.856344 0.167268
H24   H     H_    0.952686 0.218215 0.060588 0.111796
H25   H     H_    0.916179 0.210012 0.985760 0.110657
H26   H     H_    0.837154 0.533950 0.634113 0.131924
H27   H     H_    0.046556 0.779501 0.012238 0.110378
H28   H     H_    0.836056 0.525967 0.330576 0.129232
H29   H     H_    0.049161 0.776886 0.097674 0.164660
H30   H     H_    0.838111 0.525456 0.242758 0.132779
H31   H     H_    0.076388 0.785885 0.941178 0.112002
H32   H     H_    0.094489 0.886722 0.435484 0.127080
N1    N     N_R   0.992598 0.496607 0.797509 -0.397526
N2    N     N_R   0.003831 0.500102 0.202452 -0.397099
N3    N     N_R   0.246290 0.438210 0.528570 -0.234381
N4    N     N_R   0.754320 0.561170 0.471730 -0.237023
O1    O     O_R   0.972510 0.318140 0.514280 -0.500150
O2    O     O_R   0.082990 0.479230 0.439860 -0.503678
O3    O     O_R   0.917010 0.520730 0.420680 -0.514752
O4    O     O_2   0.937173 0.298116 0.812127 -0.500672
O5    O     O_2   0.968136 0.305761 0.219611 -0.502143
O6    O     O_2   0.047547 0.695020 0.781434 -0.499859
O7    O     O_2   0.040083 0.694587 0.186639 -0.501327
O8    O     O_R   0.806530 0.359640 0.495100 -0.528918
O9    O     O_R   0.082990 0.479270 0.579320 -0.501795
O10   O     O_R   0.917010 0.520770 0.560140 -0.519369
O11   O     O_R   0.193470 0.640360 0.504900 -0.507841
O12   O     O_R   0.027490 0.681860 0.485720 -0.501264

loop_
_geom_bond_atom_site_label_1
_geom_bond_atom_site_label_2
_ccdc_geom_bond_type
C10   C27   A    
C43   H5    S    
C63   C65   A    
C8    C13   A    
C22   C29   A    
C44   H32   S    
C41   C42   A    
C57   H11   S    
C35   C36   A    
C59   H14   S    
C58   H19   S    
C30   H3    S    
Cu1   N3    S    
C7    C8    A    
C39   C41   A    
C23   N1    S    
C16   C31   S    
C12   C23   A    
C35   H7    S    
C26   C27   A    
C31   C43   A    
C4    O10   A    
C36   C37   A    
C1    O8    A    
C32   H6    S    
C4    C65   S    
C19   N2    S    
C1    C46   S    
C53   N4    A    
C48   N4    A    
C18   C19   A    
Cu2   O8    S    
C37   C42   A    
Cu1   O11   S    
C13   O5    S    
C50   H17   S    
C47   C60   A    
C20   C24   A    
C45   C56   A    
C28   O2    A    
C8    C9    A    
Cu2   O3    S    
C60   N3    A    
C9    C10   A    
C40   O4    S    
C12   H4    S    
C21   C22   A    
C30   C44   A    
C2    C6    A    
C16   O12   A    
C56   H16   S    
C54   C59   A    
C25   C29   A    
C40   C45   A    
C52   N1    A    
C25   H23   S    
C31   C44   A    
C29   H31   S    
C11   O7    S    
Cu1   Cu2   S    
C63   H1    S    
C4    O9    A    
C52   C64   A    
C61   H12   S    
C17   H28   S    
C12   C63   A    
Cu1   O1    S    
C21   C34   A    
C50   C51   A    
C7    H22   S    
C2    C20   A    
C51   C53   A    
C25   C64   A    
C28   C66   S    
C14   H21   S    
C5    C9    A    
C33   H8    S    
C52   O6    S    
C60   H10   S    
C34   C64   A    
C17   C18   A    
C17   C66   A    
C34   C45   A    
Cu2   O12   S    
C62   H26   S    
C48   C49   A    
C55   C57   A    
C2    C5    A    
C16   O11   A    
C47   C55   A    
C26   H27   S    
C54   C55   A    
C27   H29   S    
C62   C65   A    
C32   C46   A    
C14   C19   A    
C3    C26   A    
C40   N1    A    
C3    C5    A    
C53   C58   A    
C13   N2    A    
Cu1   O2    S    
C6    C7    A    
C24   C56   A    
C18   H30   S    
C48   H15   S    
C51   C54   A    
C59   N3    A    
C32   C33   A    
Cu2   N4    S    
Cu1   O9    S    
C38   C43   A    
C24   H25   S    
C15   C66   A    
C57   C58   A    
C38   C39   A    
C6    H24   S    
C36   C38   A    
C33   C35   A    
C30   C39   A    
C11   N2    A    
C49   H18   S    
C47   H13   S    
C61   C62   A    
C10   C11   A    
C23   C61   A    
C20   C21   A    
C42   H9    S    
C49   C50   A    
C1    O1    A    
C14   C15   A    
C15   H20   S    
C3    C22   A    
C28   O3    A    
C37   C46   A    
Cu2   O10   S    
C41   H2    S    
