data_mof_unit_41933.cif
_audit_creation_date              2012-12-10T19:42:55-0500
_audit_creation_method            fapswitch 2.2
_symmetry_space_group_name_H-M    P1
_symmetry_Int_Tables_number       1
_space_group_crystal_system       triclinic
_cell_length_a                    10.867081
_cell_length_b                    13.05139
_cell_length_c                    11.75053
_cell_angle_alpha                 99.647606
_cell_angle_beta                  93.905971
_cell_angle_gamma                 92.034202
_cell_volume                      1637.33144212

loop_
_atom_site_label
_atom_site_type_symbol
_atom_type_description
_atom_site_fract_x
_atom_site_fract_y
_atom_site_fract_z
_atom_type_partial_charge
C1    C     C_R   0.501022 0.299065 0.477902 0.827694
C2    C     C_R   0.502064 0.700961 0.521863 0.839127
C3    C     C_R   0.871677 0.495998 0.501731 -0.092315
C4    C     C_R   0.128568 0.505395 0.498766 -0.084813
C5    C     C_R   0.946324 0.483212 0.601599 0.026277
C6    C     C_R   0.054011 0.519188 0.399242 0.021136
C7    C     C_R   0.505530 0.815036 0.536233 -0.105814
C8    C     C_R   0.505595 0.185040 0.462347 -0.104506
C9    C     C_R   0.496429 0.012570 0.342397 0.114274
C10   C     C_R   0.521059 0.987715 0.655377 0.116320
C11   C     C_R   0.495036 0.121492 0.351429 0.122028
C12   C     C_R   0.515307 0.878873 0.646876 0.112912
C13   C     C_R   0.521307 0.139326 0.560978 -0.306504
C14   C     C_R   0.499708 0.860368 0.436613 -0.307239
C15   C     C_R   0.516063 0.031869 0.553814 0.099975
C16   C     C_R   0.504053 0.967979 0.443717 0.096349
C17   C     C_R   0.399177 0.388853 0.024781 0.063296
C18   C     C_R   0.594736 0.618471 0.976074 0.045056
C19   C     C_R   0.404997 0.403193 0.145355 -0.012511
C20   C     C_R   0.588856 0.601402 0.854633 0.088248
C21   C     C_R   0.545115 0.549241 0.159686 0.333323
C22   C     C_R   0.458610 0.450459 0.844683 0.301547
C23   C     C_R   0.262492 0.502959 0.499881 0.787821
C24   C     C_R   0.737600 0.497522 0.500229 0.797691
C25   C     C_R   0.535567 0.545098 0.035994 -0.129267
C26   C     C_R   0.463605 0.461016 0.967805 -0.011785
C27   C     C_R   0.202520 0.667636 0.188525 0.202018
C28   C     C_R   0.803711 0.340355 0.819976 0.160797
C29   C     C_R   0.163701 0.640895 0.292054 -0.187836
C30   C     C_R   0.842689 0.363392 0.714888 -0.168633
C31   C     C_R   0.103245 0.544126 0.291996 0.109378
C32   C     C_R   0.897157 0.461477 0.710040 0.105415
C33   C     C_R   0.082399 0.473590 0.188000 -0.195630
C34   C     C_R   0.911355 0.537182 0.810380 -0.221569
C35   C     C_R   0.120688 0.499522 0.085062 -0.231415
C36   C     C_R   0.872173 0.515066 0.914671 -0.163469
C37   C     C_R   0.179820 0.596793 0.084022 0.226901
C38   C     C_R   0.819993 0.416778 0.920724 0.205480
C39   C     C_R   0.926628 0.512812 0.401907 -0.236746
C40   C     C_R   0.073664 0.488628 0.598673 -0.240300
Cu1   Cu    Cu3+1 0.509250 0.507730 0.615930 0.941001
Cu2   Cu    Cu3+1 0.490750 0.492270 0.384070 0.966677
H1    H     H_    0.635590 0.656509 0.811091 0.167197
H2    H     H_    0.354200 0.349820 0.188166 0.152495
H3    H     H_    0.179065 0.695664 0.372418 0.120056
H4    H     H_    0.832254 0.304856 0.637285 0.119605
H5    H     H_    0.102147 0.444318 0.005573 0.155886
H6    H     H_    0.884758 0.573952 0.991740 0.167783
H7    H     H_    0.870262 0.524146 0.325755 0.173190
H8    H     H_    0.129995 0.477147 0.674911 0.157945
N1    N     N_R   0.523180 0.519350 0.790130 -0.228214
N2    N     N_R   0.476820 0.480650 0.209870 -0.184094
O1    O     O_R   0.506570 0.354460 0.582000 -0.614829
O2    O     O_R   0.493430 0.645540 0.418000 -0.580124
O3    O     O_R   0.490940 0.341410 0.386200 -0.549385
O4    O     O_R   0.509060 0.658590 0.613800 -0.555320
O5    O     O_R   0.327460 0.506540 0.597900 -0.604174
O6    O     O_R   0.672540 0.493460 0.402100 -0.558458
O7    O     O_R   0.311830 0.493480 0.402100 -0.577806
O8    O     O_R   0.688170 0.506520 0.597900 -0.580253
N3    N     N_3   0.212965 0.625886 0.977055 -0.575126
H9    H     H_    0.308904 0.637068 0.981618 0.221304
H10   H     H_    0.189498 0.565181 0.907957 0.212027
N4    N     N_3   0.787356 0.394908 0.030518 -0.608216
H11   H     H_    0.693938 0.371224 0.023333 0.227623
H12   H     H_    0.838133 0.332573 0.049572 0.228052
N5    N     N_3   0.386218 0.364550 0.778857 -0.552130
H13   H     H_    0.328721 0.384466 0.712977 0.256036
H14   H     H_    0.443050 0.304401 0.751924 0.237248
N6    N     N_3   0.634139 0.616546 0.234146 -0.528781
H15   H     H_    0.612548 0.694023 0.238017 0.197813
H16   H     H_    0.722285 0.602442 0.206758 0.201661
N7    N     N_3   0.329029 0.299295 0.962502 -0.568804
H17   H     H_    0.367830 0.232850 0.985730 0.213680
H18   H     H_    0.238852 0.301551 0.988239 0.212463
N8    N     N_3   0.652824 0.715767 0.031910 -0.628628
H19   H     H_    0.590087 0.759252 0.080957 0.229879
H20   H     H_    0.733835 0.704720 0.080122 0.222848
N9    N     N_3   0.262608 0.767195 0.187910 -0.580243
H21   H     H_    0.354250 0.754134 0.170177 0.217709
H22   H     H_    0.265057 0.813160 0.270036 0.218003
N10   N     N_3   0.750392 0.239440 0.826093 -0.612229
H23   H     H_    0.657329 0.248567 0.840815 0.224830
H24   H     H_    0.752726 0.189926 0.746582 0.225057
H25   H     H_    0.035293 0.398809 0.186568 0.146764
H26   H     H_    0.953875 0.613037 0.807967 0.161927
H27   H     H_    0.490864 0.811055 0.352637 0.194476
H28   H     H_    0.537613 0.188010 0.644372 0.189738
N11   N     N_3   0.518793 0.833499 0.750197 -0.572522
H29   H     H_    0.444256 0.858291 0.797692 0.220875
H30   H     H_    0.601135 0.858028 0.800081 0.216113
N12   N     N_3   0.483406 0.167213 0.248453 -0.578412
H31   H     H_    0.556905 0.145715 0.198063 0.215213
H32   H     H_    0.400392 0.139698 0.201291 0.202292
N13   N     N_3   0.489668 0.946920 0.230817 -0.644630
H33   H     H_    0.565196 0.965780 0.186526 0.219590
H34   H     H_    0.408398 0.960272 0.183856 0.230203
N14   N     N_3   0.529163 0.053833 0.766760 -0.633928
H35   H     H_    0.608544 0.037704 0.814660 0.225780
H36   H     H_    0.451735 0.038369 0.810316 0.222559

loop_
_geom_bond_atom_site_label_1
_geom_bond_atom_site_label_2
_ccdc_geom_bond_type
C8    C13   A    
C27   C29   A    
C1    C8    S    
Cu1   Cu2   S    
C2    C7    S    
C35   H5    S    
Cu2   O6    S    
C23   O7    A    
C17   C26   A    
C35   C37   A    
C9    C16   A    
N8    H20   S    
C14   H27   S    
C20   N1    A    
C27   N9    S    
C10   C15   A    
C34   H26   S    
C15   C16   A    
N3    H10   S    
N7    H17   S    
C10   N14   S    
C1    O1    A    
C33   H25   S    
C17   C19   A    
C11   N12   S    
C7    C14   A    
C4    C40   A    
C31   C33   A    
N6    H15   S    
N11   H30   S    
C9    N13   S    
C34   C36   A    
C5    C32   S    
C6    C31   S    
C3    C39   A    
C17   N7    S    
N7    H18   S    
C3    C24   S    
C18   C25   A    
C19   N2    A    
C38   N4    S    
C7    C12   A    
C28   N10   S    
N5    H13   S    
C12   N11   S    
N8    H19   S    
C4    C6    A    
C2    O2    A    
N9    H22   S    
C4    C23   S    
C25   C26   A    
C29   H3    S    
N5    H14   S    
C32   C34   A    
Cu1   O4    S    
Cu2   O3    S    
C28   C38   A    
C24   O8    A    
N12   H32   S    
C9    C11   A    
Cu1   O1    S    
C10   C12   A    
C39   H7    S    
N14   H35   S    
N14   H36   S    
C13   C15   A    
C14   C16   A    
C20   H1    S    
C19   H2    S    
C23   O5    A    
C21   C25   A    
C18   N8    S    
C30   H4    S    
Cu1   O8    S    
C3    C5    A    
Cu2   O7    S    
C37   N3    S    
N13   H34   S    
N10   H24   S    
C21   N6    S    
N4    H11   S    
C36   C38   A    
C1    O3    A    
Cu1   O5    S    
C29   C31   A    
C2    O4    A    
Cu2   O2    S    
C30   C32   A    
C27   C37   A    
C8    C11   A    
C40   H8    S    
C13   H28   S    
C28   C30   A    
N12   H31   S    
C33   C35   A    
C36   H6    S    
C18   C20   A    
N3    H9    S    
C22   N5    S    
N9    H21   S    
C24   O6    A    
N10   H23   S    
C22   C26   A    
C5    C40   A    
Cu2   N2    S    
N13   H33   S    
C6    C39   A    
N6    H16   S    
N11   H29   S    
Cu1   N1    S    
C21   N2    A    
N4    H12   S    
C22   N1    A    
