data_mof_unit_60301.cif
_audit_creation_date              2012-12-10T20:11:10-0500
_audit_creation_method            fapswitch 2.2
_symmetry_space_group_name_H-M    P1
_symmetry_Int_Tables_number       1
_space_group_crystal_system       triclinic
_cell_length_a                    18.775903
_cell_length_b                    18.456103
_cell_length_c                    14.168612
_cell_angle_alpha                 90.009778
_cell_angle_beta                  90.302049
_cell_angle_gamma                 90.617465
_cell_volume                      4909.49565274

loop_
_atom_site_label
_atom_site_type_symbol
_atom_type_description
_atom_site_fract_x
_atom_site_fract_y
_atom_site_fract_z
_atom_type_partial_charge
C1    C     C_R   0.364435 0.499621 0.499257 0.922602
C2    C     C_R   0.635232 0.500481 0.497018 0.926249
C3    C     C_R   0.960409 0.578450 0.389501 0.281710
C4    C     C_R   0.036204 0.455567 0.336399 0.343261
C5    C     C_R   0.035229 0.580058 0.381354 0.331268
C6    C     C_R   0.960955 0.452047 0.340687 0.298715
C7    C     C_R   0.071725 0.513710 0.382138 -0.031814
C8    C     C_R   0.924242 0.512238 0.375360 0.004829
C9    C     C_R   0.545606 0.726595 0.557960 0.553525
C10   C     C_R   0.454423 0.273461 0.441929 0.542827
C11   C     C_R   0.454398 0.725567 0.441997 0.545676
C12   C     C_R   0.545486 0.274376 0.558098 0.554655
C13   C     C_R   0.546529 0.802706 0.559071 0.438548
C14   C     C_R   0.453434 0.197350 0.440781 0.438380
C15   C     C_R   0.453438 0.801649 0.440885 0.437428
C16   C     C_R   0.546388 0.198293 0.559158 0.437595
C17   C     C_R   0.499968 0.841543 0.499981 -0.369014
C18   C     C_R   0.499906 0.158458 0.499931 -0.365742
C19   C     C_R   0.435808 0.961238 0.506488 -0.106834
C20   C     C_R   0.564042 0.038767 0.493332 -0.105168
C21   C     C_R   0.564062 0.962668 0.493366 -0.105444
C22   C     C_R   0.435788 0.037340 0.506442 -0.107504
C23   C     C_R   0.499906 0.077197 0.499878 0.265872
C24   C     C_R   0.499946 0.922807 0.499956 0.265957
C25   C     C_R   0.499981 0.499997 0.328912 0.886332
C26   C     C_R   0.500070 0.500006 0.671088 0.889904
C27   C     C_1   0.500059 0.499995 0.227540 -0.133026
C28   C     C_1   0.500120 0.500018 0.772473 -0.134443
C29   C     C_1   0.500117 0.500004 0.142378 0.037744
C30   C     C_1   0.500154 0.500022 0.857639 0.036916
C31   C     C_1   0.500160 0.500014 0.042591 0.052719
C32   C     C_1   0.500171 0.500020 0.957429 0.052327
C33   C     C_R   0.759194 0.456192 0.508189 -0.292949
C34   C     C_R   0.248655 0.561950 0.502895 -0.283186
C35   C     C_R   0.251337 0.436107 0.459174 -0.299382
C36   C     C_R   0.728312 0.548134 0.393206 -0.319299
C37   C     C_R   0.830015 0.458167 0.477006 0.438061
C38   C     C_R   0.176042 0.564539 0.480308 0.477235
C39   C     C_R   0.178916 0.437949 0.434754 0.467173
C40   C     C_R   0.797882 0.548944 0.358690 0.482501
C41   C     C_R   0.849084 0.505128 0.402381 0.161267
C42   C     C_R   0.143734 0.505892 0.429714 0.084978
C43   C     C_R   0.709256 0.502410 0.467960 -0.115499
C44   C     C_R   0.287128 0.499093 0.487329 -0.142843
H1    H     H_    0.743395 0.420164 0.564917 0.191952
H2    H     H_    0.274804 0.608746 0.534414 0.181234
H3    H     H_    0.279634 0.385321 0.455834 0.214105
H4    H     H_    0.688427 0.581978 0.360238 0.160996
H5    H     H_    0.385583 0.932331 0.512981 0.190637
H6    H     H_    0.614267 0.067677 0.486856 0.192252
H7    H     H_    0.614300 0.934883 0.486897 0.192686
H8    H     H_    0.385551 0.065130 0.512904 0.190081
N1    N     N_R   0.500000 0.689440 0.500000 -0.264012
N2    N     N_R   0.500000 0.310560 0.500000 -0.258563
O1    O     O_R   0.398180 0.560840 0.499980 -0.572659
O2    O     O_R   0.601820 0.439160 0.500020 -0.569318
O3    O     O_R   0.601820 0.560840 0.500020 -0.568188
O4    O     O_R   0.398180 0.439160 0.499980 -0.581866
O5    O     O_R   0.500000 0.560830 0.373710 -0.565704
O6    O     O_R   0.500000 0.439170 0.626290 -0.561426
O7    O     O_R   0.500000 0.560830 0.626290 -0.562069
O8    O     O_R   0.500000 0.439170 0.373710 -0.557906
Zn1   Zn    Zn3+2 0.500000 0.581210 0.500000 1.061038
Zn2   Zn    Zn3+2 0.500000 0.418790 0.500000 1.062745
O9    O     O_3   0.881687 0.416348 0.519512 -0.722018
H9    H     H_    0.859532 0.386986 0.570329 0.357604
O10   O     O_3   0.135385 0.620532 0.514698 -0.697915
H10   H     H_    0.166160 0.655473 0.549656 0.350648
O11   O     O_3   0.141197 0.373796 0.424045 -0.683412
H11   H     H_    0.173662 0.332140 0.431723 0.357646
O12   O     O_3   0.817167 0.591838 0.282856 -0.699608
H12   H     H_    0.775035 0.619150 0.260808 0.346711
O13   O     O_3   0.922450 0.638684 0.416592 -0.699198
H13   H     H_    0.955413 0.674054 0.446881 0.365697
O14   O     O_3   0.074716 0.409375 0.279917 -0.672787
H14   H     H_    0.042408 0.386449 0.232908 0.354953
O15   O     O_3   0.072446 0.643532 0.363294 -0.668995
H15   H     H_    0.038867 0.680825 0.340650 0.361310
O16   O     O_3   0.922553 0.390692 0.315499 -0.710474
H16   H     H_    0.954415 0.348310 0.318452 0.370108
F1    F     F_    0.590320 0.689775 0.615508 -0.570023
F2    F     F_    0.409809 0.310335 0.384298 -0.588399
F3    F     F_    0.409730 0.687760 0.384370 -0.573773
F4    F     F_    0.590089 0.312126 0.615873 -0.582109
F5    F     F_    0.591387 0.838024 0.619291 -0.577263
F6    F     F_    0.408603 0.162086 0.380473 -0.580935
F7    F     F_    0.408578 0.835939 0.380639 -0.577972
F8    F     F_    0.591147 0.163939 0.619475 -0.579913

loop_
_geom_bond_atom_site_label_1
_geom_bond_atom_site_label_2
_ccdc_geom_bond_type
C40   O12   S    
C27   C29   T    
C33   H1    S    
O13   H13   S    
C14   C18   A    
C35   H3    S    
C2    O3    A    
O15   H15   S    
C22   H8    S    
C26   O7    A    
C38   C42   A    
C12   F4    S    
C7    C42   S    
O7    Zn1   S    
C9    C13   A    
C4    O14   S    
C20   H6    S    
C11   C15   A    
C12   C16   A    
O1    Zn1   S    
O8    Zn2   S    
O2    Zn2   S    
C34   H2    S    
C11   N1    A    
C4    C7    A    
C10   N2    A    
O3    Zn1   S    
C39   C42   A    
O4    Zn2   S    
C17   C24   S    
C18   C23   S    
C33   C43   A    
C36   C40   A    
C19   C22   A    
C34   C44   A    
C8    C41   S    
C14   F6    S    
C4    C6    A    
C3    C8    A    
C10   C14   A    
C5    C7    A    
C6    C8    A    
C11   F3    S    
C10   F2    S    
C33   C37   A    
O10   H10   S    
C37   O9    S    
C35   C39   A    
O14   H14   S    
C19   H5    S    
C1    C44   S    
C31   C32   T    
C20   C23   A    
C2    C43   S    
C39   O11   S    
C38   O10   S    
C35   C44   A    
C40   C41   A    
C9    N1    A    
C5    O15   S    
C21   H7    S    
C15   F7    S    
C15   C17   A    
C34   C38   A    
O5    Zn1   S    
C3    C5    A    
C25   C27   S    
C26   C28   S    
C13   C17   A    
O6    Zn2   S    
C28   C30   T    
C19   C24   A    
C1    O1    A    
O12   H12   S    
C29   C31   S    
C2    O2    A    
C1    O4    A    
C30   C32   S    
N1    Zn1   S    
C6    O16   S    
N2    Zn2   S    
C36   H4    S    
C25   O8    A    
C37   C41   A    
O11   H11   S    
C3    O13   S    
O16   H16   S    
C20   C21   A    
C16   C18   A    
O9    H9    S    
C21   C24   A    
C13   F5    S    
C16   F8    S    
C22   C23   A    
C36   C43   A    
C25   O5    A    
C26   O6    A    
C12   N2    A    
C9    F1    S    
