data_mof_unit_16203.cif
_audit_creation_date              2013-03-05T15:46:11-0500
_audit_creation_method            fapswitch 2.2
_symmetry_space_group_name_H-M    P1
_symmetry_Int_Tables_number       1
_space_group_crystal_system       triclinic
_cell_length_a                    10.257399
_cell_length_b                    10.795883
_cell_length_c                    12.908261
_cell_angle_alpha                 91.522034
_cell_angle_beta                  91.199042
_cell_angle_gamma                 94.483254
_cell_volume                      1424.17485312

loop_
_atom_site_label
_atom_site_type_symbol
_atom_site_description
_atom_site_fract_x
_atom_site_fract_y
_atom_site_fract_z
_atom_type_partial_charge
O1    O     O_R   0.567930 0.307680 0.508550 -0.603642
O2    O     O_R   0.432070 0.692320 0.491450 -0.607976
O3    O     O_R   0.351090 0.340020 0.481290 -0.541672
O4    O     O_R   0.648910 0.659980 0.518710 -0.545368
C1    C     C_R   0.445370 0.267897 0.496430 0.936604
C2    C     C_R   0.553704 0.732185 0.509843 0.937903
O5    O     O_R   0.590490 0.486480 0.665020 -0.587956
O6    O     O_R   0.409510 0.513520 0.334980 -0.558337
O7    O     O_R   0.373660 0.518820 0.637760 -0.583367
O8    O     O_R   0.626340 0.481180 0.362240 -0.585463
C3    C     C_R   0.473981 0.505153 0.698199 0.937153
C4    C     C_R   0.525642 0.493852 0.301637 0.942624
Zn1   Zn    Zn3+2 0.644780 0.478400 0.518200 1.125211
Zn2   Zn    Zn3+2 0.355220 0.521600 0.481800 1.141290
C5    C     C_R   0.543122 0.490174 0.190691 -0.270672
C6    C     C_R   0.455060 0.507661 0.808728 -0.241044
C7    C     C_R   0.337302 0.428242 0.954792 -0.240177
C8    C     C_R   0.664377 0.566170 0.044492 -0.246447
C9    C     C_R   0.339981 0.449884 0.849227 0.422719
C10   C     C_R   0.661555 0.537643 0.148832 0.436239
C11   C     C_R   0.558966 0.557110 0.873722 0.234644
C12   C     C_R   0.436229 0.448852 0.126018 0.256100
C13   C     C_R   0.555863 0.532478 0.979331 -0.051290
C14   C     C_R   0.442856 0.469254 0.020086 -0.038746
H1    H     H_    0.253687 0.375400 0.984883 0.186632
H2    H     H_    0.752494 0.613302 0.015713 0.212138
H3    H     H_    0.382173 0.895803 0.538590 0.238072
H4    H     H_    0.605041 0.106601 0.559464 0.242786
C15   C     C_2   0.413608 0.136322 0.505380 -0.248661
C16   C     C_2   0.582306 0.864192 0.525085 -0.231757
C17   C     C_2   0.506852 0.067048 0.538752 -0.152236
C18   C     C_2   0.482979 0.934811 0.537558 -0.142646
H5    H     H_    0.683083 0.903850 0.524443 0.212036
H6    H     H_    0.315893 0.095944 0.484233 0.217248
N1    N     N_2   0.162330 0.550370 0.457540 -0.047944
N2    N     N_2   0.837670 0.449630 0.542460 -0.053651
C19   C     C_2   0.065048 0.476368 0.484447 0.209000
C20   C     C_2   0.928974 0.518509 0.499756 0.222856
N3    N     N_R   0.320560 0.387522 0.168370 0.209910
O9    O     O_R   0.327670 0.284494 0.217513 -0.382624
O10   O     O_R   0.212231 0.442681 0.168800 -0.408665
N4    N     N_R   0.664031 0.635612 0.832089 0.222823
O11   O     O_R   0.637836 0.734862 0.783126 -0.369949
O12   O     O_R   0.781926 0.599212 0.829510 -0.407651
O13   O     O_3   0.772055 0.561373 0.211955 -0.573576
C21   C     C_3   0.871600 0.484189 0.182159 0.183963
H7    H     H_    0.955232 0.504854 0.237364 0.235672
H8    H     H_    0.908654 0.507794 0.104328 0.130610
C22   C     C_3   0.828945 0.344239 0.187196 -0.494651
H9    H     H_    0.785280 0.324432 0.263474 0.287963
H10   H     H_    0.754081 0.317122 0.125574 0.217975
C23   C     C_3   0.943908 0.264762 0.171969 -0.691505
H11   H     H_    0.989750 0.283403 0.096255 0.252140
H12   H     H_    0.909013 0.164870 0.173519 0.272792
H13   H     H_    0.018091 0.284895 0.235042 0.325574
O14   O     O_3   0.239352 0.400569 0.782860 -0.593349
C24   C     C_3   0.113809 0.428187 0.817316 0.171656
H14   H     H_    0.062695 0.471019 0.752218 0.202593
H15   H     H_    0.115687 0.497526 0.883146 0.123655
C25   C     C_3   0.034109 0.307763 0.844942 -0.329022
H16   H     H_    0.028206 0.241858 0.777197 0.301840
H17   H     H_    0.082919 0.262124 0.909447 0.206417
C26   C     C_3   0.895810 0.332285 0.876810 -0.827104
H18   H     H_    0.898940 0.399910 0.943094 0.246580
H19   H     H_    0.842865 0.244171 0.900288 0.269634
H20   H     H_    0.841243 0.369699 0.811134 0.319883
N5    N     N_R   0.904779 0.645650 0.485511 0.224947
O15   O     O_R   0.913591 0.723420 0.564566 -0.313749
O16   O     O_R   0.865650 0.682141 0.395676 -0.298867
N6    N     N_R   0.092426 0.351133 0.504069 0.232783
O17   O     O_R   0.122515 0.318537 0.597083 -0.348737
O18   O     O_R   0.098155 0.271920 0.426908 -0.327068
N7    N     N_R   0.847901 0.322027 0.541726 0.295511
O19   O     O_R   0.837461 0.264124 0.628463 -0.379044
O20   O     O_R   0.825684 0.258035 0.455438 -0.363061
N8    N     N_R   0.140437 0.664996 0.417157 0.299261
O21   O     O_R   0.171729 0.765342 0.472942 -0.334319
O22   O     O_R   0.126502 0.674070 0.317358 -0.323444

loop_
_geom_bond_atom_site_label_1
_geom_bond_atom_site_label_2
_geom_bond_distance
_ccdc_geom_bond_type
C9    O14   1.391265 S    
C16   C18   1.329274 D    
O7    Zn2   2.019331 S    
C26   H19   1.110469 S    
C6    C11   1.405207 A    
O7    C3    1.298301 A    
C3    C6    1.443722 S    
C8    C10   1.389952 A    
C17   C18   1.429092 S    
C8    H2    1.079839 S    
C23   H13   1.108123 S    
O6    C4    1.305928 A    
C13   C14   1.416749 A    
C22   C23   1.524569 S    
C7    H1    1.077569 S    
C22   H10   1.111316 S    
N2    C20   1.291680 D    
C26   H20   1.108508 S    
C15   C17   1.330919 D    
O13   C21   1.420309 S    
C20   N5    1.429752 S    
O5    C3    1.306442 A    
N7    O20   1.301417 A    
C21   C22   1.543210 S    
C24   H14   1.111274 S    
O2    C2    1.302482 A    
O3    Zn2   1.957294 S    
N4    O12   1.301235 A    
C25   C26   1.526116 S    
O1    C1    1.301208 A    
C12   N3    1.438237 S    
O8    C4    1.300583 A    
O4    C2    1.301345 A    
N5    O15   1.301226 A    
N1    C19   1.288112 D    
C19   C20   1.516649 S    
C23   H12   1.110221 S    
C4    C5    1.446908 S    
C1    C15   1.440547 S    
N8    O21   1.299869 A    
C11   C13   1.396375 A    
N7    O19   1.299047 A    
C6    C9    1.408460 A    
C5    C10   1.405424 A    
O2    Zn2   1.946892 S    
C12   C14   1.393014 A    
N1    N8    1.387929 S    
C24   H15   1.116277 S    
C7    C14   1.394878 A    
O1    Zn1   1.946890 S    
N2    N7    1.389534 S    
C8    C13   1.399991 A    
N3    O9    1.301195 A    
C21   H8    1.110484 S    
O5    Zn1   1.988078 S    
N6    O17   1.297909 A    
C23   H11   1.109811 S    
N3    O10   1.301104 A    
Zn1   N2    2.045606 S    
C25   H17   1.108902 S    
C22   H9    1.109273 S    
N4    O11   1.301404 A    
C10   O13   1.385314 S    
Zn2   N1    2.045605 S    
O14   C24   1.421961 S    
C21   H7    1.108844 S    
C7    C9    1.389129 A    
C24   C25   1.535048 S    
N6    O18   1.300725 A    
C11   N4    1.440194 S    
O6    Zn2   1.988078 S    
C16   H5    1.087790 S    
N5    O16   1.300195 A    
H3    C18   1.086043 S    
C19   N6    1.430226 S    
C15   H6    1.087687 S    
C2    C16   1.439828 S    
C5    C12   1.401264 A    
C26   H18   1.108205 S    
O4    Zn1   1.957294 S    
N8    O22   1.300297 A    
C25   H16   1.110222 S    
O3    C1    1.302910 A    
O8    Zn1   2.019332 S    
H4    C17   1.087947 S    
