data_mof_unit_7466.cif
_audit_creation_date              2012-12-10T17:11:28-0500
_audit_creation_method            fapswitch 2.2
_symmetry_space_group_name_H-M    P1
_symmetry_Int_Tables_number       1
_space_group_crystal_system       triclinic
_cell_length_a                    15.024395
_cell_length_b                    13.068514
_cell_length_c                    11.91745
_cell_angle_alpha                 99.85305
_cell_angle_beta                  92.91819
_cell_angle_gamma                 95.49733
_cell_volume                      2289.42151971

loop_
_atom_site_label
_atom_site_type_symbol
_atom_type_description
_atom_site_fract_x
_atom_site_fract_y
_atom_site_fract_z
_atom_type_partial_charge
C1    C     C_R   0.502467 0.299852 0.478103 0.805976
C2    C     C_R   0.497533 0.700148 0.521897 0.805973
C3    C     C_R   0.030130 0.328955 0.565854 -0.090678
C4    C     C_R   0.969865 0.671013 0.434078 -0.090669
C5    C     C_R   0.493291 0.813935 0.535885 -0.106320
C6    C     C_R   0.506707 0.186065 0.464114 -0.106315
C7    C     C_R   0.489244 0.012964 0.346161 -0.051962
C8    C     C_R   0.510752 0.987035 0.653839 -0.051961
C9    C     C_R   0.504032 0.121685 0.355530 -0.078755
C10   C     C_R   0.495964 0.878314 0.644469 -0.078758
C11   C     C_R   0.510611 0.140636 0.562106 -0.230063
C12   C     C_R   0.489387 0.859364 0.437893 -0.230063
C13   C     C_R   0.506432 0.032303 0.554498 0.102373
C14   C     C_R   0.493565 0.967696 0.445502 0.102372
C15   C     C_R   0.433481 0.378696 0.025185 0.089213
C16   C     C_R   0.566518 0.621305 0.974815 0.089213
C17   C     C_R   0.425349 0.403686 0.143939 0.336987
C18   C     C_R   0.574650 0.596315 0.856061 0.336985
C19   C     C_R   0.533714 0.550893 0.156335 0.287174
C20   C     C_R   0.466286 0.449107 0.843665 0.287181
C21   C     C_R   0.524413 0.544769 0.033677 -0.059575
C22   C     C_R   0.475586 0.455231 0.966323 -0.059576
C23   C     C_R   0.329545 0.498432 0.500494 0.802473
C24   C     C_R   0.670456 0.501568 0.499505 0.802469
C25   C     C_R   0.819489 0.592250 0.476004 -0.071524
C26   C     C_R   0.180512 0.407737 0.523970 -0.071531
C27   C     C_R   0.767058 0.504429 0.498291 -0.095661
C28   C     C_R   0.232942 0.495567 0.501705 -0.095654
C29   C     C_R   0.805545 0.418359 0.523152 -0.228756
C30   C     C_R   0.194454 0.581637 0.476843 -0.228756
C31   C     C_R   0.898365 0.416292 0.527289 0.061926
C32   C     C_R   0.101633 0.583696 0.472684 0.061920
C33   C     C_R   0.953091 0.501599 0.499156 0.034557
C34   C     C_R   0.046908 0.498385 0.500811 0.034560
C35   C     C_R   0.913692 0.589752 0.469274 0.021642
C36   C     C_R   0.086307 0.410228 0.530684 0.021646
C37   C     C_R   0.936757 0.330875 0.560658 -0.075792
C38   C     C_R   0.063239 0.669103 0.439290 -0.075793
Cu1   Cu    Cu3+1 0.506660 0.507730 0.615930 0.953082
Cu2   Cu    Cu3+1 0.493340 0.492270 0.384070 0.953082
H1    H     H_    0.761446 0.353460 0.541345 0.148912
H2    H     H_    0.238552 0.646541 0.458662 0.148910
H3    H     H_    0.483957 0.809732 0.354838 0.166994
H4    H     H_    0.516042 0.190268 0.645162 0.166993
N1    N     N_R   0.516670 0.519360 0.790130 -0.196078
N2    N     N_R   0.483330 0.480640 0.209870 -0.196078
O1    O     O_R   0.504720 0.354460 0.582000 -0.591620
O2    O     O_R   0.495280 0.645540 0.418000 -0.591621
O3    O     O_R   0.493480 0.341410 0.386200 -0.581930
O4    O     O_R   0.506520 0.658590 0.613800 -0.581930
O5    O     O_R   0.375880 0.506510 0.597910 -0.584448
O6    O     O_R   0.624120 0.493490 0.402090 -0.584447
O7    O     O_R   0.364640 0.493450 0.402110 -0.584329
O8    O     O_R   0.635360 0.506550 0.597890 -0.584327
C39   C     C_1   0.775330 0.685975 0.472799 0.207519
N3    N     N_1   0.739313 0.760246 0.471290 -0.273048
C40   C     C_1   0.224679 0.314016 0.527173 0.207512
N4    N     N_1   0.260700 0.239747 0.528680 -0.273049
C41   C     C_3   0.410948 0.265002 0.970682 -0.814292
H5    H     H_    0.410186 0.212540 0.034562 0.254734
H6    H     H_    0.343757 0.250615 0.924644 0.232957
H7    H     H_    0.464481 0.240211 0.915554 0.259012
C42   C     C_3   0.589049 0.734999 0.029318 -0.814290
H8    H     H_    0.589810 0.787461 0.965438 0.254732
H9    H     H_    0.535517 0.759789 0.084447 0.259011
H10   H     H_    0.656241 0.749387 0.075356 0.232963
C43   C     C_1   0.880314 0.244662 0.592176 0.253733
N5    N     N_1   0.835501 0.176151 0.617175 -0.250173
C44   C     C_1   0.119679 0.755308 0.407754 0.253742
N6    N     N_1   0.164489 0.823813 0.382739 -0.250167
C45   C     C_1   0.066001 0.246213 0.615847 0.284395
N7    N     N_1   0.093555 0.180095 0.656264 -0.240568
C46   C     C_1   0.933988 0.753719 0.384027 0.284396
N8    N     N_1   0.906431 0.819809 0.343561 -0.240592
C47   C     C_1   0.475550 0.835296 0.745697 0.294020
N9    N     N_1   0.457440 0.801300 0.826069 -0.256464
C48   C     C_1   0.524444 0.164703 0.254302 0.294023
N10   N     N_1   0.542551 0.198698 0.173928 -0.256467
C49   C     C_1   0.462953 0.950229 0.234712 0.228475
N11   N     N_1   0.440188 0.901769 0.145598 -0.267866
C50   C     C_1   0.537043 0.049769 0.765288 0.228472
N12   N     N_1   0.559808 0.098229 0.854402 -0.267870
C51   C     C_3   0.396322 0.368684 0.774957 -0.715828
H11   H     H_    0.381096 0.377873 0.688550 0.272152
H12   H     H_    0.418888 0.289965 0.763149 0.203585
H13   H     H_    0.331316 0.371820 0.814967 0.204673
C52   C     C_3   0.603677 0.631316 0.225042 -0.715823
H14   H     H_    0.618903 0.622126 0.311448 0.272153
H15   H     H_    0.668683 0.628180 0.185032 0.204678
H16   H     H_    0.581112 0.710034 0.236851 0.203586
C53   C     C_3   0.654154 0.648292 0.806223 -0.745424
H17   H     H_    0.697085 0.705849 0.870479 0.200444
H18   H     H_    0.699595 0.589000 0.776471 0.233285
H19   H     H_    0.634416 0.689886 0.737562 0.250863
C54   C     C_3   0.345844 0.351711 0.193777 -0.745425
H20   H     H_    0.302913 0.294153 0.129523 0.200442
H21   H     H_    0.365580 0.310120 0.262442 0.250866
H22   H     H_    0.300403 0.411005 0.223526 0.233283

loop_
_geom_bond_atom_site_label_1
_geom_bond_atom_site_label_2
_ccdc_geom_bond_type
C24   O6    A    
Cu1   O5    S    
C52   H14   S    
C42   H9    S    
C8    C13   A    
C27   C29   A    
C46   N8    T    
C54   H20   S    
C24   C27   S    
C39   N3    T    
C6    C9    A    
C50   N12   T    
C19   N2    A    
C48   N10   T    
Cu2   N2    S    
C16   C21   A    
C18   C53   S    
Cu1   O1    S    
C19   C21   A    
C12   H3    S    
C19   C52   S    
Cu1   O8    S    
C24   O8    A    
Cu2   O3    S    
C7    C9    A    
Cu2   O2    S    
C2    O4    A    
C7    C14   A    
C31   C33   A    
C17   C54   S    
C16   C42   S    
C32   C38   A    
C20   N1    A    
C53   H17   S    
Cu1   N1    S    
C38   C44   S    
C41   H5    S    
C42   H10   S    
C21   C22   A    
C23   O7    A    
C15   C22   A    
C41   H6    S    
C43   N5    T    
C17   N2    A    
C5    C12   A    
C6    C11   A    
C1    O1    A    
C2    O2    A    
Cu2   O6    S    
C8    C50   S    
C32   C34   A    
C3    C45   S    
C47   N9    T    
C53   H18   S    
C10   C47   S    
C23   O5    A    
C51   H11   S    
C51   H13   S    
C33   C34   A    
C11   H4    S    
C16   C18   A    
C9    C48   S    
C23   C28   S    
C4    C46   S    
C25   C35   A    
C26   C36   A    
C51   H12   S    
C12   C14   A    
C52   H15   S    
C49   N11   T    
C20   C51   S    
C2    C5    S    
C20   C22   A    
C18   N1    A    
Cu1   Cu2   S    
C7    C49   S    
C15   C17   A    
C41   H7    S    
C29   H1    S    
C15   C41   S    
C25   C39   S    
C4    C38   A    
C54   H21   S    
C25   C27   A    
C26   C28   A    
C28   C30   A    
C5    C10   A    
C29   C31   A    
C53   H19   S    
C30   C32   A    
C11   C13   A    
C40   N4    T    
C3    C36   A    
C37   C43   S    
C33   C35   A    
C34   C36   A    
C44   N6    T    
C26   C40   S    
C4    C35   A    
C42   H8    S    
C31   C37   A    
C45   N7    T    
Cu1   O4    S    
C3    C37   A    
C8    C10   A    
Cu2   O7    S    
C52   H16   S    
C1    C6    S    
C30   H2    S    
C13   C14   A    
C1    O3    A    
C54   H22   S    
