data_mof_unit_23760.cif
_audit_creation_date              2012-12-10T16:44:42-0500
_audit_creation_method            fapswitch 2.2
_symmetry_space_group_name_H-M    P1
_symmetry_Int_Tables_number       1
_space_group_crystal_system       triclinic
_cell_length_a                    15.04393
_cell_length_b                    8.679065
_cell_length_c                    7.477618
_cell_angle_alpha                 102.842139
_cell_angle_beta                  94.512133
_cell_angle_gamma                 92.011943
_cell_volume                      947.569639629

loop_
_atom_site_label
_atom_site_type_symbol
_atom_type_description
_atom_site_fract_x
_atom_site_fract_y
_atom_site_fract_z
_atom_type_partial_charge
C1    C     C_R   0.496941 0.199894 0.453467 0.922892
C2    C     C_R   0.503060 0.800106 0.546533 0.922887
C3    C     C_R   0.031644 0.213185 0.359481 0.302123
C4    C     C_R   0.968354 0.786821 0.640492 0.302123
C5    C     C_2   0.495330 0.031960 0.427339 -0.257604
C6    C     C_2   0.504671 0.968039 0.572661 -0.257607
C7    C     C_R   0.329398 0.497762 0.501687 0.897103
C8    C     C_R   0.670601 0.502239 0.498312 0.897097
C9    C     C_R   0.817596 0.647102 0.565764 0.235695
C10   C     C_R   0.182404 0.352899 0.434240 0.235699
C11   C     C_R   0.766877 0.505008 0.494660 -0.197536
C12   C     C_R   0.233123 0.494993 0.505339 -0.197537
C13   C     C_R   0.806415 0.362561 0.432136 0.238923
C14   C     C_R   0.193584 0.637443 0.567847 0.238918
C15   C     C_R   0.899019 0.362556 0.417426 -0.035916
C16   C     C_R   0.100980 0.637450 0.582553 -0.035917
C17   C     C_R   0.952772 0.502699 0.496928 -0.065369
C18   C     C_R   0.047227 0.497306 0.503055 -0.065370
C19   C     C_R   0.912185 0.648496 0.566704 -0.041072
C20   C     C_R   0.087815 0.351507 0.433283 -0.041070
C21   C     C_R   0.939665 0.225069 0.331168 0.287814
C22   C     C_R   0.060334 0.774942 0.668801 0.287816
Cu1   Cu    Cu3+1 0.510010 0.517380 0.684380 1.048766
Cu2   Cu    Cu3+1 0.489990 0.482620 0.315620 1.048765
H1    H     H_    0.486626 0.960593 0.287200 0.187001
H2    H     H_    0.513375 0.039407 0.712800 0.187001
H3    H     H_    0.430364 0.377817 0.948616 0.244594
H4    H     H_    0.569636 0.622183 0.051384 0.244594
N1    N     N_2   0.474890 0.456420 0.038520 -0.206247
N2    N     N_2   0.525110 0.543580 0.961480 -0.206246
O1    O     O_R   0.506510 0.286130 0.619770 -0.592105
O2    O     O_R   0.493490 0.713870 0.380230 -0.592104
O3    O     O_R   0.489600 0.256770 0.308360 -0.565478
O4    O     O_R   0.510400 0.743230 0.691640 -0.565479
O5    O     O_R   0.378710 0.514640 0.655720 -0.581098
O6    O     O_R   0.621290 0.485360 0.344280 -0.581099
O7    O     O_R   0.361800 0.485290 0.344300 -0.546173
O8    O     O_R   0.638200 0.514710 0.655700 -0.546171
Br1   Br    Br    0.751284 0.822720 0.688484 -0.348390
Br2   Br    Br    0.248720 0.177273 0.311560 -0.348398
Br3   Br    Br    0.734421 0.170176 0.424641 -0.375337
Br4   Br    Br    0.265579 0.829823 0.575326 -0.375335
Br5   Br    Br    0.876094 0.062743 0.139113 -0.262350
Br6   Br    Br    0.123905 0.937285 0.860837 -0.262358
Br7   Br    Br    0.069113 0.997942 0.323673 -0.290219
Br8   Br    Br    0.930881 0.002059 0.676266 -0.290228

loop_
_geom_bond_atom_site_label_1
_geom_bond_atom_site_label_2
_ccdc_geom_bond_type
Cu1   Cu2   S    
Cu2   O2    S    
N1    N2    D    
C14   C16   A    
H3    N1    S    
Cu1   O8    S    
C4    C22   A    
C18   C20   A    
Cu2   O3    S    
C1    O1    A    
C14   Br4   S    
Cu1   O4    S    
C2    O4    A    
H4    N2    S    
Cu2   O7    S    
C7    O7    A    
C1    O3    A    
C3    C20   A    
C16   C18   A    
C4    Br8   S    
C9    C11   A    
Cu2   O6    S    
C15   C21   A    
C8    O8    A    
C8    C11   S    
C5    H1    S    
C10   C12   A    
C13   Br3   S    
C17   C19   A    
C12   C14   A    
C22   Br6   S    
C17   C18   A    
Cu1   O5    S    
C13   C15   A    
C5    C6    D    
C1    C5    S    
C7    C12   S    
C3    C21   A    
C11   C13   A    
Cu1   N2    S    
C9    Br1   S    
C2    O2    A    
C8    O6    A    
C15   C17   A    
C3    Br7   S    
C6    H2    S    
C10   Br2   S    
C16   C22   A    
Cu2   N1    S    
C4    C19   A    
C7    O5    A    
C9    C19   A    
C21   Br5   S    
C2    C6    S    
C10   C20   A    
Cu1   O1    S    
