data_mof_unit_30431.cif
_audit_creation_date              2012-12-11T16:08:35-0500
_audit_creation_method            fapswitch 2.2
_symmetry_space_group_name_H-M    P1
_symmetry_Int_Tables_number       1
_space_group_crystal_system       monoclinic
_cell_length_a                    7.279323
_cell_length_b                    21.415935
_cell_length_c                    23.442832
_cell_angle_alpha                 90.0
_cell_angle_beta                  90.0
_cell_angle_gamma                 90.000053
_cell_volume                      3654.5853229

loop_
_atom_site_label
_atom_site_type_symbol
_atom_type_description
_atom_site_fract_x
_atom_site_fract_y
_atom_site_fract_z
_atom_type_partial_charge
O1    O     O_R   0.365470 0.806380 0.442440 -0.532756
O2    O     O_R   0.134530 0.193620 0.942440 -0.532755
O3    O     O_R   0.865470 0.693620 0.557560 -0.532755
O4    O     O_R   0.634530 0.306380 0.057560 -0.532756
O5    O     O_R   0.035730 0.813790 0.557160 -0.543125
O6    O     O_R   0.464270 0.186210 0.057160 -0.543125
O7    O     O_R   0.535730 0.686210 0.442840 -0.543125
O8    O     O_R   0.964270 0.313790 0.942840 -0.543125
C1    C     C_R   0.204840 0.828528 0.575816 0.709840
C2    C     C_R   0.295160 0.171471 0.075816 0.709840
C3    C     C_R   0.704840 0.671471 0.424184 0.709840
C4    C     C_R   0.795160 0.328528 0.924184 0.709840
O9    O     O_R   0.035760 0.813790 0.442850 -0.523244
O10   O     O_R   0.464240 0.186210 0.942850 -0.523244
O11   O     O_R   0.535760 0.686210 0.557150 -0.523244
O12   O     O_R   0.964240 0.313790 0.057150 -0.523244
O13   O     O_R   0.865450 0.693620 0.442430 -0.526161
O14   O     O_R   0.634550 0.306380 0.942430 -0.526161
O15   O     O_R   0.365450 0.806380 0.557570 -0.526161
O16   O     O_R   0.134550 0.193620 0.057570 -0.526161
C5    C     C_R   0.205134 0.828597 0.424267 0.690987
C6    C     C_R   0.294866 0.171403 0.924267 0.690986
C7    C     C_R   0.705134 0.671403 0.575733 0.690986
C8    C     C_R   0.794866 0.328597 0.075733 0.690986
O17   O     O_3   0.198970 0.710570 0.500000 -0.373107
O18   O     O_3   0.301030 0.289430 0.000000 -0.373107
O19   O     O_3   0.698970 0.789430 0.500000 -0.373107
O20   O     O_3   0.801030 0.210570 0.000000 -0.373107
V1    V     V_3+5 0.924120 0.757310 0.500000 1.473553
V2    V     V_3+5 0.575880 0.242690 0.000000 1.473553
V3    V     V_3+5 0.424120 0.742690 0.500000 1.473553
V4    V     V_3+5 0.075880 0.257310 0.000000 1.473553
C9    C     C_3   0.963301 0.529210 0.725930 0.391887
C10   C     C_3   0.536698 0.470790 0.225930 0.391885
C11   C     C_3   0.463301 0.970790 0.274070 0.391886
C12   C     C_3   0.036699 0.029210 0.774070 0.391887
C13   C     C_3   0.658872 0.564016 0.759369 0.352934
C14   C     C_3   0.841127 0.435984 0.259369 0.352935
C15   C     C_3   0.158872 0.935984 0.240631 0.352934
C16   C     C_3   0.341127 0.064016 0.740631 0.352934
C17   C     C_3   0.672056 0.514633 0.807975 0.371054
C18   C     C_3   0.827943 0.485367 0.307975 0.371052
C19   C     C_3   0.172057 0.985367 0.192025 0.371053
C20   C     C_3   0.327943 0.014633 0.692025 0.371054
H1    H     H_    0.048120 0.494779 0.809077 0.115467
H2    H     H_    0.451879 0.505221 0.309077 0.115466
H3    H     H_    0.548120 0.005221 0.190923 0.115467
H4    H     H_    0.951880 0.994778 0.690923 0.115467
H5    H     H_    0.010645 0.572868 0.747163 0.099153
H6    H     H_    0.489354 0.427132 0.247163 0.099153
H7    H     H_    0.510645 0.927132 0.252837 0.099153
H8    H     H_    0.989355 0.072868 0.752837 0.099153
H9    H     H_    0.723809 0.608231 0.774170 0.056880
H10   H     H_    0.776190 0.391769 0.274170 0.056880
H11   H     H_    0.223809 0.891769 0.225830 0.056880
H12   H     H_    0.276190 0.108231 0.725830 0.056881
H13   H     H_    0.747673 0.535968 0.844375 0.040960
H14   H     H_    0.752326 0.464032 0.344375 0.040961
H15   H     H_    0.247673 0.964032 0.155625 0.040961
H16   H     H_    0.252326 0.035968 0.655625 0.040961
C21   C     C_1   0.783153 0.373246 0.877769 -0.184078
C22   C     C_1   0.716847 0.626754 0.377769 -0.184078
C23   C     C_1   0.283153 0.126754 0.122231 -0.184078
C24   C     C_1   0.216847 0.873246 0.622231 -0.184078
C25   C     C_3   0.759494 0.539761 0.705210 -0.356755
C26   C     C_3   0.740506 0.460239 0.205210 -0.356755
C27   C     C_3   0.259494 0.960239 0.294790 -0.356754
C28   C     C_3   0.240506 0.039761 0.794790 -0.356755
C29   C     C_3   0.978007 0.474712 0.771118 0.168060
C30   C     C_3   0.521992 0.525288 0.271118 0.168061
C31   C     C_3   0.478007 0.025288 0.228882 0.168060
C32   C     C_3   0.021993 0.974712 0.728882 0.168059
C33   C     C_3   0.777193 0.454103 0.788680 -0.335107
C34   C     C_3   0.722807 0.545897 0.288680 -0.335107
C35   C     C_3   0.277193 0.045897 0.211319 -0.335108
C36   C     C_3   0.222807 0.954103 0.711319 -0.335107
C37   C     C_3   0.681457 0.425852 0.734676 1.098465
C38   C     C_3   0.818543 0.574148 0.234676 1.098465
C39   C     C_3   0.181457 0.074148 0.265324 1.098466
C40   C     C_3   0.318543 0.925852 0.765324 1.098465
C41   C     C_3   0.660109 0.477144 0.687896 0.196710
C42   C     C_3   0.839892 0.522856 0.187896 0.196711
C43   C     C_3   0.160108 0.022856 0.312103 0.196710
C44   C     C_3   0.339892 0.977144 0.812103 0.196710
C45   C     C_1   0.776488 0.409712 0.837970 0.136592
C46   C     C_1   0.723512 0.590288 0.337970 0.136592
C47   C     C_1   0.276488 0.090288 0.162030 0.136592
C48   C     C_1   0.223512 0.909712 0.662030 0.136593
C49   C     C_1   0.741189 0.587159 0.658833 0.207841
C50   C     C_1   0.758811 0.412841 0.158833 0.207841
C51   C     C_1   0.241189 0.912841 0.341167 0.207841
C52   C     C_1   0.258810 0.087159 0.841167 0.207841
C53   C     C_1   0.720947 0.625386 0.620970 -0.133555
C54   C     C_1   0.779052 0.374614 0.120970 -0.133555
C55   C     C_1   0.220947 0.874614 0.379030 -0.133555
C56   C     C_1   0.279052 0.125386 0.879030 -0.133555
H17   H     H_    0.511440 0.489232 0.688783 0.246025
H18   H     H_    0.988561 0.510768 0.188783 0.246025
H19   H     H_    0.011440 0.010768 0.311217 0.246025
H20   H     H_    0.488560 0.989232 0.811217 0.246025
F1    F     F_    0.085447 0.521410 0.681296 -0.622072
F2    F     F_    0.414553 0.478590 0.181296 -0.622072
F3    F     F_    0.585447 0.978590 0.318704 -0.622072
F4    F     F_    0.914553 0.021410 0.818704 -0.622072
O21   O     O_3   0.092355 0.426911 0.747388 -0.467115
C57   C     C_3   0.123720 0.373040 0.781685 0.309200
H21   H     H_    0.218993 0.342415 0.757571 0.188868
H22   H     H_    0.999509 0.343741 0.785578 0.120205
C58   C     C_3   0.212967 0.384829 0.840144 -0.650896
H23   H     H_    0.134154 0.417709 0.867035 0.192328
H24   H     H_    0.222444 0.339778 0.863365 0.158681
H25   H     H_    0.353931 0.402531 0.835805 0.319424
O22   O     O_3   0.407645 0.573089 0.247388 -0.467115
C59   C     C_3   0.376280 0.626960 0.281685 0.309201
H26   H     H_    0.281007 0.657585 0.257571 0.188867
H27   H     H_    0.500491 0.656259 0.285578 0.120204
C60   C     C_3   0.287033 0.615171 0.340144 -0.650896
H28   H     H_    0.365846 0.582291 0.367035 0.192327
H29   H     H_    0.277555 0.660222 0.363366 0.158681
H30   H     H_    0.146069 0.597468 0.335805 0.319424
O23   O     O_3   0.592354 0.073089 0.252612 -0.467116
C61   C     C_3   0.623720 0.126960 0.218315 0.309200
H31   H     H_    0.718993 0.157585 0.242429 0.188868
H32   H     H_    0.499509 0.156259 0.214422 0.120204
C62   C     C_3   0.712967 0.115171 0.159856 -0.650896
H33   H     H_    0.634154 0.082291 0.132965 0.192328
H34   H     H_    0.722445 0.160222 0.136634 0.158681
H35   H     H_    0.853931 0.097468 0.164195 0.319424
O24   O     O_3   0.907645 0.926911 0.752612 -0.467116
C63   C     C_3   0.876280 0.873039 0.718315 0.309200
H36   H     H_    0.781007 0.842415 0.742429 0.188867
H37   H     H_    0.000491 0.843741 0.714422 0.120205
C64   C     C_3   0.787033 0.884829 0.659856 -0.650896
H38   H     H_    0.865847 0.917709 0.632965 0.192327
H39   H     H_    0.777554 0.839777 0.636634 0.158681
H40   H     H_    0.646070 0.902532 0.664195 0.319424
F5    F     F_    0.509468 0.403942 0.748749 -0.656452
F6    F     F_    0.990532 0.596057 0.248749 -0.656453
F7    F     F_    0.009468 0.096057 0.251251 -0.656452
F8    F     F_    0.490532 0.903943 0.751251 -0.656452
F9    F     F_    0.476566 0.578310 0.747653 -0.577874
F10   F     F_    0.023433 0.421689 0.247653 -0.577874
F11   F     F_    0.976566 0.921690 0.252347 -0.577874
F12   F     F_    0.523433 0.078310 0.752347 -0.577874
F13   F     F_    0.497800 0.500581 0.827708 -0.599337
F14   F     F_    0.002200 0.499418 0.327709 -0.599337
F15   F     F_    0.997800 0.999419 0.172291 -0.599337
F16   F     F_    0.502200 0.000581 0.672291 -0.599337
O25   O     O_3   0.679810 0.454894 0.630886 -0.542155
C65   C     C_3   0.862418 0.448077 0.611954 0.233478
H41   H     H_    0.953610 0.427589 0.644780 0.240682
H42   H     H_    0.915822 0.493902 0.597343 0.166965
C66   C     C_3   0.864704 0.404309 0.560883 -0.655637
H43   H     H_    0.777504 0.423459 0.526149 0.220680
H44   H     H_    0.007456 0.399090 0.544854 0.192858
H45   H     H_    0.811706 0.357662 0.573467 0.252593
O26   O     O_3   0.820192 0.545106 0.130886 -0.542155
C67   C     C_3   0.637584 0.551923 0.111954 0.233479
H46   H     H_    0.546391 0.572412 0.144780 0.240682
H47   H     H_    0.584180 0.506098 0.097343 0.166965
C68   C     C_3   0.635299 0.595691 0.060883 -0.655638
H48   H     H_    0.722499 0.576541 0.026149 0.220681
H49   H     H_    0.492547 0.600910 0.044854 0.192858
H50   H     H_    0.688298 0.642338 0.073467 0.252593
O27   O     O_3   0.179809 0.045106 0.369114 -0.542155
C69   C     C_3   0.362418 0.051923 0.388046 0.233478
H51   H     H_    0.453610 0.072412 0.355220 0.240682
H52   H     H_    0.415822 0.006098 0.402657 0.166966
C70   C     C_3   0.364703 0.095690 0.439117 -0.655638
H53   H     H_    0.277503 0.076541 0.473851 0.220681
H54   H     H_    0.507455 0.100910 0.455146 0.192858
H55   H     H_    0.311705 0.142338 0.426533 0.252593
O28   O     O_3   0.320190 0.954894 0.869114 -0.542155
C71   C     C_3   0.137582 0.948077 0.888046 0.233479
H56   H     H_    0.046390 0.927588 0.855220 0.240682
H57   H     H_    0.084178 0.993902 0.902657 0.166966
C72   C     C_3   0.135297 0.904309 0.939117 -0.655637
H58   H     H_    0.222497 0.923459 0.973851 0.220680
H59   H     H_    0.992545 0.899090 0.955146 0.192858
H60   H     H_    0.188295 0.857662 0.926533 0.252593
F17   F     F_    0.777778 0.375038 0.713950 -0.672943
F18   F     F_    0.722222 0.624962 0.213950 -0.672943
F19   F     F_    0.277778 0.124962 0.286050 -0.672943
F20   F     F_    0.222222 0.875038 0.786049 -0.672943

loop_
_geom_bond_atom_site_label_1
_geom_bond_atom_site_label_2
_ccdc_geom_bond_type
O17   V3    S    
C39   F7    S    
O1    C5    A    
O27   C69   S    
C31   C35   S    
O19   V1    S    
C1    C24   S    
O13   V1    S    
C70   H53   S    
O3    C7    A    
C2    C23   S    
O1    V3    S    
C32   C36   S    
C3    C22   S    
O15   V3    S    
C18   H14   S    
C68   H48   S    
C9    C25   S    
C32   O24   S    
C26   C50   S    
O28   C71   S    
O7    C3    A    
C22   C46   T    
C10   F2    S    
C13   F9    S    
C9    F1    S    
O9    V1    S    
C37   F5    S    
C14   C18   S    
C11   F3    S    
C58   H24   S    
O4    C8    A    
C57   H21   S    
C9    H5    S    
C52   C56   T    
O2    V4    S    
C20   C36   S    
C71   H56   S    
C57   C58   S    
C67   C68   S    
C28   C52   S    
O22   C59   S    
C67   H47   S    
O26   C67   S    
C15   H11   S    
C14   C26   S    
C2    O16   A    
C72   H59   S    
C65   C66   S    
C13   C25   S    
C30   C34   S    
C62   H35   S    
C37   F17   S    
C29   C33   S    
O14   V2    S    
C11   C27   S    
C66   H44   S    
C36   C48   S    
C34   C38   S    
C12   H8    S    
C19   H15   S    
C13   H9    S    
O11   C7    A    
C62   H33   S    
C11   C31   S    
O12   C8    A    
C43   H19   S    
C69   H52   S    
C42   H18   S    
C10   C26   S    
C69   H51   S    
C6    C56   S    
O10   V2    S    
C38   F6    S    
C68   H49   S    
C1    O15   A    
C50   C54   T    
O5    V1    S    
C30   O22   S    
C19   C35   S    
C10   H6    S    
C18   C34   S    
H1    C29   S    
C40   C44   S    
O8    V4    S    
O7    V3    S    
C58   H23   S    
C58   H25   S    
C42   O26   S    
C29   O21   S    
O18   V4    S    
C15   C19   S    
C5    C55   S    
C16   H12   S    
C40   F8    S    
C17   C33   S    
C49   C53   T    
C7    C53   S    
C38   F18   S    
C28   C44   S    
C63   H37   S    
O5    C1    A    
C8    C54   S    
C26   C42   S    
C43   O27   S    
C38   C42   S    
C25   C41   S    
C14   H10   S    
C37   C41   S    
O8    C4    A    
C72   H60   S    
C33   C45   S    
C27   C51   S    
O9    C5    A    
C27   C43   S    
C34   C46   S    
C66   H45   S    
O11   V3    S    
C71   C72   S    
H3    C31   S    
O23   C61   S    
C21   C45   T    
C64   H40   S    
C35   C47   S    
O6    V2    S    
C15   F11   S    
C16   F12   S    
C11   H7    S    
C67   H46   S    
C70   H55   S    
C65   H42   S    
C60   H30   S    
C63   C64   S    
H4    C32   S    
C61   H32   S    
C44   O28   S    
C18   F14   S    
C68   H50   S    
C64   H39   S    
O24   C63   S    
O16   V4    S    
C10   C30   S    
C3    O13   A    
C33   C37   S    
C23   C47   T    
C15   C27   S    
C31   O23   S    
C36   C40   S    
O6    C2    A    
C44   H20   S    
C59   H27   S    
C12   C28   S    
C59   H26   S    
C9    C29   S    
O12   V4    S    
O21   C57   S    
C25   C49   S    
C12   F4    S    
O10   C6    A    
C61   C62   S    
C60   H29   S    
C63   H36   S    
C66   H43   S    
C17   H13   S    
C60   H28   S    
C39   C43   S    
C4    C21   S    
O3    V1    S    
C64   H38   S    
C57   H22   S    
C20   H16   S    
C41   O25   S    
O20   V2    S    
O2    C6    A    
C20   F16   S    
C39   F19   S    
C14   F10   S    
C40   F20   S    
C13   C17   S    
C71   H57   S    
H2    C30   S    
C59   C60   S    
C19   F15   S    
C51   C55   T    
C16   C20   S    
C17   F13   S    
C69   C70   S    
C72   H58   S    
C16   C28   S    
C4    O14   A    
C62   H34   S    
C41   H17   S    
C65   H41   S    
C61   H31   S    
O25   C65   S    
C35   C39   S    
C24   C48   T    
O4    V2    S    
C12   C32   S    
C70   H54   S    
