data_mof_unit_9065.cif
_audit_creation_date              2012-12-11T14:46:32-0500
_audit_creation_method            fapswitch 2.2
_symmetry_space_group_name_H-M    P1
_symmetry_Int_Tables_number       1
_space_group_crystal_system       monoclinic
_cell_length_a                    17.411016
_cell_length_b                    17.537458
_cell_length_c                    6.941585
_cell_angle_alpha                 90.0
_cell_angle_beta                  91.474212
_cell_angle_gamma                 90.0
_cell_volume                      2118.87643844

loop_
_atom_site_label
_atom_site_type_symbol
_atom_type_description
_atom_site_fract_x
_atom_site_fract_y
_atom_site_fract_z
_atom_type_partial_charge
O1    O     O_R   0.796490 0.328940 0.373020 -0.533690
O2    O     O_R   0.203510 0.671060 0.626980 -0.530372
O3    O     O_R   0.203510 0.828940 0.626980 -0.533690
O4    O     O_R   0.796490 0.171060 0.373020 -0.530372
O5    O     O_R   0.805560 0.173330 0.702970 -0.517775
O6    O     O_R   0.194440 0.826670 0.297030 -0.512101
O7    O     O_R   0.194440 0.673330 0.297030 -0.517774
O8    O     O_R   0.805560 0.326670 0.702970 -0.512101
O9    O     O_R   0.658440 0.172360 0.870170 -0.522252
O10   O     O_R   0.341560 0.827640 0.129830 -0.513266
O11   O     O_R   0.341560 0.672360 0.129830 -0.522252
O12   O     O_R   0.658440 0.327640 0.870170 -0.513266
C1    C     C_R   0.823053 0.144961 0.537412 0.784716
C2    C     C_R   0.177049 0.855114 0.462555 0.756612
C3    C     C_R   0.176947 0.644961 0.462588 0.784715
C4    C     C_R   0.822951 0.355114 0.537445 0.756613
H1    H     H_    0.069572 0.080768 0.211078 0.172894
H2    H     H_    0.930776 0.919416 0.788693 0.175015
H3    H     H_    0.930428 0.580768 0.788921 0.172894
H4    H     H_    0.069224 0.419415 0.211307 0.175015
O13   O     O_3   0.679200 0.250000 0.537050 -0.381833
O14   O     O_3   0.320800 0.750000 0.462950 -0.381833
V1    V     V_3+5 0.736420 0.250000 0.813120 1.648763
V2    V     V_3+5 0.263580 0.750000 0.186880 1.648762
O15   O     O_R   0.649370 0.327980 0.199650 -0.550464
O16   O     O_R   0.350630 0.672020 0.800350 -0.539986
O17   O     O_R   0.350630 0.827980 0.800350 -0.550464
O18   O     O_R   0.649370 0.172020 0.199650 -0.539986
C5    C     C_R   0.630553 0.354273 0.029181 0.779034
C6    C     C_R   0.369594 0.645856 0.970811 0.774102
C7    C     C_R   0.369447 0.854273 0.970819 0.779035
C8    C     C_R   0.630406 0.145856 0.029189 0.774101
H5    H     H_    0.947543 0.131514 0.317166 0.138816
H6    H     H_    0.052910 0.868966 0.683492 0.138189
H7    H     H_    0.052457 0.631515 0.682833 0.138815
H8    H     H_    0.947090 0.368966 0.316508 0.138189
V3    V     V_3+5 0.718510 0.250000 0.312740 1.568239
V4    V     V_3+5 0.281490 0.750000 0.687260 1.568239
O19   O     O_3   0.775740 0.250000 0.038930 -0.356333
O20   O     O_3   0.224260 0.750000 0.961070 -0.356334
C9    C     C_1   0.573889 0.083543 0.016099 -0.154679
C10   C     C_1   0.425718 0.916801 0.984092 -0.113180
C11   C     C_1   0.426111 0.583543 0.983901 -0.154679
C12   C     C_1   0.574283 0.416801 0.015908 -0.113180
C13   C     C_1   0.527183 0.031178 0.005987 0.033491
C14   C     C_1   0.472315 0.969257 0.994315 0.055704
C15   C     C_1   0.472817 0.531178 0.994013 0.033491
C16   C     C_1   0.527685 0.469257 0.005685 0.055704
C17   C     C_R   0.879875 0.081417 0.540190 -0.176192
C18   C     C_R   0.120383 0.918776 0.459738 -0.184381
C19   C     C_R   0.120125 0.581417 0.459810 -0.176192
C20   C     C_R   0.879617 0.418776 0.540262 -0.184381
C21   C     C_R   0.065989 0.034510 0.313925 -0.185616
C22   C     C_R   0.934380 0.965768 0.686132 -0.200536
C23   C     C_R   0.934011 0.534510 0.686075 -0.185617
C24   C     C_R   0.065620 0.465768 0.313869 -0.200536
C25   C     C_R   0.125308 0.980251 0.326989 0.384927
C26   C     C_R   0.874854 0.019781 0.672397 0.447257
C27   C     C_R   0.874692 0.480251 0.673010 0.384928
C28   C     C_R   0.125146 0.519781 0.327603 0.447257
C29   C     C_R   0.057244 0.915631 0.581825 -0.199225
C30   C     C_R   0.943190 0.084792 0.418655 -0.219351
C31   C     C_R   0.942756 0.415631 0.418176 -0.199226
C32   C     C_R   0.056810 0.584792 0.581345 -0.219352
C33   C     C_R   0.998200 0.970464 0.568169 0.077366
C34   C     C_R   0.002262 0.029968 0.432287 0.082826
C35   C     C_R   0.001800 0.470464 0.431831 0.077366
C36   C     C_R   0.997738 0.529968 0.567713 0.082826
S1    S     S_3+6 0.793427 0.005811 0.816133 0.002565
O21   O     O_2   0.790013 0.924362 0.883219 -0.323616
O22   O     O_2   0.798844 0.057276 0.989028 -0.338524
O23   O     O_3   0.713186 0.026270 0.686082 -0.516689
H9    H     H_    0.671585 0.997930 0.749280 0.355843
S2    S     S_3+6 0.206082 0.993449 0.180295 0.009487
O24   O     O_2   0.198622 0.942063 0.007620 -0.327524
O25   O     O_2   0.210527 0.074658 0.112101 -0.315340
O26   O     O_3   0.287349 0.971850 0.304649 -0.505607
H10   H     H_    0.286952 0.005189 0.419800 0.332687
S3    S     S_3+6 0.206573 0.505811 0.183867 0.002566
O27   O     O_2   0.209988 0.424362 0.116782 -0.323616
O28   O     O_2   0.201156 0.557276 0.010972 -0.338524
O29   O     O_3   0.286814 0.526270 0.313918 -0.516689
H11   H     H_    0.328415 0.497930 0.250721 0.355843
S4    S     S_3+6 0.793918 0.493449 0.819704 0.009486
O30   O     O_2   0.801378 0.442063 0.992379 -0.327524
O31   O     O_2   0.789472 0.574658 0.887898 -0.315341
O32   O     O_3   0.712650 0.471850 0.695350 -0.505608
H12   H     H_    0.713048 0.505189 0.580200 0.332688

loop_
_geom_bond_atom_site_label_1
_geom_bond_atom_site_label_2
_ccdc_geom_bond_type
O32   H12   S    
C28   S3    S    
C7    C10   S    
C23   C27   A    
O12   C5    A    
S4    O32   S    
H4    C24   S    
C23   C36   A    
C22   C33   A    
O26   H10   S    
O12   V1    S    
S2    O25   D    
C32   C36   A    
S4    O31   D    
O17   V4    S    
O7    V2    S    
O14   V4    S    
O11   V2    S    
O8    V1    S    
C10   C14   T    
O4    C1    A    
S1    O22   D    
O9    C8    A    
O15   V3    S    
O10   C7    A    
O3    V4    S    
H5    C30   S    
S2    O26   S    
C8    C9    S    
H7    C32   S    
C3    C19   S    
H8    C31   S    
O5    C1    A    
O1    V3    S    
O7    C3    A    
O8    C4    A    
O15   C5    A    
C31   C35   A    
S2    O24   D    
C30   C34   A    
O17   C7    A    
C35   C36   A    
O18   C8    A    
S4    O30   D    
O11   C6    A    
S3    O28   D    
C21   C25   A    
O16   V4    S    
O10   V2    S    
C13   C14   S    
O29   H11   S    
H6    C29   S    
C17   C26   A    
C24   C28   A    
C25   S2    S    
S1    O23   S    
O2    C3    A    
C20   C27   A    
O6    C2    A    
O2    V4    S    
C15   C16   S    
O5    V1    S    
O6    V2    S    
O1    C4    A    
C27   S4    S    
C21   C34   A    
O3    C2    A    
C1    C17   S    
O16   C6    A    
O13   V1    S    
C5    C12   S    
O14   V2    S    
C6    C11   S    
H1    C21   S    
C22   C26   A    
H3    C23   S    
C17   C30   A    
C18   C25   A    
O9    V1    S    
C19   C32   A    
C4    C20   S    
O23   H9    S    
C20   C31   A    
S3    O29   S    
C26   S1    S    
C24   C35   A    
V3    O19   S    
V4    O20   S    
C2    C18   S    
O18   V3    S    
V1    O19   S    
V2    O20   S    
S1    O21   D    
H2    C22   S    
S3    O27   D    
C29   C33   A    
O13   V3    S    
O4    V3    S    
C33   C34   A    
C18   C29   A    
C9    C13   T    
C19   C28   A    
C11   C15   T    
C12   C16   T    
