data_mof_unit_15591.cif
_audit_creation_date              2012-12-11T15:57:54-0500
_audit_creation_method            fapswitch 2.2
_symmetry_space_group_name_H-M    P1
_symmetry_Int_Tables_number       1
_space_group_crystal_system       triclinic
_cell_length_a                    10.752125
_cell_length_b                    10.741661
_cell_length_c                    17.010937
_cell_angle_alpha                 99.687978
_cell_angle_beta                  99.863268
_cell_angle_gamma                 61.191112
_cell_volume                      1687.69346315

loop_
_atom_site_label
_atom_site_type_symbol
_atom_type_description
_atom_site_fract_x
_atom_site_fract_y
_atom_site_fract_z
_atom_type_partial_charge
C1    C     C_R   0.374747 0.726213 0.388991 0.561804
C2    C     C_2   0.328092 0.336991 0.824307 -0.074556
C3    C     C_2   0.451259 0.334393 0.816405 -0.000418
C4    C     C_R   0.372445 0.348541 0.356216 0.541388
C5    C     C_2   0.492684 0.300087 0.734456 -0.025360
C6    C     C_1   0.846297 0.329077 0.705127 -0.051815
C7    C     C_1   0.893505 0.293588 0.771579 -0.052589
C8    C     C_1   0.358560 0.764633 0.713629 -0.047842
C9    C     C_1   0.325476 0.811534 0.780442 -0.046817
C10   C     C_R   0.888379 0.309950 0.083815 0.526918
C11   C     C_R   0.320499 0.301482 0.118920 0.566454
C12   C     C_2   0.794551 0.343736 0.145154 -0.105527
C13   C     C_R   0.296375 0.887631 0.081779 0.564168
C14   C     C_R   0.943620 0.273112 0.853895 0.556722
C15   C     C_R   0.307438 0.294536 0.894710 0.545962
C16   C     C_R   0.772628 0.379320 0.402955 0.539098
C17   C     C_R   0.280248 0.881076 0.857204 0.542201
C18   C     C_R   0.381304 0.714918 0.631465 0.534351
C19   C     C_R   0.414422 0.381770 0.596908 0.566091
C20   C     C_R   0.777367 0.378972 0.629010 0.539672
C21   C     C_1   0.348760 0.340644 0.272742 -0.060214
C22   C     C_1   0.336431 0.330832 0.201866 -0.025394
C23   C     C_2   0.797595 0.242071 0.183592 -0.020594
C24   C     C_2   0.827282 0.343888 0.325125 -0.013840
C25   C     C_3   0.848826 0.086996 0.147892 -0.233835
C26   C     C_3   0.801691 0.001844 0.187626 -0.460087
C27   C     C_3   0.610214 0.152688 0.708693 -0.242024
C28   C     C_3   0.689109 0.056587 0.776419 -0.431970
C29   C     C_3   0.916457 0.413044 0.311168 -0.267604
C30   C     C_3   0.051407 0.314225 0.269958 -0.429573
C31   C     C_3   0.513719 0.909036 0.212948 -0.295856
C32   C     C_3   0.602183 0.913266 0.293407 -0.435789
C33   C     C_3   0.218976 0.939635 0.310052 -0.252103
C34   C     C_2   0.767437 0.279170 0.267290 -0.119732
C35   C     C_3   0.201790 0.045496 0.385254 -0.425750
C36   C     C_3   0.524429 0.400052 0.880862 -0.266645
C37   C     C_3   0.580628 0.327334 0.958104 -0.374504
C38   C     C_2   0.354391 0.799287 0.321421 0.059391
C39   C     C_2   0.362478 0.790341 0.143389 0.347205
C40   C     C_2   0.453389 0.804427 0.205229 -0.032558
C41   C     C_2   0.463043 0.740361 0.275725 -0.061493
C42   C     C_2   0.405308 0.396345 0.682704 -0.134927
Cr1   Cr    Cr6+3 0.608020 0.610770 0.522990 1.013991
Cr2   Cr    Cr6+3 0.289390 0.599570 0.488050 1.016094
Cr3   Cr    Cr6+3 0.602610 0.289690 0.489020 0.987345
Cr4   Cr    Cr6+3 0.053780 0.052210 0.965970 0.998499
Cr5   Cr    Cr6+3 0.060060 0.372530 0.992430 1.036492
Cr6   Cr    Cr6+3 0.372600 0.061970 0.991430 0.987915
F1    F     F_    0.309794 0.697799 0.144762 -0.652177
H1    H     H_    0.261853 0.323445 0.770995 0.089941
H2    H     H_    0.967251 0.031190 0.152188 0.189458
H3    H     H_    0.742748 0.105475 0.822491 0.184714
H4    H     H_    0.614047 0.037828 0.804142 0.177233
H5    H     H_    0.771768 0.951863 0.752037 0.144731
H6    H     H_    0.562465 0.095806 0.663665 0.181677
H7    H     H_    0.689804 0.164334 0.681148 0.176807
H8    H     H_    0.146235 0.281687 0.314753 0.134590
H9    H     H_    0.049608 0.216882 0.237719 0.156586
H10   H     H_    0.063880 0.372480 0.226417 0.170496
H11   H     H_    0.848443 0.507885 0.277882 0.132228
H12   H     H_    0.319784 0.496540 0.705909 0.092980
H13   H     H_    0.951390 0.457320 0.369472 0.167245
H14   H     H_    0.537091 0.943146 0.344075 0.177213
H15   H     H_    0.697519 0.807744 0.300543 0.146741
H16   H     H_    0.637886 0.995033 0.296510 0.156696
H17   H     H_    0.583027 0.878926 0.164302 0.166192
H18   H     H_    0.424210 0.018407 0.207051 0.164368
H19   H     H_    0.094376 0.138426 0.380512 0.148746
H20   H     H_    0.210433 0.998653 0.440480 0.194486
H21   H     H_    0.284434 0.081557 0.392399 0.153214
H22   H     H_    0.217883 0.990350 0.258353 0.124550
H23   H     H_    0.695163 0.245289 0.282693 0.151927
H24   H     H_    0.125574 0.918591 0.298218 0.172099
H25   H     H_    0.492491 0.352092 0.993431 0.174657
H26   H     H_    0.645879 0.210164 0.946023 0.157821
H27   H     H_    0.647405 0.371770 0.995198 0.145500
H28   H     H_    0.615571 0.397606 0.856869 0.166940
H29   H     H_    0.448253 0.514291 0.895321 0.145287
H30   H     H_    0.740125 0.454892 0.168835 0.106192
H31   H     H_    0.559587 0.642690 0.289678 0.108535
H32   H     H_    0.849019 0.990784 0.251041 0.149274
H33   H     H_    0.683455 0.055698 0.184042 0.166535
H34   H     H_    0.838183 0.893133 0.155498 0.154262
H35   H     H_    0.804400 0.084826 0.083951 0.167502
O1    O     O_R   0.749250 0.499990 0.439200 -0.523681
O2    O     O_R   0.411120 0.181190 0.091480 -0.541800
O3    O     O_R   0.364220 0.944920 0.062310 -0.545113
O4    O     O_R   0.477870 0.725740 0.440280 -0.501453
O5    O     O_R   0.158740 0.906940 0.874970 -0.509853
O6    O     O_R   0.930920 0.176940 0.885610 -0.513923
O7    O     O_R   0.910730 0.394510 0.895320 -0.508849
O8    O     O_R   0.185840 0.361180 0.920280 -0.502868
O9    O     O_R   0.399210 0.173040 0.915160 -0.517296
O10   O     O_R   0.353170 0.937370 0.898860 -0.494243
O11   O     O_3   0.162150 0.162240 0.983280 -0.265989
O12   O     O_R   0.299400 0.468710 0.556310 -0.501761
O13   O     O_R   0.260770 0.742210 0.412610 -0.510089
O14   O     O_R   0.297990 0.466320 0.394220 -0.493761
O15   O     O_R   0.487720 0.253870 0.385870 -0.527738
O16   O     O_R   0.721940 0.304340 0.422320 -0.505784
O17   O     O_R   0.750770 0.502570 0.614050 -0.501867
O18   O     O_R   0.479280 0.728140 0.602370 -0.480389
O19   O     O_R   0.262290 0.744790 0.587460 -0.505969
O20   O     O_R   0.489240 0.256450 0.560730 -0.516619
O21   O     O_R   0.723350 0.306730 0.584410 -0.524794
O22   O     O_3   0.500010 0.500010 0.500020 -0.303520
O23   O     O_R   0.170650 0.915100 0.051290 -0.484485
O24   O     O_R   0.941960 0.184500 0.049060 -0.516096
O25   O     O_R   0.922640 0.402670 0.071640 -0.511839
O26   O     O_R   0.196880 0.368740 0.083740 -0.477811

loop_
_geom_bond_atom_site_label_1
_geom_bond_atom_site_label_2
_ccdc_geom_bond_type
C31   H17   S    
C37   H25   S    
C12   H30   S    
C26   H34   S    
Cr6   O11   S    
C4    O14   A    
Cr5   O8    S    
C10   O24   A    
C13   O23   A    
C41   H31   S    
Cr1   O17   S    
Cr4   O5    S    
C31   H18   S    
C12   C23   D    
Cr6   O10   S    
Cr1   O4    S    
C3    C36   S    
C36   C37   S    
C36   H28   S    
C18   O18   A    
C27   H6    S    
C11   O2    A    
C30   H8    S    
C31   C40   S    
C10   O25   A    
C19   O20   A    
C24   C29   S    
C14   O6    A    
C2    H1    S    
C15   O8    A    
C5    C27   S    
Cr2   O14   S    
C7    C14   S    
Cr4   O11   S    
C35   H21   S    
C8    C9    T    
Cr4   O24   S    
C25   H35   S    
C19   C42   S    
C1    O4    A    
C37   H26   S    
C26   H33   S    
C21   C22   T    
C30   H10   S    
C11   O26   A    
Cr2   O19   S    
Cr3   O21   S    
Cr6   O9    S    
Cr1   O1    S    
C17   O5    A    
C32   H15   S    
C38   C41   D    
Cr3   O15   S    
C1    O13   A    
C39   C40   D    
C28   H5    S    
C27   H7    S    
C16   O16   A    
C20   O17   A    
C25   C26   S    
Cr5   O25   S    
C24   C34   D    
Cr1   O22   S    
C25   H2    S    
C29   C30   S    
Cr2   O12   S    
Cr3   O20   S    
Cr2   O13   S    
C31   C32   S    
C29   H11   S    
C23   C34   S    
Cr4   O23   S    
C13   O3    A    
Cr6   O3    S    
C2    C15   S    
C42   H12   S    
C10   C12   S    
C1    C38   S    
C33   H24   S    
C40   C41   S    
C39   F1    S    
C37   H27   S    
C26   H32   S    
C16   O1    A    
Cr6   O2    S    
C34   H23   S    
Cr3   O22   S    
C5    C42   D    
C20   O21   A    
C9    C17   S    
C29   H13   S    
Cr5   O7    S    
C32   H14   S    
C3    C5    S    
Cr3   O16   S    
C15   O9    A    
C28   H4    S    
C6    C7    T    
Cr4   O6    S    
Cr2   O22   S    
Cr5   O26   S    
C6    C20   S    
C11   C22   S    
C33   C38   S    
C2    C3    D    
Cr1   O18   S    
C36   H29   S    
C4    C21   S    
C28   H3    S    
C35   H19   S    
C30   H9    S    
C33   C35   S    
C18   O19   A    
C23   C25   S    
C8    C18   S    
C14   O7    A    
C13   C39   S    
C33   H22   S    
C35   H20   S    
C16   C24   S    
C4    O15   A    
C27   C28   S    
Cr5   O11   S    
C17   O10   A    
C19   O12   A    
C32   H16   S    
