data_mof_unit_50391.cif
_audit_creation_date              2012-12-11T16:49:07-0500
_audit_creation_method            fapswitch 2.2
_symmetry_space_group_name_H-M    P1
_symmetry_Int_Tables_number       1
_space_group_crystal_system       triclinic
_cell_length_a                    6.914214
_cell_length_b                    25.970153
_cell_length_c                    28.928932
_cell_angle_alpha                 89.881172
_cell_angle_beta                  90.29423
_cell_angle_gamma                 89.660047
_cell_volume                      5194.40004182

loop_
_atom_site_label
_atom_site_type_symbol
_atom_type_description
_atom_site_fract_x
_atom_site_fract_y
_atom_site_fract_z
_atom_type_partial_charge
O1    O     O_R   0.601010 0.796750 0.202520 -0.529721
O2    O     O_R   0.398990 0.203250 0.797480 -0.529530
O3    O     O_R   0.271260 0.802890 0.297300 -0.544273
O4    O     O_R   0.728740 0.197110 0.702700 -0.544286
O5    O     O_R   0.100940 0.703200 0.297630 -0.509628
O6    O     O_R   0.899060 0.296800 0.702370 -0.515453
C1    C     C_R   0.440145 0.815671 0.313089 0.697075
C2    C     C_R   0.559687 0.184208 0.687017 0.674009
O7    O     O_R   0.271300 0.802890 0.202860 -0.547644
O8    O     O_R   0.728700 0.197110 0.797140 -0.548920
O9    O     O_R   0.100980 0.703210 0.202520 -0.539587
O10   O     O_R   0.899020 0.296790 0.797480 -0.544550
C3    C     C_R   0.439665 0.816430 0.187755 0.671786
C4    C     C_R   0.561000 0.185702 0.814016 0.672829
O11   O     O_R   0.600970 0.796740 0.297640 -0.537478
O12   O     O_R   0.399030 0.203260 0.702360 -0.541536
O13   O     O_3   0.434500 0.717270 0.250080 -0.365191
O14   O     O_3   0.565500 0.282730 0.749920 -0.358355
V1    V     V_3+5 0.159650 0.756040 0.250080 1.431553
V2    V     V_3+5 0.840350 0.243960 0.749920 1.419033
O15   O     O_R   0.771260 0.697060 0.202850 -0.548408
O16   O     O_R   0.228740 0.302940 0.797150 -0.541561
C5    C     C_R   0.940402 0.684038 0.187222 0.675953
C6    C     C_R   0.059758 0.315390 0.813260 0.694015
O17   O     O_R   0.771230 0.697050 0.297300 -0.546403
O18   O     O_R   0.228770 0.302950 0.702700 -0.538712
C7    C     C_R   0.941416 0.683477 0.312690 0.709910
C8    C     C_R   0.059020 0.314980 0.685917 0.709654
V3    V     V_3+5 0.659640 0.743910 0.250080 1.411493
V4    V     V_3+5 0.340360 0.256090 0.749920 1.426422
O19   O     O_3   0.934660 0.782680 0.250080 -0.366889
O20   O     O_3   0.065340 0.217320 0.749920 -0.371790
C9    C     C_R   0.129053 0.615873 0.358920 0.404061
C10   C     C_R   0.871001 0.361849 0.621837 0.426768
C11   C     C_R   0.140441 0.581275 0.396355 -0.213997
C12   C     C_R   0.862711 0.399646 0.587052 -0.210549
H1    H     H_    0.276577 0.561729 0.403083 0.150610
H2    H     H_    0.725118 0.407131 0.570188 0.147460
C13   C     C_R   0.978500 0.570952 0.423951 -0.038846
C14   C     C_R   0.028717 0.426114 0.572931 -0.040844
C15   C     C_R   0.803573 0.596465 0.413464 -0.133772
C16   C     C_R   0.204492 0.415112 0.595648 -0.141118
H3    H     H_    0.675387 0.589392 0.433812 0.155541
H4    H     H_    0.335684 0.434776 0.585782 0.155026
C17   C     C_R   0.792367 0.632358 0.377224 -0.231433
C18   C     C_R   0.212662 0.379383 0.632131 -0.220744
H5    H     H_    0.656263 0.652104 0.371060 0.180862
H6    H     H_    0.349690 0.373148 0.649517 0.192566
C19   C     C_R   0.954845 0.643380 0.349857 -0.154338
C20   C     C_R   0.046634 0.352490 0.646351 -0.157816
N1    N     N_R   0.830174 0.515621 0.484048 -0.279040
N2    N     N_R   0.178948 0.482642 0.513765 -0.278827
N3    N     N_R   0.842239 0.481832 0.518764 -0.284010
N4    N     N_R   0.166841 0.516263 0.478864 -0.283118
C21   C     C_R   0.016763 0.464538 0.534468 0.531497
C22   C     C_R   0.992156 0.533532 0.463172 0.530890
C23   C     C_R   0.132233 0.626592 0.134456 -0.171618
C24   C     C_R   0.868644 0.371067 0.867758 -0.158172
H7    H     H_    0.265231 0.640528 0.149734 0.121372
H8    H     H_    0.735409 0.357797 0.852116 0.119527
C25   C     C_R   0.144019 0.590252 0.098934 -0.144350
C26   C     C_R   0.857503 0.406204 0.904277 -0.137561
H9    H     H_    0.285502 0.576879 0.088300 0.101120
H10   H     H_    0.716300 0.419434 0.915256 0.099646
C27   C     C_R   0.975661 0.571053 0.077772 0.097028
C28   C     C_R   0.026232 0.424627 0.925826 0.094267
C29   C     C_R   0.794909 0.588655 0.093684 -0.140454
C30   C     C_R   0.206602 0.407096 0.909637 -0.135868
H11   H     H_    0.662262 0.575215 0.077899 0.099891
H12   H     H_    0.339452 0.419831 0.925809 0.099541
C31   C     C_R   0.783041 0.624870 0.129411 -0.166898
C32   C     C_R   0.217828 0.372042 0.872980 -0.148968
H13   H     H_    0.641542 0.637796 0.140489 0.120882
H14   H     H_    0.359080 0.359129 0.861724 0.116412
C33   C     C_R   0.951679 0.644627 0.150027 -0.052355
C34   C     C_R   0.048918 0.353474 0.851592 -0.052637
C35   C     C_R   0.854651 0.493078 0.034745 -0.150007
C36   C     C_R   0.148358 0.502104 0.969256 -0.149990
H15   H     H_    0.741446 0.488244 0.060077 0.112927
H16   H     H_    0.261413 0.506991 0.943894 0.111385
C37   C     C_R   0.866943 0.457896 0.998233 -0.147083
C38   C     C_R   0.136019 0.537288 0.005741 -0.150649
H17   H     H_    0.762784 0.426987 0.996509 0.113720
H18   H     H_    0.239962 0.568253 0.007371 0.109972
C39   C     C_R   0.013876 0.461941 0.964942 0.080472
C40   C     C_R   0.988963 0.533300 0.039006 0.079437
C41   C     C_R   0.377085 0.119474 0.639776 -0.204305
C42   C     C_R   0.619153 0.883591 0.357517 -0.193910
H19   H     H_    0.251571 0.124984 0.661505 0.125932
H20   H     H_    0.743834 0.878035 0.335528 0.132797
C43   C     C_R   0.365732 0.084432 0.603210 -0.124635
C44   C     C_R   0.628611 0.920426 0.392708 -0.123009
H21   H     H_    0.232838 0.063426 0.598060 0.152949
H22   H     H_    0.759993 0.942425 0.396941 0.154466
C45   C     C_R   0.524262 0.076327 0.573802 0.174045
C46   C     C_R   0.470841 0.928541 0.422374 0.147432
C47   C     C_R   0.695573 0.103723 0.582395 -0.129386
C48   C     C_R   0.302060 0.899543 0.415426 -0.138479
H23   H     H_    0.819508 0.098770 0.560179 0.169910
H24   H     H_    0.178969 0.904603 0.437944 0.172088
C49   C     C_R   0.708738 0.137894 0.619650 -0.215796
C50   C     C_R   0.290852 0.863545 0.379540 -0.199298
H25   H     H_    0.842710 0.158453 0.625156 0.118019
H26   H     H_    0.158757 0.841839 0.375152 0.127980
C51   C     C_R   0.549058 0.146453 0.648598 -0.038471
C52   C     C_R   0.449965 0.854799 0.350418 -0.049407
C53   C     C_R   0.657595 0.001151 0.528206 0.335313
C54   C     C_R   0.337394 0.004071 0.467575 0.341467
C55   C     C_R   0.643519 0.965117 0.492039 0.335097
C56   C     C_R   0.351032 0.039865 0.503969 0.327582
C57   C     C_R   0.484057 0.966461 0.461062 -0.277979
C58   C     C_R   0.511360 0.038856 0.534619 -0.282585
C59   C     C_R   0.398515 0.112952 0.853827 -0.109772
C60   C     C_R   0.584347 0.847947 0.114743 -0.130962
H27   H     H_    0.287894 0.113823 0.827168 0.122556
H28   H     H_    0.680762 0.814903 0.115433 0.117443
C61   C     C_R   0.385781 0.075861 0.888690 -0.107496
C62   C     C_R   0.594967 0.882041 0.077490 -0.126140
H29   H     H_    0.266158 0.049164 0.887853 0.105504
H30   H     H_    0.698953 0.874280 0.050499 0.107699
C63   C     C_R   0.526959 0.072662 0.923636 0.045457
C64   C     C_R   0.470822 0.924900 0.074602 0.047855
C65   C     C_R   0.681138 0.107701 0.922906 -0.118382
C66   C     C_R   0.335907 0.932891 0.110133 -0.112280
H31   H     H_    0.787002 0.106777 0.950631 0.149413
H32   H     H_    0.244081 0.966809 0.109055 0.151808
C67   C     C_R   0.695536 0.145628 0.888196 -0.018170
C68   C     C_R   0.323807 0.898949 0.148117 -0.017103
C69   C     C_R   0.552963 0.147906 0.852640 -0.133825
C70   C     C_R   0.448654 0.855351 0.150147 -0.126726
C71   C     C_R   0.678602 0.009864 0.979850 -0.155965
C72   C     C_R   0.317451 0.985166 0.016362 -0.156773
H33   H     H_    0.820069 0.018286 0.965972 0.103873
H34   H     H_    0.175644 0.975800 0.029526 0.107099
C73   C     C_R   0.665219 0.974604 0.016296 -0.131600
C74   C     C_R   0.330961 0.020749 0.980136 -0.131052
H35   H     H_    0.797215 0.957965 0.030178 0.109907
H36   H     H_    0.199608 0.038758 0.967313 0.115259
C75   C     C_R   0.484521 0.961845 0.035162 0.091235
C76   C     C_R   0.511828 0.033730 0.961468 0.090469
O21   O     O_3   0.291935 0.623013 0.332170 -0.570768
C77   C     C_3   0.289465 0.586894 0.295652 0.084963
H37   H     H_    0.179904 0.598801 0.269302 0.110970
H38   H     H_    0.255059 0.547288 0.308135 0.108535
C78   C     C_3   0.489055 0.584960 0.273148 -0.280416
H39   H     H_    0.531386 0.624089 0.261943 0.226944
H40   H     H_    0.597569 0.570982 0.298809 0.190425
C79   C     C_3   0.490937 0.549522 0.231142 -0.860941
H41   H     H_    0.453418 0.509612 0.241477 0.239616
H42   H     H_    0.637602 0.549225 0.215661 0.234280
H43   H     H_    0.385898 0.563399 0.204672 0.232521
O22   O     O_3   0.701652 0.336688 0.632863 -0.579299
C80   C     C_3   0.695898 0.288279 0.610466 0.113783
H44   H     H_    0.587792 0.264748 0.628958 0.142064
H45   H     H_    0.836331 0.267018 0.612722 0.084191
C81   C     C_3   0.629739 0.293107 0.559943 -0.351423
H46   H     H_    0.493884 0.316143 0.558026 0.211947
H47   H     H_    0.742604 0.312878 0.539426 0.193824
C82   C     C_3   0.594905 0.240171 0.538774 -0.847350
H48   H     H_    0.726467 0.215743 0.542174 0.235799
H49   H     H_    0.560200 0.244487 0.501472 0.232184
H50   H     H_    0.472354 0.220838 0.556269 0.238501
O23   O     O_3   0.821655 0.000622 0.555866 -0.533368
C83   C     C_3   0.782990 0.974176 0.597530 0.117527
H51   H     H_    0.783297 0.932040 0.591264 0.115749
H52   H     H_    0.641183 0.985466 0.612792 0.102408
C84   C     C_3   0.942216 0.986489 0.632515 -0.286934
H53   H     H_    0.084893 0.975129 0.618060 0.193545
H54   H     H_    0.943175 0.028614 0.639232 0.195753
C85   C     C_3   0.911418 0.958099 0.678077 -0.854895
H55   H     H_    0.771139 0.969660 0.693603 0.234490
H56   H     H_    0.029522 0.967891 0.702622 0.233202
H57   H     H_    0.912799 0.915811 0.672371 0.232335
O24   O     O_3   0.172553 0.005093 0.440146 -0.534507
C86   C     C_3   0.213943 0.027167 0.396554 0.113107
H58   H     H_    0.252595 0.996207 0.371772 0.137012
H59   H     H_    0.335497 0.055275 0.397646 0.076490
C87   C     C_3   0.032625 0.054794 0.378659 -0.293277
H60   H     H_    0.912039 0.026854 0.375871 0.193754
H61   H     H_    0.989560 0.085325 0.403490 0.200222
C88   C     C_3   0.066733 0.079168 0.331397 -0.830366
H62   H     H_    0.183846 0.108174 0.333607 0.230144
H63   H     H_    0.932212 0.098668 0.319375 0.236629
H64   H     H_    0.107105 0.049173 0.305817 0.243635
O25   O     O_3   0.791818 0.929482 0.486954 -0.540289
C89   C     C_3   0.731798 0.880829 0.503541 0.104638
H65   H     H_    0.652816 0.859900 0.475910 0.135224
H66   H     H_    0.635416 0.883840 0.534267 0.080110
C90   C     C_3   0.910613 0.849197 0.516906 -0.294495
H67   H     H_    0.002604 0.843455 0.485946 0.189702
H68   H     H_    0.996040 0.870392 0.543300 0.200057
C91   C     C_3   0.855195 0.796668 0.536301 -0.839841
H69   H     H_    0.766727 0.801347 0.567980 0.230246
H70   H     H_    0.988196 0.774608 0.545339 0.237098
H71   H     H_    0.771815 0.774542 0.510193 0.235945
O26   O     O_3   0.198680 0.073777 0.510871 -0.539560
C92   C     C_3   0.242271 0.121779 0.490492 0.111699
H72   H     H_    0.270844 0.117420 0.452935 0.108796
H73   H     H_    0.371006 0.139470 0.507209 0.116816
C93   C     C_3   0.069073 0.157903 0.496702 -0.303445
H74   H     H_    0.936150 0.138918 0.483485 0.199676
H75   H     H_    0.049829 0.166055 0.534111 0.182842
C94   C     C_3   0.095979 0.208603 0.470877 -0.847669
H76   H     H_    0.223741 0.229319 0.484529 0.239007
H77   H     H_    0.966260 0.233391 0.475605 0.240928
H78   H     H_    0.115167 0.201420 0.433333 0.234265
C95   C     C_2   0.853463 0.184059 0.891645 0.365199
H79   H     H_    0.843093 0.220681 0.873771 0.052528
O27   O     O_2   0.997066 0.175532 0.915275 -0.532326
C96   C     C_2   0.188183 0.911500 0.186228 0.370198
H80   H     H_    0.203842 0.893525 0.219890 0.050834
O28   O     O_2   0.057760 0.942863 0.180659 -0.529967

loop_
_geom_bond_atom_site_label_1
_geom_bond_atom_site_label_2
_ccdc_geom_bond_type
C24   C26   A    
C28   C30   A    
C94   H76   S    
C60   H28   S    
C41   C43   A    
C92   C93   S    
C60   C70   A    
C53   C58   A    
C42   H20   S    
O23   C83   S    
C79   H43   S    
C74   C76   A    
V1    O19   S    
C2    C51   S    
C77   H38   S    
C28   C39   S    
C78   H39   S    
C24   C34   A    
C27   C40   S    
C84   H54   S    
C88   H62   S    
C72   C75   A    
C73   C75   A    
C94   H77   S    
O9    V1    S    
C83   H52   S    
C59   C69   A    
C63   C76   S    
C81   H46   S    
C11   H1    S    
C79   H42   S    
C64   C75   S    
C35   H15   S    
O3    C1    A    
C45   C58   S    
C61   H29   S    
C62   C64   A    
C9    C11   A    
C36   H16   S    
O26   C92   S    
C23   H7    S    
C85   H55   S    
C9    C19   A    
C44   C46   A    
O13   V3    S    
C86   H59   S    
O14   V2    S    
C25   H9    S    
N1    C22   A    
C16   C18   A    
C92   H73   S    
O7    C3    A    
O24   C86   S    
C38   H18   S    
C26   H10   S    
C71   C76   A    
C68   C96   S    
O5    C7    A    
C8    C20   S    
C81   H47   S    
O7    V1    S    
O6    C8    A    
C42   C44   A    
O8    V2    S    
C93   H74   S    
C27   C29   A    
C54   O24   S    
C3    C70   S    
C82   H49   S    
O3    V1    S    
O14   V4    S    
C17   C19   A    
C80   H45   S    
C10   C12   A    
N2    C21   A    
O4    C2    A    
C66   C68   A    
C17   H5    S    
C2    O12   A    
C89   H66   S    
C49   C51   A    
C15   H3    S    
C77   C78   S    
C90   H67   S    
C16   H4    S    
O1    V3    S    
C78   H40   S    
N2    N4    A    
O11   V3    S    
C84   C85   S    
C62   H30   S    
N3    C21   A    
O17   V3    S    
C82   H50   S    
C46   C57   S    
N4    C22   A    
C10   C20   A    
C26   C28   A    
C95   H79   S    
V4    O20   S    
C91   H71   S    
C87   H60   S    
C94   H78   S    
C12   C14   A    
C67   C95   S    
C79   H41   S    
C32   H14   S    
C47   H23   S    
C88   H63   S    
C84   H53   S    
C31   H13   S    
C10   O22   S    
C86   C87   S    
C6    C34   S    
C1    O11   A    
C9    O21   S    
C38   C40   A    
O15   V3    S    
C46   C48   A    
C30   C32   A    
C29   H11   S    
C91   H70   S    
C90   C91   S    
C11   C13   A    
C67   C69   A    
C43   H21   S    
C42   C52   A    
C36   C38   A    
C65   C67   A    
C82   H48   S    
C41   C51   A    
C35   C37   A    
C72   C74   A    
C14   C21   S    
C47   C49   A    
O10   V2    S    
C44   H22   S    
C1    C52   S    
C32   C34   A    
C13   C22   S    
C80   C81   S    
C50   H26   S    
C60   C62   A    
C72   H34   S    
C59   C61   A    
C36   C39   A    
C30   H12   S    
C53   O23   S    
C35   C40   A    
O18   V4    S    
C96   O28   D    
O15   C5    A    
C56   O26   S    
O16   C6    A    
O1    C3    A    
O12   V4    S    
C64   C66   A    
C12   H2    S    
C78   C79   S    
C74   H36   S    
C66   H32   S    
V2    O20   S    
C88   H64   S    
C73   H35   S    
C18   C20   A    
C83   H51   S    
O16   V4    S    
O18   C8    A    
C81   C82   S    
C5    C33   S    
C14   C16   A    
C71   H33   S    
C68   C70   A    
C37   H17   S    
C87   H61   S    
C45   C47   A    
C23   C25   A    
O5    V1    S    
C61   C63   A    
O17   C7    A    
O6    V2    S    
O10   C6    A    
C71   C73   A    
C54   C57   A    
O2    V4    S    
C55   O25   S    
C91   H69   S    
C23   C33   A    
C89   C90   S    
C55   C57   A    
C89   H65   S    
V3    O19   S    
C86   H58   S    
C48   C50   A    
O21   C77   S    
C31   C33   A    
O25   C89   S    
C53   C55   A    
C85   H56   S    
C93   C94   S    
O9    C5    A    
O13   V1    S    
C54   C56   A    
C50   C52   A    
C29   C31   A    
C83   C84   S    
C92   H72   S    
O2    C4    A    
C48   H24   S    
C56   C58   A    
C63   C65   A    
C87   C88   S    
C65   H31   S    
N1    N3    A    
C43   C45   A    
O4    V2    S    
C18   H6    S    
C25   C27   A    
O22   C80   S    
C13   C15   A    
C49   H25   S    
C96   H80   S    
C95   O27   D    
C41   H19   S    
C15   C17   A    
C77   H37   S    
C90   H68   S    
C80   H44   S    
C24   H8    S    
C85   H57   S    
C93   H75   S    
C37   C39   A    
C7    C19   S    
O8    C4    A    
C59   H27   S    
C4    C69   S    
