data_mof_unit_57355.cif
_audit_creation_date              2012-12-11T14:56:45-0500
_audit_creation_method            fapswitch 2.2
_symmetry_space_group_name_H-M    P1
_symmetry_Int_Tables_number       1
_space_group_crystal_system       triclinic
_cell_length_a                    10.507212
_cell_length_b                    10.793432
_cell_length_c                    17.014406
_cell_angle_alpha                 79.517608
_cell_angle_beta                  89.958555
_cell_angle_gamma                 119.528625
_cell_volume                      1641.69070695

loop_
_atom_site_label
_atom_site_type_symbol
_atom_type_description
_atom_site_fract_x
_atom_site_fract_y
_atom_site_fract_z
_atom_type_partial_charge
C1    C     C_R   0.278884 0.888088 0.132448 0.553090
C2    C     C_1   0.627147 0.291151 0.702841 -0.024025
C3    C     C_R   0.673212 0.718437 0.820589 0.026134
C4    C     C_R   0.637791 0.282205 0.084961 0.566612
C5    C     C_R   0.652381 0.683287 0.745712 0.048115
C6    C     C_R   0.686820 0.791180 0.676009 -0.003332
C7    C     C_R   0.736268 0.933973 0.682324 -0.133361
C8    C     C_R   0.754776 0.971288 0.756871 -0.054614
C9    C     C_R   0.707225 0.858298 0.826339 0.024478
C10   C     C_R   0.079072 0.902059 0.793537 -0.012891
C11   C     C_R   0.077173 0.904523 0.711666 0.045495
C12   C     C_R   0.815127 0.470236 0.248592 -0.144520
C13   C     C_R   0.065406 0.784000 0.682429 0.013862
C14   C     C_R   0.062045 0.665849 0.737255 0.078851
C15   C     C_R   0.091275 0.678907 0.817056 0.104508
C16   C     C_R   0.644158 0.855320 0.123898 0.580786
C17   C     C_R   0.114641 0.804648 0.841865 0.039587
C18   C     C_R   0.712688 0.772624 0.353742 0.549086
C19   C     C_R   0.721474 0.450321 0.382878 0.521833
C20   C     C_R   0.108500 0.813307 0.360106 0.539734
C21   C     C_R   0.700005 0.762544 0.597081 0.548546
C22   C     C_R   0.669896 0.365781 0.620609 0.540854
C23   C     C_R   0.797782 0.438633 0.172864 -0.102636
C24   C     C_R   0.037022 0.777554 0.597765 0.570324
C25   C     C_R   0.207923 0.855521 0.906284 0.595391
C26   C     C_R   0.611793 0.216533 0.859851 0.553573
C27   C     C_R   0.648001 0.870734 0.898645 0.608610
C28   C     C_R   0.532660 0.305137 0.205591 -0.102178
C29   C     C_R   0.548077 0.330042 0.283183 0.002628
C30   C     C_R   0.692182 0.412860 0.304829 -0.006719
C31   C     C_3   0.247525 0.143945 0.633995 -0.259420
C32   C     C_3   0.153515 0.529842 0.679274 -0.212113
C33   C     C_3   0.208862 0.537406 0.870700 -0.256289
C34   C     C_R   0.656730 0.351595 0.152458 0.019648
C35   C     C_2   0.413229 0.255368 0.341006 0.256225
C36   C     C_2   0.659347 0.608307 0.892538 0.266769
C37   C     C_3   0.446446 0.449777 0.741296 -0.296036
C38   C     C_2   0.838331 0.128530 0.758751 0.171368
C39   C     C_2   0.056817 0.010139 0.826299 0.247665
C40   C     C_1   0.686567 0.830589 0.201300 -0.014169
C41   C     C_1   0.705763 0.806886 0.270208 -0.028110
C42   C     C_1   0.228773 0.854221 0.215611 -0.039261
C43   C     C_1   0.180229 0.836342 0.283244 -0.031072
C44   C     C_1   0.615275 0.250750 0.774497 -0.034720
Cr1   Cr    Cr6+3 0.402240 0.783890 0.019450 1.037620
Cr2   Cr    Cr6+3 0.382360 0.097900 0.991800 1.034877
Cr3   Cr    Cr6+3 0.715380 0.118170 0.988700 1.030344
Cr4   Cr    Cr6+3 0.936650 0.882420 0.465510 1.070568
Cr5   Cr    Cr6+3 0.605770 0.565620 0.493360 0.991899
Cr6   Cr    Cr6+3 0.921340 0.550490 0.496380 1.036431
H1    H     H_    0.423592 0.235477 0.189730 0.173202
H2    H     H_    0.164790 0.441242 0.716900 0.107723
H3    H     H_    0.258441 0.634724 0.674168 0.135219
H4    H     H_    0.133427 0.504039 0.618744 0.198439
H5    H     H_    0.984947 0.469771 0.888532 0.282910
H6    H     H_    0.247550 0.530638 0.931124 0.182139
H7    H     H_    0.172534 0.431548 0.853396 0.102195
H8    H     H_    0.302071 0.626821 0.827659 0.154942
H9    H     H_    0.417122 0.217979 0.404094 0.136001
H10   H     H_    0.599516 0.493461 0.891982 0.163317
H11   H     H_    0.670985 0.535927 0.699694 0.263476
H12   H     H_    0.925273 0.536299 0.264258 0.136017
H13   H     H_    0.415255 0.451876 0.679062 0.170177
H14   H     H_    0.387322 0.487600 0.775268 0.121472
H15   H     H_    0.410258 0.336568 0.772176 0.150004
H16   H     H_    0.876988 0.166243 0.813246 0.162384
H17   H     H_    0.097503 0.119750 0.791947 0.077008
H18   H     H_    0.894372 0.475920 0.131785 0.157798
H19   H     H_    0.768224 0.017974 0.628317 0.199600
H20   H     H_    0.030527 0.072576 0.673179 0.260861
H21   H     H_    0.252776 0.238460 0.592021 0.145540
H22   H     H_    0.306479 0.101717 0.603046 0.176676
H23   H     H_    0.303615 0.180248 0.687215 0.102027
H24   H     H_    0.957527 0.441829 0.753532 0.290715
N1    N     N_2   0.095537 0.032201 0.658322 -0.483999
N2    N     N_2   0.029427 0.534954 0.712781 -0.454606
N3    N     N_2   0.086242 0.562582 0.874777 -0.499192
N4    N     N_2   0.603988 0.539191 0.741197 -0.536546
O1    O     O_R   0.521780 0.757110 0.108900 -0.494281
O2    O     O_R   0.805020 0.410040 0.421340 -0.492619
O3    O     O_R   0.049240 0.685450 0.403290 -0.516559
O4    O     O_R   0.275160 0.783810 0.101120 -0.488340
O5    O     O_R   0.077520 0.903010 0.551800 -0.481373
O6    O     O_R   0.802980 0.872780 0.546830 -0.496043
O7    O     O_R   0.578090 0.681300 0.569920 -0.506723
O8    O     O_R   0.608530 0.436370 0.586530 -0.544457
O9    O     O_R   0.798770 0.401880 0.597100 -0.437231
O10   O     O_R   0.043450 0.677890 0.566230 -0.484403
O11   O     O_3   0.821250 0.666180 0.485090 -0.333682
O12   O     O_R   0.513330 0.228330 0.898660 -0.512647
O13   O     O_R   0.237900 0.972600 0.090980 -0.483869
O14   O     O_R   0.511190 0.220540 0.061620 -0.519518
O15   O     O_R   0.736920 0.257720 0.063840 -0.508197
O16   O     O_R   0.710450 0.984050 0.081720 -0.482394
O17   O     O_R   0.524090 0.765520 0.933110 -0.520777
O18   O     O_R   0.277300 0.791600 0.938160 -0.491427
O19   O     O_R   0.240210 0.981010 0.915190 -0.495332
O20   O     O_2   0.294713 0.231909 0.318161 -0.488849
O21   O     O_2   0.718502 0.645554 0.952486 -0.477071
O22   O     O_2   0.875722 0.220201 0.696628 -0.545099
O23   O     O_R   0.739230 0.266130 0.888050 -0.548419
O24   O     O_2   0.993220 0.977045 0.893387 -0.467290
O25   O     O_R   0.712580 0.991850 0.918770 -0.515981
O26   O     O_3   0.499990 0.999980 0.999980 -0.308636
O27   O     O_R   0.083770 0.911170 0.376030 -0.466425
O28   O     O_R   0.808770 0.880340 0.383890 -0.465796
O29   O     O_R   0.584340 0.689460 0.394160 -0.490491
O30   O     O_R   0.614320 0.443940 0.423590 -0.531612

loop_
_geom_bond_atom_site_label_1
_geom_bond_atom_site_label_2
_ccdc_geom_bond_type
C33   H8    S    
Cr3   O23   S    
C27   O17   A    
Cr1   O4    S    
C37   H14   S    
C26   C44   S    
C7    C8    A    
Cr5   O29   S    
C12   C23   A    
C19   C30   S    
H24   N2    S    
C28   C29   A    
C24   O5    A    
C26   O23   A    
C5    C6    A    
H5    N3    S    
C28   H1    S    
C31   H23   S    
Cr2   O14   S    
C10   C17   A    
C35   H9    S    
C18   O29   A    
C32   H2    S    
Cr4   O28   S    
C38   H16   S    
C2    C44   T    
C8    C9    A    
C37   H15   S    
C2    C22   S    
C35   O20   D    
Cr6   O10   S    
C19   O30   A    
C33   H6    S    
C31   H21   S    
C28   C34   A    
C1    O13   A    
C13   C14   A    
C8    C38   S    
C32   H4    S    
C37   H13   S    
Cr5   O30   S    
C4    C34   S    
C21   O7    A    
Cr3   O25   S    
Cr5   O7    S    
C38   O22   D    
C18   C41   S    
Cr2   O13   S    
C3    C5    A    
C1    O4    A    
C6    C21   S    
Cr2   O26   S    
Cr4   O6    S    
C13   C24   S    
C10   C39   S    
C14   N2    S    
C23   H18   S    
C18   O28   A    
C7    H19   S    
C29   C30   A    
C3    C9    A    
Cr1   O26   S    
C12   H12   S    
Cr6   O11   S    
C31   N1    S    
Cr4   O27   S    
C21   O6    A    
H11   N4    S    
C23   C34   A    
Cr3   O15   S    
Cr1   O1    S    
C22   O9    A    
C24   O10   A    
Cr6   O9    S    
C16   C40   S    
C25   O19   A    
C40   C41   T    
Cr2   O19   S    
Cr4   O11   S    
C42   C43   T    
Cr1   O17   S    
C32   H3    S    
C20   C43   S    
C9    C27   S    
C39   O24   D    
C20   O27   A    
C15   C17   A    
C31   H22   S    
C33   H7    S    
Cr3   O26   S    
C12   C30   A    
C39   H17   S    
Cr5   O8    S    
Cr5   O11   S    
C36   H10   S    
Cr6   O2    S    
C32   N2    S    
C6    C7    A    
Cr2   O12   S    
C26   O12   A    
C37   N4    S    
C29   C35   S    
C16   O16   A    
Cr4   O5    S    
C16   O1    A    
C17   C25   S    
C11   N1    S    
C11   C13   A    
C33   N3    S    
C15   N3    S    
C3    C36   S    
C27   O25   A    
Cr3   O16   S    
C36   O21   D    
C22   O8    A    
C19   O2    A    
C10   C11   A    
C4    O15   A    
C1    C42   S    
C25   O18   A    
H20   N1    S    
C14   C15   A    
C5    N4    S    
C20   O3    A    
Cr1   O18   S    
Cr6   O3    S    
C4    O14   A    
