data_mof_unit_15126.cif
_audit_creation_date              2012-12-10T17:56:41-0500
_audit_creation_method            fapswitch 2.2
_symmetry_space_group_name_H-M    P1
_symmetry_Int_Tables_number       1
_space_group_crystal_system       triclinic
_cell_length_a                    10.83054
_cell_length_b                    9.519696
_cell_length_c                    10.688583
_cell_angle_alpha                 89.956019
_cell_angle_beta                  90.307631
_cell_angle_gamma                 89.980465
_cell_volume                      1102.01348999

loop_
_atom_site_label
_atom_site_type_symbol
_atom_type_description
_atom_site_fract_x
_atom_site_fract_y
_atom_site_fract_z
_atom_type_partial_charge
C1    C     C_R   0.262048 0.499972 0.500019 0.815889
C2    C     C_R   0.737929 0.499960 0.499860 0.740821
C3    C     C_R   0.935984 0.627600 0.497221 -0.178715
C4    C     C_R   0.063709 0.627608 0.497267 -0.171203
C5    C     C_R   0.400860 0.074383 0.455085 -0.032380
C6    C     C_R   0.599764 0.074111 0.543008 -0.043752
C7    C     C_R   0.401095 0.925762 0.454533 -0.019179
C8    C     C_R   0.599524 0.925638 0.543784 -0.039771
C9    C     C_R   0.520677 0.499267 0.263407 0.818461
C10   C     C_R   0.520114 0.499045 0.737244 0.817235
C11   C     C_R   0.658356 0.729563 0.131229 -0.358891
C12   C     C_R   0.660482 0.727112 0.870471 -0.352929
C13   C     C_R   0.719269 0.837040 0.066174 0.443056
C14   C     C_R   0.721043 0.835257 0.935669 0.437593
C15   C     C_R   0.601207 0.616664 0.934614 0.037702
C16   C     C_R   0.601120 0.617271 0.066968 0.035987
C17   C     C_R   0.561740 0.494890 0.130590 -0.171593
C18   C     C_R   0.560515 0.494351 0.871174 -0.150199
C19   C     C_R   0.581034 0.364633 0.067878 0.091505
C20   C     C_R   0.580920 0.364084 0.934739 0.114952
C21   C     C_R   0.063818 0.372356 0.503293 -0.174403
C22   C     C_R   0.936099 0.372349 0.503280 -0.184287
C23   C     C_R   0.871707 0.499966 0.500109 -0.012279
C24   C     C_R   0.128153 0.499985 0.500189 -0.027596
Cu1   Cu    Cu3+1 0.500000 0.640660 0.500000 0.933146
Cu2   Cu    Cu3+1 0.500000 0.359340 0.500000 0.928624
H1    H     H_    0.669639 0.727271 0.231558 0.175927
H2    H     H_    0.673392 0.722355 0.770592 0.165023
H3    H     H_    0.111877 0.272578 0.505795 0.145007
H4    H     H_    0.888094 0.272585 0.505837 0.142985
H5    H     H_    0.887889 0.727369 0.494737 0.138717
H6    H     H_    0.111681 0.727386 0.494848 0.144277
H7    H     H_    0.321629 0.129840 0.418001 0.121067
H8    H     H_    0.680247 0.129259 0.576441 0.125254
H9    H     H_    0.322059 0.870415 0.417037 0.123756
H10   H     H_    0.679591 0.870325 0.578850 0.102670
N1    N     N_R   0.500000 0.852070 0.500000 -0.155210
N2    N     N_R   0.500000 0.147940 0.500000 -0.152896
O1    O     O_R   0.319640 0.618740 0.499990 -0.584560
O2    O     O_R   0.680360 0.618740 0.500010 -0.612213
O3    O     O_R   0.319620 0.381170 0.499990 -0.587476
O4    O     O_R   0.680380 0.381170 0.500010 -0.605248
O5    O     O_R   0.500000 0.618810 0.319650 -0.576467
O6    O     O_R   0.500000 0.618810 0.680350 -0.569063
O7    O     O_R   0.499970 0.381240 0.319640 -0.573706
O8    O     O_R   0.500030 0.381240 0.680360 -0.574241
C25   C     C_3   0.623691 0.235153 0.141079 -0.346335
C26   C     C_3   0.521206 0.125056 0.153071 -0.751639
H11   H     H_    0.436344 0.172154 0.192690 0.256281
H12   H     H_    0.496860 0.078851 0.061074 0.226024
H13   H     H_    0.552522 0.039161 0.215950 0.240794
H14   H     H_    0.707309 0.189293 0.098458 0.237147
H15   H     H_    0.660812 0.262253 0.234721 0.214011
C27   C     C_3   0.628657 0.235713 0.862967 -0.368410
C28   C     C_3   0.756022 0.267138 0.808231 -0.747821
H16   H     H_    0.751806 0.356867 0.742293 0.231566
H17   H     H_    0.822034 0.293071 0.884683 0.256234
H18   H     H_    0.791911 0.174651 0.757322 0.242335
H19   H     H_    0.638313 0.140635 0.920349 0.234184
H20   H     H_    0.563506 0.197132 0.791362 0.221570
O9    O     O_3   0.785975 0.939368 0.128102 -0.716476
H21   H     H_    0.776036 0.926893 0.219626 0.303561
O10   O     O_3   0.790637 0.934872 0.874349 -0.716832
H22   H     H_    0.786014 0.917508 0.783020 0.292409

loop_
_geom_bond_atom_site_label_1
_geom_bond_atom_site_label_2
_ccdc_geom_bond_type
C15   C16   A    
C10   O8    A    
C15   C18   A    
C28   H16   S    
C6    N2    A    
C9    O7    A    
C25   H14   S    
C11   C16   A    
C3    C23   A    
C19   C20   A    
C12   C15   A    
C11   H1    S    
C25   H15   S    
Cu1   N1    S    
Cu1   O5    S    
C26   H12   S    
C7    N1    A    
C27   H20   S    
C13   C14   A    
Cu1   O1    S    
C3    H5    S    
C11   C13   A    
C22   C23   A    
C4    H6    S    
C21   H3    S    
C2    O4    A    
C14   O10   S    
Cu1   O6    S    
C1    O3    A    
C26   H11   S    
C17   C19   A    
C10   C18   S    
C5    N2    A    
C18   C20   A    
C27   H19   S    
C28   H17   S    
Cu1   O2    S    
O9    H21   S    
C4    C24   A    
C19   C25   S    
C9    O5    A    
C6    H8    S    
C8    N1    A    
C1    O1    A    
C10   O6    A    
O10   H22   S    
C25   C26   S    
C2    O2    A    
C13   O9    S    
Cu2   O4    S    
C1    C24   S    
C20   C27   S    
C8    H10   S    
C21   C24   A    
C9    C17   S    
C2    C23   S    
C5    C7    A    
C28   H18   S    
C27   C28   S    
Cu2   N2    S    
C6    C8    A    
C22   H4    S    
Cu2   O7    S    
C12   H2    S    
Cu1   Cu2   S    
C21   C22   A    
Cu2   O8    S    
C7    H9    S    
C26   H13   S    
C3    C4    A    
Cu2   O3    S    
C12   C14   A    
C16   C17   A    
C5    H7    S    
