data_mof_unit_64894.cif
_audit_creation_date              2012-12-10T21:00:22-0500
_audit_creation_method            fapswitch 2.2
_symmetry_space_group_name_H-M    P1
_symmetry_Int_Tables_number       1
_space_group_crystal_system       triclinic
_cell_length_a                    15.850082
_cell_length_b                    15.081694
_cell_length_c                    15.756858
_cell_angle_alpha                 90.000034
_cell_angle_beta                  89.981678
_cell_angle_gamma                 89.999882
_cell_volume                      3766.6150494

loop_
_atom_site_label
_atom_site_type_symbol
_atom_type_description
_atom_site_fract_x
_atom_site_fract_y
_atom_site_fract_z
_atom_type_partial_charge
C1    C     C_R   0.338870 0.500000 0.499996 0.905530
C2    C     C_R   0.043741 0.419286 0.499602 -0.179014
C3    C     C_R   0.043741 0.580715 0.499677 -0.179015
C4    C     C_R   0.086851 0.500000 0.499664 0.166966
C5    C     C_1   0.824360 0.500000 0.499743 -0.071099
C6    C     C_R   0.499982 0.500000 0.337803 0.910097
C7    C     C_1   0.175633 0.500000 0.499783 -0.068127
C8    C     C_1   0.250472 0.500000 0.499893 -0.169433
C9    C     C_1   0.749521 0.500000 0.499843 -0.174002
C10   C     C_R   0.480984 0.952657 0.421308 0.151947
C11   C     C_R   0.480984 0.047343 0.421308 0.151946
C12   C     C_3   0.591745 0.499845 0.950997 -0.392986
C13   C     C_R   0.499272 0.905052 0.496576 -0.012511
C14   C     C_R   0.499272 0.094948 0.496576 -0.012511
C15   C     C_R   0.517332 0.953320 0.570646 -0.199895
C16   C     C_R   0.517332 0.046680 0.570646 -0.199894
C17   C     C_1   0.499762 0.807110 0.498774 0.121205
C18   C     C_1   0.499762 0.192889 0.498774 0.121206
C19   C     C_R   0.661121 0.500000 0.499946 0.903205
C20   C     C_R   0.499990 0.500000 0.662189 0.905655
C21   C     C_3   0.454105 0.583681 0.049029 -0.381530
C22   C     C_3   0.453849 0.416473 0.049029 -0.381560
C23   C     C_3   0.591754 0.499845 0.048970 -0.391731
C24   C     C_3   0.453842 0.416474 0.951053 -0.393302
C25   C     C_3   0.454097 0.583681 0.951053 -0.393304
C26   C     C_1   0.499938 0.500000 0.751025 -0.176787
C27   C     C_3   0.499906 0.500000 0.082442 0.334913
C28   C     C_3   0.499890 0.500000 0.917592 0.348775
C29   C     C_1   0.499901 0.500000 0.826273 -0.118906
C30   C     C_1   0.499922 0.500000 0.173746 -0.105224
C31   C     C_1   0.499949 0.500000 0.248984 -0.152905
C32   C     C_R   0.956254 0.580715 0.499667 -0.180638
C33   C     C_R   0.956254 0.419285 0.499591 -0.180638
C34   C     C_R   0.913143 0.500000 0.499642 0.168001
H1    H     H_    0.387915 0.585198 0.927437 0.173118
H2    H     H_    0.625911 0.440250 0.072596 0.175685
H3    H     H_    0.626081 0.559321 0.927346 0.172683
H4    H     H_    0.625900 0.440253 0.927346 0.172695
H5    H     H_    0.077652 0.643121 0.499727 0.148202
H6    H     H_    0.077653 0.356880 0.499592 0.148206
H7    H     H_    0.485689 0.355480 0.072666 0.185018
H8    H     H_    0.486130 0.644567 0.072666 0.185000
H9    H     H_    0.922342 0.643120 0.499709 0.146580
H10   H     H_    0.922344 0.356879 0.499574 0.146583
H11   H     H_    0.387655 0.415180 0.927437 0.173108
H12   H     H_    0.531588 0.918543 0.629063 0.151987
H13   H     H_    0.531588 0.081457 0.629063 0.151987
H14   H     H_    0.387927 0.585196 0.072693 0.176302
H15   H     H_    0.387667 0.415182 0.072693 0.176270
H16   H     H_    0.485684 0.355482 0.927406 0.175665
H17   H     H_    0.486126 0.644565 0.927406 0.175657
H18   H     H_    0.626093 0.559324 0.072596 0.175655
I1    I     I_    0.453577 0.120017 0.308288 -0.322495
I2    I     I_    0.453577 0.879982 0.308288 -0.322493
N1    N     N_1   0.500020 0.270550 0.499980 -0.082250
N2    N     N_1   0.500020 0.729450 0.499980 -0.082250
O1    O     O_R   0.378020 0.573650 0.500000 -0.607268
O2    O     O_R   0.378020 0.426350 0.500000 -0.607268
O3    O     O_R   0.500000 0.573700 0.377120 -0.599888
O4    O     O_R   0.500000 0.426300 0.377120 -0.599888
O5    O     O_R   0.621980 0.573680 0.499960 -0.610854
O6    O     O_R   0.621980 0.426320 0.499960 -0.610854
O7    O     O_R   0.500000 0.573630 0.622840 -0.615160
O8    O     O_R   0.500000 0.426370 0.622840 -0.615158
Zn1   Zn    Zn3+2 0.500000 0.598370 0.499970 0.995497
Zn2   Zn    Zn3+2 0.500000 0.401630 0.499970 0.995497

loop_
_geom_bond_atom_site_label_1
_geom_bond_atom_site_label_2
_ccdc_geom_bond_type
C20   O8    A    
C2    C4    A    
O7    Zn1   S    
C5    C9    T    
C23   C27   S    
C1    C8    S    
C24   C28   S    
C14   C18   S    
C11   I1    S    
C13   C17   S    
C21   H14   S    
C5    C34   S    
C20   O7    A    
C25   H17   S    
C6    C31   S    
C21   C27   S    
C3    H5    S    
C7    C8    T    
C1    O2    A    
O3    Zn1   S    
C27   C30   S    
C24   H16   S    
C17   N2    T    
O2    Zn2   S    
C23   H18   S    
C30   C31   T    
C20   C26   S    
C18   N1    T    
C25   H1    S    
C4    C7    S    
C24   H11   S    
C16   H13   S    
C28   C29   S    
C32   H9    S    
C19   O5    A    
C33   C34   A    
C1    O1    A    
C22   C27   S    
C13   C15   A    
O5    Zn1   S    
C12   H4    S    
C3    C32   A    
C10   I2    S    
C11   C14   A    
C14   C16   A    
C22   H7    S    
C10   C11   A    
O6    Zn2   S    
C19   O6    A    
O4    Zn2   S    
C15   C16   A    
C2    H6    S    
N1    Zn2   S    
C2    C33   A    
C26   C29   T    
C23   H2    S    
C6    O4    A    
C22   H15   S    
C12   H3    S    
C21   C25   S    
C12   C23   S    
C21   H8    S    
C15   H12   S    
C12   C28   S    
C32   C34   A    
C33   H10   S    
C6    O3    A    
C9    C19   S    
C3    C4    A    
N2    Zn1   S    
C22   C24   S    
O1    Zn1   S    
C25   C28   S    
C10   C13   A    
O8    Zn2   S    
