data_mof_unit_5378.cif
_audit_creation_date              2012-12-10T17:17:25-0500
_audit_creation_method            fapswitch 2.2
_symmetry_space_group_name_H-M    P1
_symmetry_Int_Tables_number       1
_space_group_crystal_system       triclinic
_cell_length_a                    10.183711
_cell_length_b                    10.666177
_cell_length_c                    12.28765
_cell_angle_alpha                 90.31795
_cell_angle_beta                  109.241924
_cell_angle_gamma                 96.366361
_cell_volume                      1251.10591414

loop_
_atom_site_label
_atom_site_type_symbol
_atom_type_description
_atom_site_fract_x
_atom_site_fract_y
_atom_site_fract_z
_atom_type_partial_charge
C1    C     C_R   0.055337 0.733777 0.497773 0.934628
C2    C     C_R   0.428137 0.527951 0.992734 0.088212
C3    C     C_R   0.353242 0.562549 0.881177 0.003353
C4    C     C_R   0.575281 0.534614 0.024628 0.005407
C5    C     C_R   0.647032 0.595101 0.954025 0.042556
C6    C     C_R   0.570815 0.646328 0.851439 0.558559
C7    C     C_R   0.425512 0.629537 0.815106 -0.300303
C8    C     C_R   0.652851 0.480783 0.124513 -0.209195
C9    C     C_R   0.869491 0.561295 0.095114 -0.232987
C10   C     C_R   0.207573 0.527576 0.837824 -0.078166
C11   C     C_2   0.096903 0.868815 0.512822 -0.371298
C12   C     C_R   0.135158 0.516309 0.713880 0.853599
C13   C     C_2   0.034645 0.935827 0.569479 -0.164424
C14   C     C_2   0.925812 0.130778 0.529377 -0.078770
C15   C     C_2   0.042052 0.071012 0.560998 -0.193754
C16   C     C_2   0.432788 0.512695 0.508704 -0.106729
C17   C     C_2   0.566941 0.488322 0.490059 -0.146029
C18   C     C_R   0.948290 0.265753 0.509474 0.906277
C19   C     C_R   0.866176 0.489306 0.286032 0.866801
C20   C     C_R   0.793995 0.605272 0.988858 -0.141885
C21   C     C_R   0.797691 0.502397 0.163976 -0.050779
C22   C     C_R   0.134444 0.485925 0.912233 -0.189118
C23   C     C_R   0.206999 0.470222 0.027651 -0.157212
C24   C     C_R   0.352703 0.487878 0.067565 -0.157728
H1    H     H_    0.982717 0.579621 0.126085 0.157431
H2    H     H_    0.962549 0.890024 0.609575 0.191375
H3    H     H_    0.170352 0.913589 0.473537 0.159727
H4    H     H_    0.563883 0.413937 0.428353 0.151355
H5    H     H_    0.435628 0.588178 0.569189 0.190269
H6    H     H_    0.684964 0.623772 0.602397 0.225748
H7    H     H_    0.315253 0.375583 0.398178 0.156570
H8    H     H_    0.850647 0.651875 0.936720 0.189014
H9    H     H_    0.603011 0.426119 0.176877 0.132054
H10   H     H_    0.021814 0.461300 0.880348 0.161544
H11   H     H_    0.403234 0.472583 0.157736 0.123983
H12   H     H_    0.150589 0.438723 0.085268 0.144335
H13   H     H_    0.369886 0.671135 0.735447 0.179484
H14   H     H_    0.145025 0.120287 0.571005 0.183973
N1    N     N_2   0.313640 0.446500 0.454900 -0.197765
N2    N     N_2   0.686360 0.553430 0.545150 -0.187205
O1    O     O_R   0.936910 0.692950 0.509080 -0.599561
O2    O     O_R   0.138320 0.658600 0.480130 -0.608568
O3    O     O_R   0.002900 0.525670 0.675280 -0.605679
O4    O     O_R   0.204310 0.491320 0.646330 -0.603397
O5    O     O_R   0.861680 0.341400 0.519870 -0.614737
O6    O     O_R   0.063090 0.307050 0.490920 -0.612869
O7    O     O_R   0.795690 0.508680 0.353670 -0.607109
O8    O     O_R   0.997100 0.474330 0.324720 -0.609596
Zn1   Zn    Zn3+2 0.865520 0.522940 0.519330 0.940906
Zn2   Zn    Zn3+2 0.134480 0.477060 0.480670 0.933607
C25   C     C_3   0.781111 0.058164 0.511515 -0.412534
C26   C     C_3   0.655002 0.133031 0.464826 -0.336355
C27   C     C_3   0.516915 0.046759 0.436478 -0.892928
H15   H     H_    0.508121 0.974687 0.368041 0.267832
H16   H     H_    0.510004 0.998589 0.514688 0.275640
H17   H     H_    0.427975 0.103776 0.405003 0.243189
H18   H     H_    0.657114 0.205272 0.531049 0.248000
H19   H     H_    0.658250 0.179998 0.385036 0.219412
H20   H     H_    0.766095 0.977019 0.449593 0.227964
H21   H     H_    0.780107 0.019762 0.595217 0.219414
F1    F     F_    0.636437 0.710983 0.785341 -0.715539

loop_
_geom_bond_atom_site_label_1
_geom_bond_atom_site_label_2
_ccdc_geom_bond_type
C2    C4    A    
C23   C24   A    
C15   H14   S    
C6    C7    A    
C11   H3    S    
C14   C18   S    
C9    C20   A    
C14   C25   S    
C1    C11   S    
O5    Zn1   S    
C4    C8    A    
O8    Zn2   S    
C2    C3    A    
C7    H13   S    
H6    N2    S    
O7    Zn1   S    
C3    C10   A    
C27   H15   S    
C10   C22   A    
C11   C13   D    
C9    C21   A    
N2    Zn1   S    
C16   C17   S    
C10   C12   S    
O2    Zn2   S    
C18   O6    A    
C6    F1    S    
C1    O1    A    
C19   C21   S    
H7    N1    S    
C8    C21   A    
C12   O3    A    
C3    C7    A    
C8    H9    S    
C13   C15   S    
C2    C24   A    
C5    C6    A    
C22   H10   S    
C19   O7    A    
C13   H2    S    
C24   H11   S    
C25   H20   S    
C26   H18   S    
C16   N1    D    
C9    H1    S    
C26   H19   S    
C18   O5    A    
C1    O2    A    
N1    Zn2   S    
C26   C27   S    
C12   O4    A    
C23   H12   S    
C20   H8    S    
C27   H17   S    
O1    Zn1   S    
C5    C20   A    
O6    Zn2   S    
C14   C15   D    
O3    Zn1   S    
O4    Zn2   S    
C25   H21   S    
C16   H5    S    
C19   O8    A    
C17   H4    S    
C27   H16   S    
C22   C23   A    
C25   C26   S    
C4    C5    A    
C17   N2    D    
