data_mof_unit_55403.cif
_audit_creation_date              2012-12-11T17:28:22-0500
_audit_creation_method            fapswitch 2.2
_symmetry_space_group_name_H-M    P1
_symmetry_Int_Tables_number       1
_space_group_crystal_system       triclinic
_cell_length_a                    24.261139
_cell_length_b                    24.159086
_cell_length_c                    25.434915
_cell_angle_alpha                 90.026392
_cell_angle_beta                  89.815446
_cell_angle_gamma                 89.996838
_cell_volume                      14908.0100451

loop_
_atom_site_label
_atom_site_type_symbol
_atom_type_description
_atom_site_fract_x
_atom_site_fract_y
_atom_site_fract_z
_atom_type_partial_charge
C1    C     C_R   0.623076 0.441778 0.404291 -0.108330
C2    C     C_R   0.361167 0.424858 0.428364 -0.131718
C3    C     C_R   0.619616 0.308732 0.254786 0.506795
C4    C     C_R   0.668046 0.609028 0.756121 0.537452
C5    C     C_R   0.240788 0.286991 0.404509 0.533982
C6    C     C_R   0.686755 0.237592 0.637592 0.508935
C7    C     C_R   0.378617 0.691662 0.255091 0.508182
C8    C     C_R   0.330393 0.604042 0.241792 0.531506
C9    C     C_R   0.761460 0.293032 0.600132 0.525305
C10   C     C_R   0.314485 0.239670 0.356527 0.513363
C11   C     C_R   0.627714 0.699638 0.737618 0.518888
C12   C     C_R   0.667937 0.396234 0.240766 0.530976
C13   C     C_R   0.436130 0.627357 0.591877 -0.117898
C14   C     C_R   0.299531 0.628004 0.737908 0.511419
C15   C     C_R   0.686482 0.760007 0.356539 0.509543
C16   C     C_R   0.291121 0.237600 0.595697 0.538084
C17   C     C_R   0.831860 0.896182 0.259123 0.530813
C18   C     C_R   0.199807 0.126291 0.761234 0.510347
C19   C     C_R   0.813407 0.260127 0.143310 0.509512
C20   C     C_R   0.208790 0.737150 0.904360 0.538559
C21   C     C_R   0.169418 0.104027 0.258302 0.531431
C22   C     C_R   0.738680 0.793050 0.899838 0.528817
C23   C     C_R   0.185426 0.739871 0.143778 0.513268
C24   C     C_R   0.557891 0.376495 0.404749 -0.112182
C25   C     C_R   0.868694 0.201328 0.764690 0.482745
C26   C     C_R   0.831303 0.109737 0.744772 0.530633
C27   C     C_R   0.259105 0.786902 0.095559 0.534343
C28   C     C_R   0.813040 0.738436 0.860604 0.509278
C29   C     C_R   0.121336 0.191715 0.244984 0.508054
C30   C     C_R   0.262430 0.811614 0.864146 0.513935
C31   C     C_R   0.739372 0.209475 0.099383 0.531580
C32   C     C_R   0.109553 0.166971 0.743102 0.476562
C33   C     C_R   0.880265 0.808714 0.245067 0.506838
C34   C     C_R   0.279913 0.349187 0.624054 -0.240382
C35   C     C_R   0.361156 0.426187 0.572228 -0.143489
C36   C     C_R   0.722825 0.668194 0.414263 -0.250312
C37   C     C_R   0.408192 0.650345 0.706823 -0.245625
C38   C     C_R   0.601665 0.327821 0.303630 -0.249382
C39   C     C_R   0.651806 0.591053 0.706345 -0.242077
C40   C     C_R   0.278067 0.328683 0.418390 -0.259222
C41   C     C_R   0.649330 0.278732 0.623676 -0.251524
C42   C     C_R   0.397301 0.672547 0.303666 -0.248651
C43   C     C_R   0.349601 0.585789 0.290566 -0.247231
C44   C     C_R   0.723173 0.333689 0.586542 -0.246009
C45   C     C_R   0.350993 0.281282 0.371464 -0.241678
C46   C     C_R   0.638670 0.574583 0.427425 -0.127913
C47   C     C_R   0.611899 0.680758 0.688143 -0.232385
C48   C     C_R   0.649351 0.414534 0.289843 -0.245859
C49   C     C_R   0.318267 0.611851 0.688297 -0.250356
C50   C     C_R   0.649542 0.718645 0.371320 -0.250082
C51   C     C_R   0.332172 0.275842 0.582498 -0.259684
C52   C     C_R   0.850482 0.914498 0.210081 -0.245693
C53   C     C_R   0.181039 0.110142 0.810815 -0.257209
C54   C     C_R   0.850376 0.218754 0.128575 -0.249887
C55   C     C_R   0.167708 0.775441 0.917440 -0.259062
C56   C     C_R   0.150243 0.085778 0.209501 -0.247163
C57   C     C_R   0.572648 0.361315 0.573561 -0.110413
C58   C     C_R   0.777021 0.833668 0.913434 -0.247392
C59   C     C_R   0.148949 0.781479 0.128793 -0.241884
C60   C     C_R   0.884644 0.182361 0.814081 -0.299513
C61   C     C_R   0.847595 0.091712 0.794481 -0.245775
C62   C     C_R   0.221862 0.828606 0.081644 -0.259613
C63   C     C_R   0.850543 0.779479 0.874688 -0.251657
C64   C     C_R   0.102678 0.172602 0.196384 -0.248571
C65   C     C_R   0.221046 0.849038 0.877678 -0.239995
C66   C     C_R   0.777145 0.168217 0.085605 -0.250069
C67   C     C_R   0.091904 0.150850 0.793178 -0.270324
C68   C     C_R   0.442050 0.623565 0.404728 -0.106774
C69   C     C_R   0.898250 0.827819 0.196259 -0.249376
C70   C     C_R   0.138937 0.926103 0.928021 -0.143381
C71   C     C_R   0.861323 0.074603 0.072562 -0.127679
C72   C     C_R   0.927384 0.861385 0.926186 -0.110562
C73   C     C_R   0.373293 0.560173 0.592671 -0.106224
C74   C     C_R   0.057931 0.123581 0.095291 -0.106768
C75   C     C_R   0.873418 0.061004 0.907509 -0.111007
C76   C     C_R   0.138826 0.924873 0.071654 -0.131830
C77   C     C_R   0.063628 0.127077 0.907869 -0.116041
C78   C     C_R   0.942085 0.876500 0.095222 -0.112116
C79   C     C_R   0.123008 0.058197 0.095562 -0.105220
C80   C     C_R   0.861660 0.925490 0.927165 -0.124099
C81   C     C_R   0.926565 0.138863 0.072930 -0.137207
C82   C     C_R   0.074486 0.860938 0.927825 -0.104560
C83   C     C_R   0.876895 0.941787 0.095687 -0.108291
C84   C     C_R   0.426604 0.360863 0.427762 -0.147007
C85   C     C_R   0.126526 0.059932 0.907170 -0.108544
C86   C     C_R   0.073383 0.860886 0.072260 -0.146998
C87   C     C_R   0.935855 0.128655 0.909681 -0.130827
C88   C     C_R   0.245367 0.255184 0.625796 -0.302646
C89   C     C_R   0.742716 0.754736 0.369804 -0.322072
C90   C     C_R   0.335202 0.657200 0.771813 -0.318485
C91   C     C_R   0.655207 0.341946 0.224238 -0.317200
C92   C     C_R   0.657910 0.664363 0.771040 -0.332408
C93   C     C_R   0.258488 0.243472 0.371384 -0.308023
C94   C     C_R   0.743451 0.245755 0.627819 -0.316760
C95   C     C_R   0.563632 0.628283 0.590766 -0.124309
C96   C     C_R   0.342877 0.658311 0.224978 -0.316931
C97   C     C_R   0.844622 0.841904 0.275616 -0.317032
C98   C     C_R   0.164631 0.156692 0.727863 -0.292085
C99   C     C_R   0.757184 0.254812 0.130017 -0.322074
C100  C     C_R   0.255153 0.754875 0.875208 -0.303008
C101  C     C_R   0.156995 0.158325 0.275122 -0.316568
C102  C     C_R   0.756448 0.746174 0.871346 -0.319081
C103  C     C_R   0.241401 0.743525 0.128811 -0.308351
C104  C     C_R   0.840208 0.165432 0.730463 -0.292323
C105  C     C_1   0.212751 0.215789 0.654329 0.272621
C106  C     C_R   0.376974 0.558184 0.404451 -0.105263
C107  C     C_1   0.782017 0.789624 0.343720 0.275321
C108  C     C_1   0.311594 0.686742 0.815343 0.276271
C109  C     C_1   0.687485 0.315711 0.184025 0.275379
C110  C     C_1   0.688056 0.688679 0.813453 0.264749
C111  C     C_1   0.219114 0.209387 0.344446 0.273587
C112  C     C_1   0.782051 0.212975 0.656622 0.271507
C113  C     C_1   0.310903 0.684053 0.184303 0.278781
C114  C     C_1   0.812355 0.815655 0.315805 0.275421
C115  C     C_1   0.188727 0.186514 0.684811 0.265624
C116  C     C_1   0.717846 0.289692 0.156099 0.275259
C117  C     C_R   0.638401 0.425369 0.572604 -0.124333
C118  C     C_1   0.287747 0.715737 0.846241 0.273102
C119  C     C_1   0.188969 0.184041 0.315831 0.278865
C120  C     C_1   0.717435 0.713032 0.843327 0.277717
C121  C     C_1   0.280765 0.709421 0.155716 0.274034
C122  C     C_1   0.810870 0.189084 0.687265 0.279642
C123  C     C_R   0.327597 0.331289 0.598035 -0.018287
C124  C     C_R   0.667570 0.672060 0.398960 -0.018575
C125  C     C_R   0.371979 0.624214 0.671928 -0.012896
C126  C     C_R   0.617903 0.379844 0.322333 -0.010377
C127  C     C_R   0.625071 0.627065 0.671592 -0.014558
C128  C     C_R   0.573419 0.638842 0.427063 -0.137738
C129  C     C_R   0.332796 0.326694 0.400864 -0.019173
C130  C     C_R   0.667342 0.327576 0.599606 -0.015504
C131  C     C_R   0.381470 0.620429 0.322604 -0.010127
C132  C     C_R   0.881996 0.879835 0.177590 -0.010352
C133  C     C_R   0.127727 0.123603 0.827648 0.019111
C134  C     C_R   0.832386 0.172117 0.100951 -0.018572
C135  C     C_R   0.172769 0.831069 0.902666 -0.018239
C136  C     C_R   0.118461 0.120452 0.177444 -0.010144
C137  C     C_R   0.832704 0.827883 0.899680 -0.016221
C138  C     C_R   0.167158 0.826752 0.099252 -0.019215
C139  C     C_R   0.425649 0.361019 0.572375 -0.105028
C140  C     C_R   0.873161 0.128050 0.829752 0.001172
C141  C     C_R   0.601363 0.397865 0.375451 0.130762
C142  C     C_R   0.391503 0.606241 0.619861 0.128135
C143  C     C_R   0.372324 0.370377 0.414628 0.146285
C144  C     C_R   0.607487 0.607441 0.619507 0.132859
C145  C     C_R   0.398547 0.602214 0.375545 0.126154
C146  C     C_R   0.627117 0.370955 0.586691 0.139308
C147  C     C_R   0.627617 0.628897 0.413253 0.146314
C148  C     C_R   0.371020 0.371672 0.585521 0.136681
C149  C     C_R   0.129205 0.871510 0.914875 0.136941
C150  C     C_R   0.625993 0.560601 0.593064 -0.109644
C151  C     C_R   0.872361 0.128935 0.086720 0.146283
C152  C     C_R   0.872965 0.871133 0.912887 0.139293
C153  C     C_R   0.101420 0.102235 0.124481 0.126093
C154  C     C_R   0.891539 0.108085 0.881368 0.135247
C155  C     C_R   0.127654 0.870417 0.085416 0.146424
C156  C     C_R   0.108207 0.105832 0.879812 0.122161
C157  C     C_R   0.898589 0.897873 0.124508 0.130791
C158  C     C_R   0.238627 0.311794 0.637844 0.512235
C159  C     C_R   0.760571 0.709444 0.400441 0.531409
C160  C     C_R   0.390570 0.666374 0.756924 0.520558
H1    H     H_    0.657184 0.468072 0.393374 0.115565
H2    H     H_    0.320805 0.443635 0.431109 0.113962
H3    H     H_    0.456550 0.665883 0.599976 0.114417
H4    H     H_    0.530838 0.343000 0.393984 0.114453
H5    H     H_    0.321036 0.445246 0.568391 0.117607
H6    H     H_    0.678909 0.555541 0.429750 0.113376
H7    H     H_    0.552562 0.321437 0.571124 0.113445
H8    H     H_    0.468946 0.657220 0.393885 0.113275
H9    H     H_    0.179015 0.945209 0.932025 0.117284
H10   H     H_    0.821087 0.055557 0.070221 0.113293
H11   H     H_    0.947420 0.821467 0.928460 0.113859
H12   H     H_    0.339388 0.533362 0.603032 0.115121
H13   H     H_    0.031026 0.157239 0.106148 0.113301
H14   H     H_    0.838914 0.034961 0.897289 0.116032
H15   H     H_    0.179193 0.943635 0.068924 0.114035
H16   H     H_    0.042972 0.165424 0.899592 0.112476
H17   H     H_    0.969129 0.843000 0.105971 0.114395
H18   H     H_    0.157054 0.031796 0.106260 0.115131
H19   H     H_    0.821443 0.944570 0.929538 0.111954
H20   H     H_    0.945741 0.179136 0.069681 0.118425
H21   H     H_    0.054951 0.820774 0.929905 0.109917
H22   H     H_    0.842775 0.968083 0.106599 0.115536
H23   H     H_    0.445896 0.320667 0.431204 0.118247
H24   H     H_    0.160358 0.033018 0.896821 0.115263
H25   H     H_    0.054092 0.820688 0.068835 0.118199
H26   H     H_    0.956928 0.167042 0.902643 0.105842
H27   H     H_    0.275739 0.392210 0.635227 0.194213
H28   H     H_    0.736714 0.633096 0.437082 0.183748
H29   H     H_    0.450526 0.657950 0.695242 0.180448
H30   H     H_    0.576742 0.300905 0.327880 0.192098
H31   H     H_    0.660247 0.548756 0.694823 0.181206
H32   H     H_    0.264330 0.362632 0.442951 0.182116
H33   H     H_    0.606172 0.273427 0.633223 0.194706
H34   H     H_    0.542451 0.666584 0.597827 0.106593
H35   H     H_    0.422556 0.699424 0.327524 0.192128
H36   H     H_    0.338759 0.544614 0.303731 0.181146
H37   H     H_    0.737341 0.370307 0.566116 0.180610
H38   H     H_    0.393583 0.279211 0.358814 0.196727
H39   H     H_    0.590580 0.708697 0.662022 0.186983
H40   H     H_    0.660372 0.455697 0.302892 0.180675
H41   H     H_    0.290463 0.590754 0.661852 0.194335
H42   H     H_    0.606706 0.721948 0.360003 0.197303
H43   H     H_    0.367801 0.262132 0.560325 0.180301
H44   H     H_    0.839440 0.955654 0.197059 0.180672
H45   H     H_    0.342923 0.531782 0.393755 0.115137
H46   H     H_    0.208603 0.088264 0.836887 0.193239
H47   H     H_    0.893202 0.222086 0.139919 0.197291
H48   H     H_    0.131645 0.761586 0.938859 0.179757
H49   H     H_    0.161038 0.044578 0.196330 0.181152
H50   H     H_    0.763043 0.869962 0.934532 0.181343
H51   H     H_    0.106374 0.779515 0.141500 0.196844
H52   H     H_    0.905071 0.210478 0.840718 0.198130
H53   H     H_    0.840333 0.049055 0.805494 0.181763
H54   H     H_    0.235596 0.862447 0.056978 0.182267
H55   H     H_    0.893621 0.774466 0.864653 0.195363
H56   H     H_    0.678617 0.444430 0.570144 0.111915
H57   H     H_    0.077487 0.199501 0.172508 0.192115
H58   H     H_    0.225659 0.892153 0.867046 0.193818
H59   H     H_    0.763287 0.133083 0.062790 0.183696
H60   H     H_    0.049939 0.159428 0.805222 0.142330
H61   H     H_    0.923219 0.800921 0.172008 0.192060
H62   H     H_    0.146887 0.416285 0.694922 0.400720
H63   H     H_    0.870604 0.663583 0.487161 0.397658
H64   H     H_    0.521584 0.674411 0.822936 0.406442
H65   H     H_    0.540479 0.179801 0.259287 0.398875
H66   H     H_    0.698341 0.472938 0.809986 0.399437
H67   H     H_    0.554235 0.679117 0.430304 0.118464
H68   H     H_    0.134002 0.321820 0.499833 0.408828
H69   H     H_    0.582284 0.141715 0.687840 0.402243
H70   H     H_    0.456859 0.821188 0.258475 0.399334
H71   H     H_    0.285954 0.469636 0.193282 0.398048
H72   H     H_    0.874605 0.343685 0.519192 0.401260
H73   H     H_    0.418754 0.157226 0.287540 0.398425
H74   H     H_    0.558365 0.833631 0.726599 0.406577
H75   H     H_    0.711213 0.530442 0.190759 0.399095
H76   H     H_    0.163549 0.563859 0.724701 0.398906
H77   H     H_    0.582473 0.845713 0.291558 0.399451
H78   H     H_    0.445186 0.320846 0.570365 0.110373
H79   H     H_    0.334285 0.127634 0.506827 0.404492
H80   H     H_    0.788387 0.030359 0.309184 0.399329
H81   H     H_    0.334212 0.058517 0.772706 0.398843
H82   H     H_    0.917338 0.346002 0.208263 0.399536
H83   H     H_    0.164374 0.626395 0.991607 0.404039
H84   H     H_    0.213586 0.969577 0.306837 0.398151
H85   H     H_    0.626578 0.843042 0.982548 0.400693
H86   H     H_    0.081163 0.657880 0.213180 0.398404
H87   H     H_    0.933033 0.337571 0.778485 0.407065
H88   H     H_    0.803894 0.973229 0.690198 0.399231
H89   H     H_    0.660246 0.534354 0.603542 0.115808
H90   H     H_    0.365760 0.821297 0.999985 0.408611
H91   H     H_    0.917130 0.644281 0.806682 0.402154
H92   H     H_    0.043286 0.321360 0.241557 0.399423
H93   H     H_    0.356385 0.916362 0.811074 0.399852
H94   H     H_    0.629428 0.163513 0.012575 0.397542
H95   H     H_    0.983309 0.183360 0.739668 0.342160
H96   H     H_    0.959480 0.679819 0.240492 0.398824
N1    N     N_R   0.592620 0.447430 0.448130 -0.048787
N2    N     N_R   0.407380 0.447430 0.448130 -0.046237
N3    N     N_R   0.447430 0.592620 0.551870 -0.046034
N4    N     N_R   0.552570 0.407380 0.448130 -0.048784
N5    N     N_R   0.407380 0.447430 0.551870 -0.045435
N6    N     N_R   0.592620 0.552570 0.448130 -0.047128
N7    N     N_R   0.552570 0.407380 0.551870 -0.046192
N8    N     N_R   0.447430 0.592620 0.448130 -0.047225
N9    N     N_R   0.092620 0.947430 0.948130 -0.045470
N10   N     N_R   0.907380 0.052570 0.051870 -0.047118
N11   N     N_R   0.947430 0.907380 0.948130 -0.046278
N12   N     N_R   0.407380 0.552570 0.551870 -0.046664
N13   N     N_R   0.052570 0.092620 0.051870 -0.047225
N14   N     N_R   0.907380 0.052570 0.948130 -0.047585
N15   N     N_R   0.092620 0.947430 0.051870 -0.046229
N16   N     N_R   0.052570 0.092620 0.948130 -0.045831
N17   N     N_R   0.947430 0.907380 0.051870 -0.048763
N18   N     N_R   0.092620 0.052570 0.051870 -0.047776
N19   N     N_R   0.907380 0.947430 0.948130 -0.047730
N20   N     N_R   0.947430 0.092620 0.051870 -0.045782
N21   N     N_R   0.052570 0.907380 0.948130 -0.046148
N22   N     N_R   0.907380 0.947430 0.051870 -0.048782
N23   N     N_R   0.447430 0.407380 0.448130 -0.045307
N24   N     N_R   0.092620 0.052570 0.948130 -0.046163
N25   N     N_R   0.052570 0.907380 0.051870 -0.045285
N26   N     N_R   0.947430 0.092620 0.948130 -0.045015
N27   N     N_R   0.552570 0.592620 0.551870 -0.045985
N28   N     N_R   0.407380 0.552570 0.448130 -0.047812
N29   N     N_R   0.592620 0.447430 0.551870 -0.047646
N30   N     N_R   0.552570 0.592620 0.448130 -0.045826
N31   N     N_R   0.447430 0.407380 0.551870 -0.046089
N32   N     N_R   0.592620 0.552570 0.551870 -0.047865
Ni1   Ni    Ni4+2 0.591800 0.500000 0.500000 0.232528
Ni2   Ni    Ni4+2 0.408200 0.500000 0.500000 0.233845
Ni3   Ni    Ni4+2 0.500000 0.408200 0.500000 0.228056
Ni4   Ni    Ni4+2 0.500000 0.591800 0.500000 0.240680
Ni5   Ni    Ni4+2 0.091800 0.000000 0.000000 0.233866
Ni6   Ni    Ni4+2 0.908200 0.000000 0.000000 0.232410
Ni7   Ni    Ni4+2 0.000000 0.908200 0.000000 0.227943
Ni8   Ni    Ni4+2 0.000000 0.091800 0.000000 0.240604
O1    O     O_2   0.129004 0.318626 0.643109 -0.190866
O2    O     O_2   0.575510 0.246027 0.179544 -0.193828
O3    O     O_2   0.648142 0.204210 0.233398 -0.252289
O4    O     O_3   0.550732 0.215956 0.274819 -0.503800
O5    O     O_2   0.762385 0.559485 0.781461 -0.194027
O6    O     O_2   0.697705 0.577478 0.853994 -0.226534
O7    O     O_3   0.675096 0.498007 0.788662 -0.509174
O8    O     O_2   0.139715 0.327949 0.391947 -0.193317
O9    O     O_2   0.146225 0.235659 0.431874 -0.217733
O10   O     O_3   0.173119 0.320968 0.488585 -0.520660
O11   O     O_2   0.682093 0.127356 0.639663 -0.192541
O12   O     O_2   0.179020 0.313082 0.726562 -0.265126
O13   O     O_2   0.682807 0.175513 0.724584 -0.258743
O14   O     O_3   0.592359 0.176794 0.670100 -0.508718
O15   O     O_2   0.422243 0.754238 0.179251 -0.193851
O16   O     O_2   0.349367 0.795885 0.233298 -0.258096
O17   O     O_3   0.446840 0.785070 0.274253 -0.503464
O18   O     O_2   0.230884 0.560829 0.225600 -0.197332
O19   O     O_2   0.289386 0.573218 0.147466 -0.224357
O20   O     O_3   0.312798 0.493345 0.212023 -0.509132
O21   O     O_2   0.856204 0.342464 0.624272 -0.192582
O22   O     O_2   0.863183 0.251331 0.581868 -0.210331
O23   O     O_3   0.180924 0.406259 0.675527 -0.503825
O24   O     O_3   0.834949 0.335703 0.524643 -0.508436
O25   O     O_2   0.328575 0.130759 0.347228 -0.194049
O26   O     O_2   0.311260 0.182836 0.266168 -0.262717
O27   O     O_3   0.408297 0.190112 0.308600 -0.502223
O28   O     O_2   0.583552 0.767759 0.808893 -0.187750
O29   O     O_2   0.662806 0.802188 0.758614 -0.257613
O30   O     O_3   0.567846 0.796904 0.711793 -0.496142
O31   O     O_2   0.767097 0.439964 0.223250 -0.195454
O32   O     O_2   0.708330 0.426389 0.145814 -0.225873
O33   O     O_3   0.684647 0.506725 0.209990 -0.507785
O34   O     O_2   0.859668 0.666327 0.381176 -0.194038
O35   O     O_2   0.231553 0.581640 0.807713 -0.197839
O36   O     O_2   0.198621 0.664794 0.762376 -0.262177
O37   O     O_3   0.200656 0.572136 0.710373 -0.506448
O38   O     O_2   0.673823 0.869365 0.350356 -0.193292
O39   O     O_2   0.689218 0.819310 0.267668 -0.258528
O40   O     O_3   0.592705 0.812242 0.311779 -0.502562
O41   O     O_2   0.336419 0.139029 0.613928 -0.196513
O42   O     O_2   0.245327 0.138908 0.572082 -0.220130
O43   O     O_3   0.330273 0.167359 0.515701 -0.518185
O44   O     O_2   0.732635 0.939803 0.276611 -0.195644
O45   O     O_2   0.857879 0.756548 0.425710 -0.227542
O46   O     O_2   0.791376 0.926326 0.354070 -0.225149
O47   O     O_3   0.814993 0.006667 0.289951 -0.507183
O48   O     O_2   0.266511 0.079980 0.690203 -0.197598
O49   O     O_2   0.301527 0.161130 0.737404 -0.261149
O50   O     O_3   0.297301 0.067276 0.787243 -0.506185
O51   O     O_2   0.825949 0.369505 0.149479 -0.193418
O52   O     O_2   0.810628 0.319520 0.232174 -0.258257
O53   O     O_3   0.907138 0.312501 0.188043 -0.502485
O54   O     O_2   0.162167 0.639476 0.884819 -0.196947
O55   O     O_2   0.253436 0.637458 0.926296 -0.221372
O56   O     O_3   0.830993 0.669142 0.479457 -0.513460
O57   O     O_3   0.169108 0.666193 0.983409 -0.517232
O58   O     O_2   0.268847 0.060683 0.274626 -0.197444
O59   O     O_2   0.210221 0.073175 0.352673 -0.223584
O60   O     O_3   0.186827 0.993313 0.288029 -0.508759
O61   O     O_2   0.643123 0.841646 0.877184 -0.192836
O62   O     O_2   0.637666 0.750596 0.919874 -0.227706
O63   O     O_3   0.666200 0.835383 0.976467 -0.508364
O64   O     O_2   0.171073 0.631026 0.153285 -0.193832
O65   O     O_2   0.188805 0.683259 0.234215 -0.262650
O66   O     O_3   0.091644 0.690704 0.192074 -0.502123
O67   O     O_2   0.444798 0.758087 0.784289 -0.161949
O68   O     O_2   0.914671 0.270246 0.695425 -0.163863
O69   O     O_2   0.831687 0.302687 0.741318 -0.255161
O70   O     O_3   0.923950 0.300627 0.792993 -0.510911
O71   O     O_2   0.738217 0.059176 0.717142 -0.195498
O72   O     O_2   0.804665 0.077721 0.646243 -0.220592
O73   O     O_3   0.826270 0.998534 0.712127 -0.508205
O74   O     O_2   0.360294 0.827662 0.107867 -0.193419
O75   O     O_2   0.353499 0.735295 0.068069 -0.219940
O76   O     O_3   0.326661 0.820529 0.011301 -0.521055
O77   O     O_2   0.819218 0.628324 0.857747 -0.192303
O78   O     O_2   0.422116 0.693267 0.855484 -0.232337
O79   O     O_2   0.814940 0.676846 0.773160 -0.258942
O80   O     O_3   0.907163 0.679176 0.824833 -0.508722
O81   O     O_2   0.077672 0.254386 0.320789 -0.192789
O82   O     O_2   0.150706 0.295898 0.266881 -0.258406
O83   O     O_3   0.053289 0.285228 0.225766 -0.503485
O84   O     O_2   0.372217 0.816708 0.860192 -0.194739
O85   O     O_2   0.323032 0.814816 0.776137 -0.264367
O86   O     O_3   0.322099 0.906276 0.830026 -0.504033
O87   O     O_2   0.640290 0.166316 0.118576 -0.194108
O88   O     O_2   0.642050 0.256508 0.074068 -0.227997
O89   O     O_3   0.500730 0.666821 0.790310 -0.525692
O90   O     O_3   0.669032 0.169082 0.020314 -0.513410
O91   O     O_2   0.055461 0.259933 0.718998 -0.186002
O92   O     O_2   0.079503 0.199234 0.645264 -0.179083
O93   O     O_3   0.999903 0.168979 0.706801 -0.460805
O94   O     O_2   0.924405 0.746049 0.320268 -0.193515
O95   O     O_2   0.851795 0.704183 0.266390 -0.252429
O96   O     O_3   0.949198 0.715959 0.224975 -0.503827
S1    S     S_3+6 0.179887 0.336734 0.671915 0.027531
S2    S     S_3+6 0.831430 0.304733 0.583763 0.048458
S3    S     S_3+6 0.339972 0.183850 0.318441 0.028866
S4    S     S_3+6 0.610908 0.768359 0.755828 0.039048
S5    S     S_3+6 0.709016 0.441952 0.203038 0.042419
S6    S     S_3+6 0.230869 0.612051 0.756196 0.023880
S7    S     S_3+6 0.661245 0.817256 0.320449 0.029080
S8    S     S_3+6 0.299886 0.168200 0.575237 0.041634
S9    S     S_3+6 0.790702 0.941867 0.296855 0.042918
S10   S     S_3+6 0.268013 0.109062 0.742417 0.023966
S11   S     S_3+6 0.838591 0.317439 0.179387 0.029234
S12   S     S_3+6 0.829740 0.701354 0.420864 0.038421
S13   S     S_3+6 0.199265 0.667541 0.923778 0.041607
S14   S     S_3+6 0.210832 0.058164 0.295311 0.041622
S15   S     S_3+6 0.668930 0.804256 0.917357 0.042670
S16   S     S_3+6 0.159919 0.684223 0.182030 0.028985
S17   S     S_3+6 0.884324 0.270462 0.747014 0.027660
S18   S     S_3+6 0.798339 0.061506 0.702995 0.045292
S19   S     S_3+6 0.327387 0.791623 0.071463 0.041909
S20   S     S_3+6 0.837895 0.678669 0.827955 0.027562
S21   S     S_3+6 0.101168 0.258547 0.266196 0.027997
S22   S     S_3+6 0.321965 0.836658 0.831477 0.026567
S23   S     S_3+6 0.439355 0.698073 0.798830 0.057733
S24   S     S_3+6 0.670221 0.201333 0.078917 0.038273
S25   S     S_3+6 0.061425 0.200698 0.701812 0.082264
S26   S     S_3+6 0.901005 0.741972 0.265779 0.030003
S27   S     S_3+6 0.598911 0.241976 0.234031 0.029932
S28   S     S_3+6 0.702649 0.561257 0.797108 0.042229
S29   S     S_3+6 0.172464 0.291920 0.428461 0.043179
S30   S     S_3+6 0.661690 0.177280 0.669117 0.027192
S31   S     S_3+6 0.398850 0.758454 0.233883 0.027688
S32   S     S_3+6 0.288859 0.558226 0.204819 0.041177

loop_
_geom_bond_atom_site_label_1
_geom_bond_atom_site_label_2
_ccdc_geom_bond_type
C17   S9    S    
O79   S20   D    
C130  C146  S    
C51   C123  A    
C12   C91   A    
H73   O27   S    
O30   S4    S    
C55   H48   S    
C82   H21   S    
N11   N19   A    
C150  N32   A    
C15   S7    S    
C37   C160  A    
C67   H60   S    
C36   C124  A    
C77   C156  A    
O43   S8    S    
C10   S3    S    
C44   C130  A    
H72   O24   S    
C84   N23   A    
O80   S20   S    
O90   S24   S    
N8    Ni4   S    
H80   O47   S    
C7    S31   S    
C22   S15   S    
C14   C90   A    
O76   S19   S    
C41   H33   S    
C26   C104  A    
C23   C103  A    
O26   S3    D    
C38   H30   S    
O45   S12   D    
C25   C60   A    
C88   C158  A    
C85   H24   S    
O69   S17   D    
C33   C69   A    
O29   S4    D    
C33   S26   S    
C29   C64   A    
N28   Ni2   S    
C95   C144  A    
O81   S21   D    
H66   O7    S    
C62   H54   S    
O78   S23   D    
C24   H4    S    
C17   C52   A    
C13   H3    S    
C87   H26   S    
H79   O43   S    
C73   C142  A    
C50   H42   S    
O49   S10   D    
C124  C147  S    
C52   C132  A    
C53   C133  A    
C99   C116  S    
C19   C99   A    
C21   S14   S    
O94   S26   D    
C117  C146  A    
C36   H28   S    
C101  C119  S    
C23   S16   S    
C6    S30   S    
C66   H59   S    
N19   Ni6   S    
C39   H31   S    
H86   O66   S    
N21   Ni7   S    
C24   C141  A    
O40   S7    S    
N5    Ni2   S    
C71   H10   S    
C13   C142  A    
H65   O4    S    
C65   C135  A    
C129  C143  S    
C56   C136  A    
C79   N18   A    
C95   N27   A    
O95   S26   D    
O31   S5    D    
C103  C121  S    
O89   S23   S    
H62   O23   S    
C126  C141  S    
O75   S19   D    
N27   N32   A    
N7    Ni3   S    
C76   H15   S    
N17   N22   A    
C81   H20   S    
C22   C58   A    
O67   S23   D    
C83   C157  A    
C128  C147  A    
N27   Ni4   S    
C24   N4    A    
C76   C155  A    
C31   S24   S    
C43   C131  A    
C56   H49   S    
O50   S10   S    
C136  C153  S    
C134  C151  S    
C32   C98   A    
C33   C97   A    
H82   O53   S    
C42   H35   S    
C36   C159  A    
H70   O17   S    
C28   C63   A    
C83   H22   S    
C86   H25   S    
O48   S10   D    
C29   S21   S    
H69   O14   S    
N5    N31   A    
C54   C134  A    
C40   C129  A    
C64   C136  A    
N7    N29   A    
C78   H17   S    
C16   C51   A    
C160  S23   S    
C2    H2    S    
N1    Ni1   S    
O96   S26   S    
O54   S13   D    
C23   C59   A    
O20   S32   S    
C64   H57   S    
O35   S6    D    
N18   Ni5   S    
N20   Ni8   S    
C26   S18   S    
C15   C89   A    
O91   S25   D    
N22   Ni6   S    
C76   N15   A    
C30   C100  A    
C111  C119  T    
O37   S6    S    
C144  C150  A    
N3    N12   A    
C66   C134  A    
H71   O20   S    
C18   S10   S    
O84   S22   D    
C42   C131  A    
O55   S13   D    
C106  N28   A    
C109  C116  T    
N16   N24   A    
C75   H14   S    
C63   C137  A    
C47   H39   S    
C61   H53   S    
C70   H9    S    
C10   C45   A    
C159  S12   S    
C38   C126  A    
C59   H51   S    
C89   C159  A    
O86   S22   S    
C49   H41   S    
C139  C148  A    
C79   H18   S    
O66   S16   S    
C80   H19   S    
C50   C124  A    
C28   S20   S    
O2    S27   D    
C59   C138  A    
C6    C94   A    
C81   C151  A    
O22   S2    D    
H77   O40   S    
C27   C62   A    
C79   C153  A    
O77   S20   D    
N9    Ni5   S    
C53   H46   S    
N14   N26   A    
C73   H12   S    
N11   Ni7   S    
C60   C140  A    
C32   C67   A    
O7    S28   S    
C68   H8    S    
C19   C54   A    
C16   S8    S    
H75   O33   S    
C71   N10   A    
H91   O80   S    
C117  N29   A    
H81   O50   S    
C68   N8    A    
C71   C151  A    
O88   S24   D    
O58   S14   D    
C8    S32   S    
N6    N30   A    
C105  C115  T    
H64   O89   S    
O93   S25   S    
C4    S28   S    
C25   C104  A    
C47   C127  A    
C75   N14   A    
O63   S15   S    
C77   H16   S    
N6    Ni1   S    
N30   Ni4   S    
N1    N4    A    
O64   S16   D    
C13   N3    A    
C87   N26   A    
C90   C108  S    
O38   S7    D    
N25   Ni7   S    
C88   C105  S    
C92   C110  S    
C98   C115  S    
N3    Ni4   S    
C94   C112  S    
C131  C145  S    
C35   C148  A    
C34   H27   S    
O71   S18   D    
C30   C65   A    
O19   S32   D    
C48   C126  A    
O25   S3    D    
C113  C121  T    
C95   H34   S    
O11   S30   D    
O6    S28   D    
C69   H61   S    
C97   C114  S    
C17   C97   A    
C9    C94   A    
O3    S27   D    
O52   S11   D    
O36   S6    D    
C138  C155  S    
C11   S4    S    
C45   C129  A    
C133  C156  S    
C9    S2    S    
C11   C47   A    
C8    C43   A    
C12   C48   A    
H68   O10   S    
C32   S25   S    
O51   S11   D    
O44   S9    D    
C7    C96   A    
C106  C145  A    
C48   H40   S    
C26   C61   A    
C41   C130  A    
N15   N25   A    
C3    C91   A    
N17   Ni7   S    
C30   S22   S    
O92   S25   D    
N15   Ni5   S    
C18   C53   A    
O39   S7    D    
O8    S29   D    
N10   N20   A    
H76   O37   S    
C72   C152  A    
C137  C152  S    
C31   C99   A    
H63   O56   S    
O62   S15   D    
H74   O30   S    
N2    Ni2   S    
C1    H1    S    
O72   S18   D    
C57   C146  A    
C139  H78   S    
O23   S1    S    
C70   C149  A    
C51   H43   S    
C1    N1    A    
C72   H11   S    
O42   S8    D    
O85   S22   D    
O24   S2    S    
O83   S21   S    
C10   C93   A    
O60   S14   S    
O61   S15   D    
C80   N19   A    
C52   H44   S    
C85   C156  A    
C86   C155  A    
C7    C42   A    
C107  C114  T    
O9    S29   D    
C46   C147  A    
C20   C100  A    
C89   C107  S    
O10   S29   S    
O12   S1    D    
C87   C154  A    
C139  N31   A    
N14   Ni6   S    
C61   C140  A    
C62   C138  A    
C93   C111  S    
N13   N18   A    
C5    S29   S    
N8    N28   A    
C96   C113  S    
O28   S4    D    
C100  C118  S    
O46   S9    D    
C102  C120  S    
C20   S13   S    
C57   N7    A    
C46   H6    S    
O5    S28   D    
C21   C56   A    
H90   O76   S    
C57   H7    S    
C49   C125  A    
N10   Ni6   S    
C35   N5    A    
N9    N21   A    
O16   S31   D    
C27   C103  A    
C127  C144  S    
C90   C160  A    
H93   O86   S    
C1    C141  A    
H95   O93   S    
O13   S30   D    
C104  C122  S    
C5    C40   A    
C16   C88   A    
O57   S13   S    
C63   H55   S    
C68   C145  A    
C4    C92   A    
C31   C66   A    
C37   H29   S    
C34   C123  A    
C73   N12   A    
N29   Ni1   S    
C8    C96   A    
O15   S31   D    
O73   S18   S    
C83   N22   A    
N26   Ni8   S    
C106  H45   S    
C158  S1    S    
O33   S5    S    
O34   S12   D    
C67   C133  A    
C128  H67   S    
C65   H58   S    
O21   S2    D    
C14   C49   A    
C15   C50   A    
N13   Ni8   S    
C11   C92   A    
C86   N25   A    
O41   S8    D    
C3    C38   A    
C6    C41   A    
C40   H32   S    
H87   O70   S    
O53   S11   S    
O4    S27   S    
O27   S3    S    
O1    S1    D    
C21   C101  A    
N4    Ni3   S    
C44   H37   S    
C2    C143  A    
O14   S30   S    
C20   C55   A    
C74   N13   A    
C37   C125  A    
H88   O73   S    
C58   H50   S    
O32   S5    D    
O56   S12   S    
O59   S14   D    
C77   N16   A    
C39   C127  A    
O68   S17   D    
C29   C101  A    
C82   C149  A    
C108  C118  T    
C74   H13   S    
C110  C120  T    
C84   C143  A    
C45   H38   S    
C135  C149  S    
H85   O63   S    
C72   N11   A    
C74   C153  A    
C43   H36   S    
C117  H56   S    
C14   S6    S    
C112  C122  T    
C60   H52   S    
C78   C157  A    
C4    C39   A    
C125  C142  S    
N24   Ni5   S    
C85   N24   A    
C75   C154  A    
C123  C148  S    
C9    C44   A    
H84   O60   S    
C34   C158  A    
C58   C137  A    
C2    N2    A    
N16   Ni8   S    
H92   O83   S    
N23   Ni3   S    
C150  H89   S    
N31   Ni3   S    
C82   N21   A    
N12   Ni2   S    
O74   S19   D    
O18   S32   D    
C12   S5    S    
C70   N9    A    
C80   C152  A    
O65   S16   D    
C132  C157  S    
O47   S9    S    
C84   H23   S    
C5    C93   A    
H83   O57   S    
O17   S31   S    
C46   N6    A    
C22   C102  A    
C3    S27   S    
N32   Ni1   S    
C91   C109  S    
C128  N30   A    
O70   S17   S    
C81   N20   A    
C69   C132  A    
C55   C135  A    
C35   H5    S    
O82   S21   D    
H96   O96   S    
C27   S19   S    
H94   O90   S    
C25   S17   S    
C28   C102  A    
C54   H47   S    
N2    N23   A    
C18   C98   A    
C78   N17   A    
O87   S24   D    
C19   S11   S    
C140  C154  S    
