data_mof_unit_46069.cif
_audit_creation_date              2012-12-10T17:35:39-0500
_audit_creation_method            fapswitch 2.2
_symmetry_space_group_name_H-M    P1
_symmetry_Int_Tables_number       1
_space_group_crystal_system       triclinic
_cell_length_a                    10.773972
_cell_length_b                    12.413275
_cell_length_c                    13.232755
_cell_angle_alpha                 117.375376
_cell_angle_beta                  75.839733
_cell_angle_gamma                 102.308079
_cell_volume                      1513.35849261

loop_
_atom_site_label
_atom_site_type_symbol
_atom_type_description
_atom_site_fract_x
_atom_site_fract_y
_atom_site_fract_z
_atom_type_partial_charge
C1    C     C_R   0.506578 0.854916 0.287051 0.891921
C2    C     C_3   0.121133 0.001647 0.504486 -0.061607
C3    C     C_3   0.039689 0.033518 0.628056 0.061666
C4    C     C_3   0.066201 0.876224 0.416752 -0.456876
C5    C     C_R   0.309449 0.274719 0.021344 -0.157064
C6    C     C_R   0.448676 0.229988 0.836194 -0.126843
C7    C     C_R   0.550699 0.817931 0.081366 -0.229317
C8    C     C_R   0.548188 0.742484 0.965035 -0.153202
C9    C     C_R   0.504078 0.618864 0.929163 0.663658
C10   C     C_R   0.462588 0.568994 0.010498 -0.015538
C11   C     C_R   0.438648 0.650360 0.128829 0.021777
C12   C     C_R   0.739920 0.001341 0.500634 0.965842
C13   C     C_R   0.434950 0.441570 0.977968 0.024969
C14   C     C_R   0.349042 0.399844 0.055871 0.109422
C15   C     C_R   0.305239 0.483751 0.167700 -0.188168
C16   C     C_R   0.352391 0.606921 0.205019 -0.144533
C17   C     C_R   0.496515 0.354593 0.874140 0.292573
C18   C     C_R   0.355320 0.190749 0.910541 -0.200844
C19   C     C_R   0.496990 0.773357 0.164908 -0.117224
C20   C     C_R   0.702806 0.344289 0.323872 -0.252198
C21   C     C_R   0.329402 0.762251 0.651132 -0.019448
C22   C     C_R   0.291540 0.667063 0.684319 0.601720
C23   C     C_R   0.480670 0.145701 0.713923 0.861963
C24   C     C_R   0.354232 0.562187 0.626385 -0.169213
C25   C     C_R   0.457566 0.551371 0.534745 -0.146405
C26   C     C_R   0.493235 0.651399 0.502409 0.105738
C27   C     C_R   0.527781 0.445733 0.474864 0.022522
C28   C     C_R   0.630915 0.442679 0.384494 -0.000514
C29   C     C_R   0.664121 0.538044 0.353901 -0.269424
C30   C     C_R   0.599383 0.639526 0.410313 0.617982
C31   C     C_R   0.502031 0.342196 0.499654 0.072266
C32   C     C_R   0.673759 0.246529 0.351444 0.461607
C33   C     C_R   0.259683 0.001134 0.502671 0.798958
C34   C     C_3   0.966190 0.106309 0.471043 0.158941
C35   C     C_3   0.107925 0.100406 0.467497 -0.454085
C36   C     C_3   0.895056 0.018707 0.622568 0.019095
C37   C     C_3   0.925250 0.879397 0.411636 0.412339
C38   C     C_3   0.878037 0.004470 0.503028 -0.186074
Cu1   Cu    Cu3+1 0.529690 0.098270 0.475420 1.042991
Cu2   Cu    Cu3+1 0.470310 0.901730 0.524580 1.017586
H1    H     H_    0.069947 0.803366 0.442353 0.184817
H2    H     H_    0.847459 0.933344 0.630345 0.169600
H3    H     H_    0.317088 0.095325 0.882707 0.195442
H4    H     H_    0.237800 0.453611 0.227767 0.152248
H5    H     H_    0.240753 0.242178 0.079077 0.168454
H6    H     H_    0.591960 0.912178 0.105953 0.219507
H7    H     H_    0.581969 0.779759 0.902187 0.187194
H8    H     H_    0.955399 0.088643 0.383178 0.215310
H9    H     H_    0.313976 0.667618 0.291956 0.160477
H10   H     H_    0.744093 0.535039 0.284595 0.202625
H11   H     H_    0.781821 0.343111 0.254551 0.179653
H12   H     H_    0.424875 0.335763 0.566725 0.141889
H13   H     H_    0.282384 0.844160 0.698632 0.195638
H14   H     H_    0.321028 0.491381 0.655724 0.192782
H15   H     H_    0.161510 0.079116 0.378262 0.195725
H16   H     H_    0.152641 0.191118 0.525004 0.212485
H17   H     H_    0.070850 0.130114 0.684822 0.189258
H18   H     H_    0.864901 0.803415 0.429385 0.148135
H19   H     H_    0.126263 0.852512 0.329579 0.211069
N1    N     N_R   0.574690 0.246280 0.438200 -0.215119
N2    N     N_R   0.426100 0.754320 0.561190 -0.239667
O1    O     O_R   0.537340 0.972510 0.318130 -0.567636
O2    O     O_R   0.487200 0.806530 0.359650 -0.527025
O3    O     O_R   0.707380 0.082980 0.479220 -0.515399
O4    O     O_R   0.657240 0.917000 0.520740 -0.543106
O5    O     O_R   0.512800 0.193470 0.640350 -0.543144
O6    O     O_R   0.462660 0.027490 0.681870 -0.589398
O7    O     O_R   0.342760 0.083000 0.479260 -0.619154
O8    O     O_R   0.292620 0.917020 0.520780 -0.570504
Br1   Br    Br    0.925090 0.273712 0.569166 -0.358478
Br2   Br    Br    0.061770 0.937707 0.703981 -0.487285
Br3   Br    Br    0.666289 0.399046 0.802210 -0.278938
F1    F     F_    0.491295 0.550968 0.816634 -0.662905
Br4   Br    Br    0.777177 0.115119 0.261270 -0.446927
F2    F     F_    0.194014 0.676997 0.774036 -0.599833
F3    F     F_    0.650655 0.722078 0.369172 -0.634258
Br5   Br    Br    0.807495 0.145441 0.758304 -0.395917
F4    F     F_    0.915034 0.858597 0.301445 -0.604576

loop_
_geom_bond_atom_site_label_1
_geom_bond_atom_site_label_2
_ccdc_geom_bond_type
C2    C35   S    
Cu1   O7    S    
C36   H2    S    
C31   H12   S    
C1    O1    A    
C7    C8    A    
Cu1   O3    S    
C11   C19   A    
C29   C30   A    
Cu2   O2    S    
C23   O5    A    
C28   C29   A    
C26   N2    A    
C15   H4    S    
C20   H11   S    
C36   Br5   S    
C32   Br4   S    
C12   O3    A    
C4    H1    S    
C6    C23   S    
C24   H14   S    
C15   C16   A    
C34   C35   S    
C23   O6    A    
Cu1   O1    S    
C8    C9    A    
Cu2   O6    S    
C9    C10   A    
C34   Br1   S    
C21   N2    A    
C37   H18   S    
C33   O8    A    
C13   C14   A    
C9    F1    S    
C22   F2    S    
C1    O2    A    
C29   H10   S    
C6    C18   A    
C1    C19   S    
Cu2   O8    S    
C27   C31   A    
C7    H6    S    
C16   H9    S    
Cu1   Cu2   S    
C5    C18   A    
C20   C28   A    
C25   C26   A    
C5    H5    S    
C35   H15   S    
Cu2   N2    S    
C31   N1    A    
C3    Br2   S    
C37   C38   S    
C30   F3    S    
C11   C16   A    
C2    C4    S    
C24   C25   A    
C5    C14   A    
C3    H17   S    
C2    C33   S    
C26   C30   A    
C7    C19   A    
Cu2   O4    S    
Cu1   O5    S    
C22   C24   A    
C34   H8    S    
C32   N1    A    
C20   C32   A    
C6    C17   A    
C35   H16   S    
C34   C38   S    
C10   C13   A    
C25   C27   A    
C12   O4    A    
C13   C17   A    
C36   C38   S    
C2    C3    S    
C8    H7    S    
C18   H3    S    
C21   H13   S    
C3    C36   S    
Cu1   N1    S    
C4    H19   S    
C12   C38   S    
C10   C11   A    
C4    C37   S    
C17   Br3   S    
C27   C28   A    
C14   C15   A    
C21   C22   A    
C37   F4    S    
C33   O7    A    
