data_mof_unit_38219.cif
_audit_creation_date              2012-12-10T18:20:32-0500
_audit_creation_method            fapswitch 2.2
_symmetry_space_group_name_H-M    P1
_symmetry_Int_Tables_number       1
_space_group_crystal_system       triclinic
_cell_length_a                    14.011375
_cell_length_b                    13.624361
_cell_length_c                    14.976127
_cell_angle_alpha                 89.171027
_cell_angle_beta                  89.872196
_cell_angle_gamma                 83.046277
_cell_volume                      2837.55665221

loop_
_atom_site_label
_atom_site_type_symbol
_atom_type_description
_atom_site_fract_x
_atom_site_fract_y
_atom_site_fract_z
_atom_type_partial_charge
C1    C     C_R   0.499059 0.510395 0.326687 0.989234
C2    C     C_R   0.500175 0.496724 0.673709 1.019695
C3    C     C_R   0.493228 0.486229 0.955313 -0.027090
C4    C     C_R   0.494193 0.497039 0.048031 -0.032416
C5    C     C_R   0.576479 0.443833 0.910677 -0.028517
C6    C     C_R   0.408918 0.535924 0.092219 -0.055286
C7    C     C_R   0.321250 0.540445 0.952109 0.386541
C8    C     C_R   0.662270 0.423752 0.051929 0.370034
C9    C     C_R   0.322034 0.548658 0.044493 -0.165834
C10   C     C_R   0.659959 0.412824 0.959882 -0.170651
C11   C     C_R   0.807646 0.418842 0.531399 0.043870
C12   C     C_R   0.192224 0.581388 0.469284 0.087461
C13   C     C_R   0.788885 0.581030 0.468352 0.046027
C14   C     C_R   0.211118 0.419234 0.532290 -0.001415
C15   C     C_R   0.889218 0.582957 0.467598 0.005545
C16   C     C_R   0.110743 0.417291 0.533111 0.016849
C17   C     C_R   0.949393 0.500052 0.500222 0.093221
C18   C     C_R   0.050539 0.500151 0.500435 0.095211
C19   C     C_R   0.908477 0.417034 0.532577 0.000976
C20   C     C_R   0.091425 0.583203 0.468168 0.003674
C21   C     C_R   0.930588 0.665484 0.435212 -0.133315
C22   C     C_R   0.069351 0.334796 0.565568 -0.151398
C23   C     C_R   0.517052 0.314173 0.497961 0.920878
C24   C     C_R   0.482902 0.685899 0.499628 0.985149
C25   C     C_R   0.030844 0.665646 0.435581 -0.131720
C26   C     C_R   0.969080 0.334639 0.565237 -0.126010
C27   C     C_1   0.469801 0.789640 0.498712 -0.082627
C28   C     C_1   0.530046 0.210449 0.495949 -0.111879
C29   C     C_2   0.458380 0.981262 0.496942 -0.144918
C30   C     C_2   0.541244 0.018899 0.493457 -0.133775
C31   C     C_1   0.538530 0.122713 0.494500 0.047202
C32   C     C_1   0.461196 0.877413 0.497874 0.048011
C33   C     C_R   0.572634 0.431901 0.818002 0.316427
C34   C     C_R   0.411715 0.555011 0.183781 0.393463
C35   C     C_R   0.498842 0.490586 0.770339 -0.376693
C36   C     C_R   0.498294 0.526339 0.230190 -0.350309
C37   C     C_R   0.420604 0.542444 0.815869 0.331076
C38   C     C_R   0.585187 0.507140 0.183169 0.334703
C39   C     C_R   0.409790 0.521839 0.906733 -0.093448
C40   C     C_R   0.581619 0.474936 0.095253 -0.102896
H1    H     H_    0.610040 0.972559 0.490753 0.172403
H2    H     H_    0.389596 0.027588 0.499953 0.167880
H3    H     H_    0.253826 0.561744 0.078827 0.231152
H4    H     H_    0.725192 0.381264 0.927388 0.230787
H5    H     H_    0.774946 0.355519 0.555531 0.186457
H6    H     H_    0.224748 0.644856 0.445497 0.153321
H7    H     H_    0.741771 0.644041 0.443142 0.173940
H8    H     H_    0.258271 0.356337 0.557707 0.140834
H9    H     H_    0.885431 0.729910 0.409702 0.166230
H10   H     H_    0.114501 0.270362 0.591067 0.158703
H11   H     H_    0.060986 0.730153 0.410293 0.162689
H12   H     H_    0.938956 0.270134 0.590550 0.173968
N1    N     N_R   0.750030 0.500040 0.500070 -0.116476
N2    N     N_R   0.249970 0.499960 0.499930 -0.106980
O1    O     O_R   0.580280 0.500020 0.367860 -0.563928
O2    O     O_R   0.419720 0.499980 0.632140 -0.576282
O3    O     O_R   0.419730 0.500030 0.367840 -0.567267
O4    O     O_R   0.580270 0.499970 0.632160 -0.566513
O5    O     O_R   0.591830 0.359650 0.500030 -0.581367
O6    O     O_R   0.408170 0.640350 0.499970 -0.583292
O7    O     O_R   0.431280 0.359660 0.500010 -0.651803
O8    O     O_R   0.568720 0.640340 0.499990 -0.640675
Zn1   Zn    Zn3+2 0.607200 0.499990 0.500020 1.066301
Zn2   Zn    Zn3+2 0.392800 0.500010 0.499980 1.053725
S1    S     S_3+6 0.653953 0.339815 0.764633 0.039792
O9    O     O_2   0.740787 0.385483 0.733587 -0.274779
O10   O     O_2   0.685569 0.255190 0.827602 -0.251212
O11   O     O_3   0.601380 0.293386 0.676991 -0.557744
H13   H     H_    0.544552 0.266024 0.702152 0.340832
S2    S     S_3+6 0.316227 0.633416 0.234976 0.022120
O12   O     O_2   0.271204 0.709022 0.168608 -0.285435
O13   O     O_2   0.241267 0.571644 0.268083 -0.294071
O14   O     O_3   0.358298 0.694246 0.320433 -0.584047
H14   H     H_    0.305941 0.747147 0.334996 0.372561
S3    S     S_3+6 0.360423 0.654583 0.768977 0.098169
O15   O     O_2   0.277493 0.633335 0.711900 -0.171569
O16   O     O_2   0.323886 0.724662 0.841410 -0.248279
O17   O     O_3   0.437350 0.710137 0.704945 -0.576650
H15   H     H_    0.490767 0.721063 0.745407 0.351175
S4    S     S_3+6 0.682999 0.571137 0.216269 0.099731
O18   O     O_2   0.752438 0.505680 0.273812 -0.176618
O19   O     O_2   0.735196 0.604639 0.135697 -0.256223
O20   O     O_3   0.640929 0.671244 0.275459 -0.554647
H16   H     H_    0.596231 0.711812 0.234544 0.365877
S5    S     S_3+6 0.208966 0.532173 0.899842 0.108553
O21   O     O_2   0.223143 0.475629 0.814447 -0.235501
O22   O     O_2   0.146781 0.478833 0.961143 -0.263833
O23   O     O_3   0.152005 0.645720 0.877963 -0.426248
H17   H     H_    0.145040 0.678183 0.936773 0.370631
S6    S     S_3+6 0.759003 0.354373 0.109879 0.114660
O24   O     O_2   0.727609 0.325496 0.201597 -0.233946
O25   O     O_2   0.791677 0.261623 0.059530 -0.242243
O26   O     O_3   0.852334 0.420483 0.118138 -0.419445
H18   H     H_    0.868597 0.436863 0.055707 0.369530

loop_
_geom_bond_atom_site_label_1
_geom_bond_atom_site_label_2
_ccdc_geom_bond_type
C2    C35   S    
O26   H18   S    
C29   H2    S    
O14   H14   S    
C24   C27   S    
C6    C9    A    
C21   H9    S    
C33   S1    S    
S5    O21   D    
C23   O5    A    
C11   C19   A    
O8    Zn1   S    
C38   S4    S    
S6    O26   S    
C35   C37   A    
C29   C32   S    
C1    O3    A    
C30   C31   S    
C20   C25   A    
C7    C9    A    
C19   C26   A    
C33   C35   A    
C4    C40   A    
O11   H13   S    
S1    O10   D    
C5    C33   A    
C16   C22   A    
O2    Zn2   S    
C30   H1    S    
S2    O12   D    
C34   S2    S    
C34   C36   A    
C11   N1    A    
C22   H10   S    
C37   S3    S    
C3    C39   A    
S4    O20   S    
C13   N1    A    
S5    O22   D    
C9    H3    S    
C10   H4    S    
C12   H6    S    
C13   H7    S    
O17   H15   S    
C14   H8    S    
C6    C34   A    
O1    Zn1   S    
O7    Zn2   S    
S3    O15   D    
C25   H11   S    
C29   C30   D    
C26   H12   S    
S6    O25   D    
O20   H16   S    
C15   C21   A    
C24   O6    A    
S1    O11   S    
C12   C20   A    
S2    O14   S    
C17   C18   A    
C16   C18   A    
C23   C28   S    
S3    O16   D    
C4    C6    A    
C14   N2    A    
C13   C15   A    
C14   C16   A    
C11   H5    S    
C8    S6    S    
C3    C4    A    
O3    Zn2   S    
S5    O23   S    
O4    Zn1   S    
C15   C17   A    
C21   C25   A    
C24   O8    A    
C27   C32   T    
C28   C31   T    
S4    O18   D    
C3    C5    A    
C2    O4    A    
O5    Zn1   S    
O6    Zn2   S    
C36   C38   A    
C1    O1    A    
C5    C10   A    
C37   C39   A    
C2    O2    A    
C38   C40   A    
N1    Zn1   S    
S6    O24   D    
C7    S5    S    
N2    Zn2   S    
C17   C19   A    
S4    O19   D    
C18   C20   A    
S3    O17   S    
C23   O7    A    
O23   H17   S    
C8    C10   A    
S1    O9    D    
C22   C26   A    
C7    C39   A    
S2    O13   D    
C8    C40   A    
C12   N2    A    
C1    C36   S    
