data_mof_unit_49236.cif
_audit_creation_date              2013-03-05T16:41:25-0500
_audit_creation_method            fapswitch 2.2
_symmetry_space_group_name_H-M    P1
_symmetry_Int_Tables_number       1
_space_group_crystal_system       triclinic
_cell_length_a                    10.9779
_cell_length_b                    10.695253
_cell_length_c                    9.934883
_cell_angle_alpha                 88.678656
_cell_angle_beta                  101.716656
_cell_angle_gamma                 93.519406
_cell_volume                      1139.94292085

loop_
_atom_site_label
_atom_site_type_symbol
_atom_site_description
_atom_site_fract_x
_atom_site_fract_y
_atom_site_fract_z
_atom_type_partial_charge
O1    O     O_R   0.500020 0.316790 0.614700 -0.567222
O2    O     O_R   0.500000 0.316760 0.385350 -0.612194
C1    C     C_R   0.515220 0.262312 0.504130 0.960453
O3    O     O_R   0.317820 0.500020 0.571850 -0.623661
O4    O     O_R   0.317800 0.499980 0.342510 -0.568386
C2    C     C_R   0.261662 0.503750 0.445240 0.895435
Zn1   Zn    Zn3+2 0.500010 0.500020 0.653140 1.085527
Zn2   Zn    Zn3+2 0.499990 0.499980 0.346860 1.081554
O5    O     O_R   0.500000 0.683240 0.614650 -0.573248
O6    O     O_R   0.499980 0.683210 0.385300 -0.635837
O7    O     O_R   0.682200 0.500020 0.657490 -0.598460
O8    O     O_R   0.682180 0.499980 0.428150 -0.603536
C3    C     C_R   0.508121 0.741168 0.500147 0.992714
C4    C     C_R   0.740225 0.503054 0.555012 0.963691
C5    C     C_2   0.129112 0.507044 0.419919 0.022622
C6    C     C_2   0.072657 0.563265 0.509950 0.107531
H1    H     H_    0.926457 0.487644 0.682090 0.217322
C7    C     C_2   0.875828 0.513905 0.580788 -0.267359
C8    C     C_2   0.937630 0.557170 0.483317 0.262110
C9    C     C_R   0.559789 0.067516 0.633664 0.027966
C10   C     C_R   0.550206 0.134565 0.510787 -0.268960
C11   C     C_R   0.572022 0.075780 0.393202 0.231652
C12   C     C_R   0.557129 0.945328 0.386989 0.225064
C13   C     C_R   0.533126 0.876136 0.502775 -0.216103
C14   C     C_R   0.552407 0.936974 0.629251 -0.042330
C15   C     C_3   0.661635 0.926503 0.749452 0.283351
C16   C     C_3   0.673780 0.069754 0.748453 0.481957
C17   C     C_R   0.401902 0.444143 0.050348 -0.008100
N1    N     N_R   0.499160 0.499140 0.142600 -0.192285
C18   C     C_R   0.583539 0.573817 0.085994 0.570431
C19   C     C_R   0.586591 0.568960 0.944453 0.043286
H2    H     H_    0.658210 0.622817 0.904399 0.196390
N2    N     N_R   0.499160 0.499180 0.856960 -0.158546
C20   C     C_R   0.402782 0.443364 0.908400 0.142104
C21   C     C_3   0.354992 0.309390 0.895059 0.636721
C22   C     C_3   0.351684 0.310819 0.048591 0.026939
H3    H     H_    0.416577 0.248836 0.114185 0.171135
N3    N     N_R   0.876421 0.593356 0.347919 0.224789
O9    O     O_R   0.907402 0.702573 0.300403 -0.223584
O10   O     O_R   0.828213 0.505655 0.260941 -0.269375
N4    N     N_R   0.786590 0.127410 0.707085 0.204757
O11   O     O_R   0.821723 0.091314 0.597316 -0.293999
O12   O     O_R   0.848745 0.220943 0.776065 -0.278225
O13   O     O_3   0.663767 0.659826 0.161695 -0.601373
H4    H     H_    0.648615 0.655299 0.255577 0.387172
O14   O     O_3   0.238413 0.293410 0.805662 -0.664291
H5    H     H_    0.254361 0.300748 0.710961 0.363106
O15   O     O_3   0.442049 0.229761 0.865322 -0.685467
H6    H     H_    0.405598 0.143258 0.872931 0.396193
N5    N     N_R   0.226054 0.298005 0.077503 0.273521
O16   O     O_R   0.202562 0.219071 0.171766 -0.284482
O17   O     O_R   0.135822 0.359499 0.005730 -0.199115
N6    N     N_R   0.140350 0.645363 0.616606 0.240888
O18   O     O_R   0.104424 0.652108 0.733064 -0.275391
O19   O     O_R   0.222202 0.729739 0.588050 -0.318200
N7    N     N_R   0.060877 0.439140 0.303746 0.237295
O20   O     O_R   0.049303 0.489578 0.181849 -0.210449
O21   O     O_R   0.016658 0.325148 0.318736 -0.235626
N8    N     N_R   0.621615 0.146597 0.288897 0.244310
O22   O     O_R   0.710309 0.233014 0.325074 -0.265519
O23   O     O_R   0.590841 0.115310 0.160166 -0.298457
N9    N     N_R   0.586587 0.884733 0.272813 0.238935
O24   O     O_R   0.498044 0.855771 0.167944 -0.270299
O25   O     O_R   0.702002 0.892214 0.258426 -0.194253
N10   N     N_R   0.623025 0.873771 0.872761 0.208111
O26   O     O_R   0.704812 0.866784 0.986904 -0.224359
O27   O     O_R   0.506958 0.839515 0.871861 -0.301630
N11   N     N_R   0.772600 0.867383 0.723526 0.211544
O28   O     O_R   0.770690 0.804358 0.612687 -0.395689
O29   O     O_R   0.876086 0.877504 0.814653 -0.216504
O30   O     O_3   0.651452 0.123673 0.867892 -0.627731
H7    H     H_    0.725387 0.109939 0.941583 0.413674

loop_
_geom_bond_atom_site_label_1
_geom_bond_atom_site_label_2
_geom_bond_distance
_ccdc_geom_bond_type
O4    Zn2   1.991737 S    
N5    O17   1.301411 A    
C12   C13   1.414290 A    
C19   N2    1.355332 A    
N1    C18   1.382837 A    
C9    C16   1.511644 S    
N4    O12   1.301477 A    
N4    O11   1.302151 A    
C16   N4    1.477867 S    
Zn1   O7    1.991736 S    
C21   C22   1.533561 S    
N10   O27   1.302319 A    
C18   C19   1.415599 A    
Zn2   O8    1.999113 S    
C15   N11   1.476333 S    
C5    N7    1.428773 S    
H1    C7    1.086108 S    
C14   C15   1.518286 S    
N3    O9    1.301529 A    
C17   C20   1.412446 A    
O30   H7    0.992309 S    
O1    Zn1   2.005191 S    
N6    O18   1.300788 A    
C13   C14   1.399927 A    
N3    O10   1.302805 A    
Zn1   N2    2.026654 S    
C18   O13   1.360486 S    
C15   C16   1.529697 S    
N9    O24   1.301097 A    
O3    Zn1   1.999113 S    
Zn2   N1    2.027692 S    
C3    C13   1.452567 S    
N11   O29   1.301414 A    
C22   H3    1.105059 S    
C8    N3    1.432335 S    
O8    C4    1.291814 A    
N2    C20   1.365634 A    
O2    C1    1.288314 A    
N6    O19   1.301718 A    
C6    C8    1.449534 S    
O4    C2    1.297484 A    
C20   C21   1.494719 S    
O7    C4    1.304868 A    
C1    C10   1.438248 S    
Zn2   O6    2.005191 S    
N8    O23   1.300828 A    
C9    C14   1.394738 A    
C21   O15   1.397191 S    
O5    C3    1.299143 A    
C5    C6    1.356984 D    
C17   N1    1.369770 A    
Zn1   O5    1.987874 S    
N8    O22   1.301603 A    
C22   N5    1.462609 S    
C9    C10   1.390074 A    
C17   C22   1.496071 S    
O3    C2    1.284377 A    
N10   O26   1.299416 A    
O14   H5    0.991866 S    
C11   N8    1.444368 S    
N7    O20   1.299819 A    
C7    C8    1.348987 D    
C4    C7    1.456167 S    
C6    N6    1.445336 S    
O15   H6    0.992670 S    
N9    O25   1.301047 A    
C12   N9    1.421239 S    
N5    O16   1.300436 A    
C2    C5    1.427971 S    
C10   C11   1.408303 A    
C15   N10   1.465668 S    
C11   C12   1.396077 A    
O2    Zn2   1.987876 S    
O13   H4    0.979734 S    
C19   H2    1.081286 S    
C16   O30   1.402759 S    
N7    O21   1.300977 A    
N11   O28   1.300202 A    
O1    C1    1.299979 A    
O6    C3    1.295571 A    
C21   O14   1.405128 S    
