data_mof_unit_61299.cif
_audit_creation_date              2013-03-05T15:46:57-0500
_audit_creation_method            fapswitch 2.2
_symmetry_space_group_name_H-M    P1
_symmetry_Int_Tables_number       1
_space_group_crystal_system       triclinic
_cell_length_a                    21.798521
_cell_length_b                    21.800813
_cell_length_c                    29.375748
_cell_angle_alpha                 90.013103
_cell_angle_beta                  90.012936
_cell_angle_gamma                 90.015863
_cell_volume                      13960.1026875

loop_
_atom_site_label
_atom_site_type_symbol
_atom_site_description
_atom_site_fract_x
_atom_site_fract_y
_atom_site_fract_z
_atom_type_partial_charge
O1    O     O_R   0.552190 0.090170 0.499990 -0.567285
O2    O     O_R   0.909830 0.552190 0.499990 -0.564810
O3    O     O_R   0.447810 0.909830 0.499990 -0.568215
O4    O     O_R   0.090170 0.447810 0.499990 -0.564040
O5    O     O_R   0.552190 0.909830 0.500010 -0.563179
O6    O     O_R   0.909830 0.447810 0.500010 -0.563598
O7    O     O_R   0.447810 0.090170 0.500010 -0.567478
O8    O     O_R   0.090170 0.552190 0.500010 -0.564098
O9    O     O_R   0.052190 0.590170 0.999990 -0.567256
O10   O     O_R   0.409830 0.052190 0.999990 -0.564631
O11   O     O_R   0.947810 0.409830 0.999990 -0.568259
O12   O     O_R   0.590170 0.947810 0.999990 -0.564085
O13   O     O_R   0.052190 0.409830 0.000010 -0.563263
O14   O     O_R   0.409830 0.947810 0.000010 -0.563659
O15   O     O_R   0.947810 0.590170 0.000010 -0.567472
O16   O     O_R   0.590170 0.052190 0.000010 -0.564014
C1    C     C_R   0.500008 0.118646 0.499999 0.757787
C2    C     C_R   0.881357 0.499991 0.500000 0.754045
C3    C     C_R   0.499983 0.881362 0.500144 0.756839
C4    C     C_R   0.118645 0.500007 0.500000 0.753645
C5    C     C_R   0.000008 0.618646 0.999999 0.757738
C6    C     C_R   0.381356 0.999991 0.000001 0.754011
C7    C     C_R   0.999985 0.381355 0.000135 0.756855
C8    C     C_R   0.618645 0.000008 0.999999 0.753583
O17   O     O_R   0.552190 0.000010 0.438020 -0.542617
O18   O     O_R   0.999990 0.552190 0.438020 -0.543163
O19   O     O_R   0.447810 0.999990 0.438020 -0.545769
O20   O     O_R   0.000010 0.447810 0.438020 -0.543280
O21   O     O_R   0.552190 0.999990 0.561980 -0.545839
O22   O     O_R   0.999990 0.447810 0.561980 -0.543276
O23   O     O_R   0.447810 0.000010 0.561980 -0.545892
O24   O     O_R   0.000010 0.552190 0.561980 -0.543175
O25   O     O_R   0.052190 0.500010 0.938020 -0.542624
O26   O     O_R   0.499990 0.052190 0.938020 -0.543076
O27   O     O_R   0.947810 0.499990 0.938020 -0.545734
O28   O     O_R   0.500010 0.947810 0.938020 -0.543306
O29   O     O_R   0.052190 0.499990 0.061980 -0.545778
O30   O     O_R   0.499990 0.947810 0.061980 -0.543273
O31   O     O_R   0.947810 0.500010 0.061980 -0.545896
O32   O     O_R   0.500010 0.052190 0.061980 -0.543150
C9    C     C_R   0.499994 0.000004 0.415404 0.766808
C10   C     C_R   0.000000 0.499994 0.415405 0.763669
C11   C     C_R   0.500006 0.000000 0.584596 0.767138
C12   C     C_R   0.999998 0.500006 0.584594 0.763907
C13   C     C_R   0.999994 0.500005 0.915404 0.766867
C14   C     C_R   0.500000 0.999994 0.915405 0.763651
C15   C     C_R   0.000006 0.500001 0.084596 0.767196
C16   C     C_R   0.499998 0.000006 0.084595 0.763868
Cu1   Cu    Cu3+1 0.561800 0.000000 0.500000 1.096578
Cu2   Cu    Cu3+1 0.000000 0.561800 0.500000 1.101737
Cu3   Cu    Cu3+1 0.438200 0.000000 0.500000 1.089930
Cu4   Cu    Cu3+1 0.000000 0.438200 0.500000 1.101964
Cu5   Cu    Cu3+1 0.061800 0.500000 0.000000 1.096830
Cu6   Cu    Cu3+1 0.500000 0.061800 0.000000 1.102211
Cu7   Cu    Cu3+1 0.938200 0.500000 0.000000 1.090043
Cu8   Cu    Cu3+1 0.500000 0.938200 0.000000 1.102020
C17   C     C_1   0.499980 0.000015 0.364124 -0.100588
C18   C     C_1   0.000004 0.499984 0.364125 -0.104910
C19   C     C_1   0.500016 0.999995 0.635876 -0.096384
C20   C     C_1   0.999991 0.500019 0.635874 -0.104914
C21   C     C_1   0.999980 0.500017 0.864124 -0.100712
C22   C     C_1   0.500004 0.999984 0.864125 -0.104859
C23   C     C_1   0.000016 0.499997 0.135876 -0.096478
C24   C     C_1   0.499992 0.000019 0.135875 -0.104882
C25   C     C_1   0.499975 0.000022 0.321642 0.089164
C26   C     C_1   0.000008 0.499983 0.321642 0.083783
C27   C     C_1   0.500017 0.999991 0.678358 0.093730
C28   C     C_1   0.999984 0.500026 0.678357 0.083667
C29   C     C_1   0.999974 0.500026 0.821642 0.088929
C30   C     C_1   0.500007 0.999982 0.821642 0.083796
C31   C     C_1   0.000018 0.499993 0.178358 0.093575
C32   C     C_1   0.499985 0.000024 0.178357 0.083698
C33   C     C_1   0.499975 0.000026 0.271243 0.086906
C34   C     C_1   0.000012 0.499985 0.271243 0.085503
C35   C     C_1   0.500015 0.999986 0.728757 0.088502
C36   C     C_1   0.999977 0.500030 0.728757 0.085146
C37   C     C_1   0.999973 0.500030 0.771243 0.086738
C38   C     C_1   0.500012 0.999983 0.771243 0.085526
C39   C     C_1   0.000016 0.499988 0.228757 0.088431
C40   C     C_1   0.499978 0.000027 0.228757 0.085235
C41   C     C_R   0.423579 0.187599 0.437127 -0.244484
C42   C     C_R   0.812271 0.423139 0.437495 -0.243831
C43   C     C_R   0.575906 0.812362 0.437146 -0.242632
C44   C     C_R   0.187690 0.576909 0.437541 -0.243737
C45   C     C_R   0.423498 0.812408 0.563027 -0.244984
C46   C     C_R   0.812391 0.576722 0.562594 -0.242528
C47   C     C_R   0.576497 0.187696 0.562828 -0.244667
C48   C     C_R   0.187687 0.423147 0.562477 -0.243692
C49   C     C_R   0.923594 0.687597 0.937118 -0.244459
C50   C     C_R   0.312267 0.923102 0.937519 -0.243744
C51   C     C_R   0.076407 0.312308 0.937447 -0.242610
C52   C     C_R   0.687695 0.076944 0.937563 -0.243725
C53   C     C_R   0.923205 0.312372 0.062833 -0.244890
C54   C     C_R   0.312381 0.076789 0.062552 -0.242379
C55   C     C_R   0.076489 0.687696 0.062833 -0.244642
C56   C     C_R   0.687688 0.923130 0.062466 -0.243627
C57   C     C_R   0.378106 0.218679 0.412518 0.282387
C58   C     C_R   0.780874 0.378246 0.412479 0.283063
C59   C     C_R   0.620412 0.780994 0.411771 0.283703
C60   C     C_R   0.219068 0.621833 0.412568 0.282619
C61   C     C_R   0.378096 0.781301 0.587691 0.282463
C62   C     C_R   0.781053 0.621582 0.587654 0.282947
C63   C     C_R   0.621976 0.218826 0.587424 0.282463
C64   C     C_R   0.219051 0.378219 0.587449 0.282543
C65   C     C_R   0.878132 0.718677 0.912498 0.282360
C66   C     C_R   0.280869 0.878190 0.912522 0.283007
C67   C     C_R   0.121204 0.280948 0.912344 0.283390
C68   C     C_R   0.719074 0.121887 0.912609 0.282631
C69   C     C_R   0.877670 0.281263 0.087363 0.282351
C70   C     C_R   0.281042 0.121682 0.087579 0.283027
C71   C     C_R   0.121964 0.718825 0.087432 0.282457
C72   C     C_R   0.719053 0.878195 0.087431 0.282445
C73   C     C_R   0.369814 0.282017 0.419669 0.290674
C74   C     C_R   0.718051 0.368403 0.421031 0.291371
C75   C     C_R   0.630495 0.718214 0.420310 0.291794
C76   C     C_R   0.281896 0.631672 0.421129 0.291575
C77   C     C_R   0.369846 0.717936 0.580605 0.290740
C78   C     C_R   0.718227 0.631444 0.579129 0.292300
C79   C     C_R   0.630255 0.282165 0.580268 0.290596
C80   C     C_R   0.281860 0.368355 0.578873 0.291375
C81   C     C_R   0.869838 0.782015 0.919648 0.290694
C82   C     C_R   0.218047 0.868350 0.921080 0.291370
C83   C     C_R   0.131121 0.218154 0.920905 0.292418
C84   C     C_R   0.781901 0.131719 0.921174 0.291614
C85   C     C_R   0.869446 0.217903 0.080241 0.290919
C86   C     C_R   0.218217 0.131535 0.079043 0.292443
C87   C     C_R   0.130245 0.782164 0.080277 0.290592
C88   C     C_R   0.781861 0.868331 0.078852 0.291370
C89   C     C_R   0.408495 0.312749 0.450112 -0.260757
C90   C     C_R   0.687110 0.408067 0.450657 -0.251349
C91   C     C_R   0.591271 0.687260 0.450266 -0.258428
C92   C     C_R   0.312859 0.591975 0.450714 -0.254199
C93   C     C_R   0.408458 0.687212 0.550133 -0.261090
C94   C     C_R   0.687226 0.591832 0.549475 -0.261821
C95   C     C_R   0.591556 0.312848 0.549834 -0.260877
C96   C     C_R   0.312827 0.408032 0.549273 -0.253972
C97   C     C_R   0.908506 0.812747 0.950099 -0.260769
C98   C     C_R   0.187107 0.908035 0.950691 -0.251403
C99   C     C_R   0.091575 0.187191 0.950606 -0.258745
C100  C     C_R   0.812864 0.091999 0.950743 -0.254067
C101  C     C_R   0.908211 0.187185 0.049876 -0.261230
C102  C     C_R   0.187218 0.091882 0.049419 -0.261804
C103  C     C_R   0.091549 0.812847 0.049841 -0.260875
C104  C     C_R   0.812828 0.908018 0.049258 -0.254017
C105  C     C_R   0.456077 0.281887 0.473592 0.036191
C106  C     C_R   0.718017 0.455982 0.473724 0.041826
C107  C     C_R   0.543543 0.718090 0.473580 0.034943
C108  C     C_R   0.281968 0.544035 0.473737 0.040918
C109  C     C_R   0.455942 0.718102 0.526566 0.035971
C110  C     C_R   0.718074 0.543948 0.526358 0.033975
C111  C     C_R   0.543969 0.281935 0.526366 0.036156
C112  C     C_R   0.281956 0.455978 0.526252 0.041218
C113  C     C_R   0.956083 0.781886 0.973586 0.036209
C114  C     C_R   0.218015 0.955964 0.973740 0.041819
C115  C     C_R   0.043705 0.218052 0.973734 0.035161
C116  C     C_R   0.781971 0.044049 0.973751 0.041200
C117  C     C_R   0.955801 0.218084 0.026435 0.035873
C118  C     C_R   0.218069 0.043976 0.026331 0.034094
C119  C     C_R   0.043965 0.781935 0.026369 0.036186
C120  C     C_R   0.781957 0.955970 0.026245 0.041202
C121  C     C_R   0.460047 0.217778 0.470189 0.036256
C122  C     C_R   0.782176 0.459640 0.470525 0.035908
C123  C     C_R   0.539860 0.782232 0.470432 0.034516
C124  C     C_R   0.217807 0.540378 0.470539 0.037953
C125  C     C_R   0.459947 0.782223 0.529985 0.036371
C126  C     C_R   0.782233 0.540269 0.529546 0.036539
C127  C     C_R   0.540011 0.217826 0.529772 0.036230
C128  C     C_R   0.217802 0.459659 0.529466 0.038002
C129  C     C_R   0.960053 0.717777 0.970185 0.036271
C130  C     C_R   0.282173 0.959622 0.970538 0.035990
C131  C     C_R   0.040071 0.282198 0.970574 0.034496
C132  C     C_R   0.717810 0.040394 0.970551 0.038067
C133  C     C_R   0.959798 0.282204 0.029870 0.036507
C134  C     C_R   0.282228 0.040301 0.029523 0.036715
C135  C     C_R   0.040007 0.717825 0.029775 0.036241
C136  C     C_R   0.717803 0.959651 0.029460 0.038081
C137  C     C_R   0.500015 0.313756 0.499983 -0.073680
C138  C     C_R   0.686218 0.499986 0.500026 -0.070655
C139  C     C_R   0.499732 0.686249 0.500053 -0.073897
C140  C     C_R   0.313786 0.500000 0.499990 -0.067644
C141  C     C_R   0.000015 0.813755 0.999983 -0.073656
C142  C     C_R   0.186216 0.999987 0.000023 -0.070625
C143  C     C_R   0.999721 0.186232 0.000050 -0.073551
C144  C     C_R   0.813788 1.000000 0.999991 -0.067522
C145  C     C_R   0.500024 0.185592 0.499986 -0.083217
C146  C     C_R   0.814409 0.499967 0.500021 -0.081131
C147  C     C_R   0.499936 0.814425 0.500214 -0.083037
C148  C     C_R   0.185597 0.500020 0.500004 -0.079216
C149  C     C_R   0.000024 0.685592 0.999986 -0.083184
C150  C     C_R   0.314406 0.999971 0.000020 -0.081033
C151  C     C_R   0.999948 0.314408 0.000211 -0.083216
C152  C     C_R   0.685598 0.000022 0.000005 -0.079130
H1    H     H_    0.429373 0.139342 0.430127 0.191938
H2    H     H_    0.860081 0.430410 0.429503 0.189519
H3    H     H_    0.568523 0.860169 0.429218 0.188814
H4    H     H_    0.139879 0.569636 0.429537 0.189612
H5    H     H_    0.429254 0.860693 0.569959 0.191695
H6    H     H_    0.860205 0.569433 0.570565 0.189494
H7    H     H_    0.570714 0.139440 0.569833 0.191737
H8    H     H_    0.139891 0.430440 0.570492 0.189517
H9    H     H_    0.929391 0.639339 0.930120 0.191935
H10   H     H_    0.360074 0.930371 0.929520 0.189544
H11   H     H_    0.069085 0.360102 0.929457 0.189311
H12   H     H_    0.639885 0.069675 0.929553 0.189603
H13   H     H_    0.928961 0.360642 0.069822 0.191897
H14   H     H_    0.360192 0.069504 0.070536 0.189468
H15   H     H_    0.070706 0.639439 0.069837 0.191726
H16   H     H_    0.639894 0.930424 0.070484 0.189529
H17   H     H_    0.401081 0.361366 0.454663 0.183505
H18   H     H_    0.638898 0.399612 0.456535 0.180230
H19   H     H_    0.599896 0.639096 0.456163 0.181078
H20   H     H_    0.361078 0.600418 0.456594 0.180493
H21   H     H_    0.401066 0.638580 0.545617 0.183577
H22   H     H_    0.639012 0.600301 0.543626 0.181027
H23   H     H_    0.598959 0.361467 0.545277 0.183593
H24   H     H_    0.361032 0.399570 0.543382 0.180694
H25   H     H_    0.901089 0.861363 0.954650 0.183500
H26   H     H_    0.138894 0.899586 0.956571 0.180212
H27   H     H_    0.100102 0.139005 0.956487 0.180496
H28   H     H_    0.861084 0.100435 0.956623 0.180387
H29   H     H_    0.900869 0.138546 0.045351 0.183276
H30   H     H_    0.139001 0.100337 0.043568 0.180917
H31   H     H_    0.098953 0.861466 0.045284 0.183592
H32   H     H_    0.861033 0.899559 0.043367 0.180685
O33   O     O_R   0.590140 0.499990 0.535880 -0.572030
O34   O     O_R   0.500010 0.590140 0.535880 -0.572757
O35   O     O_R   0.409860 0.500010 0.535880 -0.572847
O36   O     O_R   0.499990 0.409860 0.535880 -0.572035
O37   O     O_R   0.590140 0.500010 0.464120 -0.569256
O38   O     O_R   0.500010 0.409860 0.464120 -0.571939
O39   O     O_R   0.409860 0.499990 0.464120 -0.572703
O40   O     O_R   0.499990 0.590140 0.464120 -0.568330
O41   O     O_R   0.090140 0.999990 0.035880 -0.572027
O42   O     O_R   0.000010 0.090140 0.035880 -0.572692
O43   O     O_R   0.909860 0.000010 0.035880 -0.572830
O44   O     O_R   0.999990 0.909860 0.035880 -0.572049
O45   O     O_R   0.090140 0.000010 0.964120 -0.569292
O46   O     O_R   0.000010 0.909860 0.964120 -0.571945
O47   O     O_R   0.909860 0.999990 0.964120 -0.572763
O48   O     O_R   0.999990 0.090140 0.964120 -0.568284
C153  C     C_R   0.619696 0.500014 0.500006 0.776027
C154  C     C_R   0.499748 0.619708 0.500010 0.775812
C155  C     C_R   0.380306 0.499999 0.499996 0.774953
C156  C     C_R   0.499999 0.380293 0.499995 0.775706
C157  C     C_R   0.119695 0.000011 0.000006 0.775962
C158  C     C_R   0.999727 0.119701 0.000009 0.775920
C159  C     C_R   0.880306 0.999996 0.999996 0.774871
C160  C     C_R   0.999998 0.880293 0.999995 0.775720
Cu9   Cu    Cu3+1 0.500000 0.500000 0.542480 1.081649
Cu10  Cu    Cu3+1 0.500000 0.500000 0.457520 1.087187
Cu11  Cu    Cu3+1 1.000000 0.000000 0.042480 1.081591
Cu12  Cu    Cu3+1 0.000000 0.000000 0.957520 1.087064
N1    N     N_R   0.661339 0.184719 0.617443 0.168187
O49   O     O_R   0.720179 0.194822 0.617630 -0.232660
O50   O     O_R   0.640054 0.137563 0.639548 -0.306430
N2    N     N_R   0.813208 0.655224 0.622377 0.163693
O51   O     O_R   0.786328 0.667869 0.660801 -0.225324
O52   O     O_R   0.871719 0.665821 0.618358 -0.299492
N3    N     N_R   0.338778 0.815450 0.617717 0.168178
O53   O     O_R   0.279949 0.805289 0.617982 -0.232673
O54   O     O_R   0.360077 0.862682 0.639747 -0.306503
N4    N     N_R   0.186942 0.344510 0.622138 0.163726
O55   O     O_R   0.213881 0.331770 0.660526 -0.225271
O56   O     O_R   0.128421 0.333942 0.618135 -0.299503
N5    N     N_R   0.653427 0.813062 0.376704 0.163689
O57   O     O_R   0.664766 0.786291 0.337998 -0.225198
O58   O     O_R   0.664453 0.871492 0.380725 -0.299967
N6    N     N_R   0.812966 0.344548 0.377775 0.163822
O59   O     O_R   0.786033 0.331845 0.339370 -0.225340
O60   O     O_R   0.871475 0.333950 0.381786 -0.299378
N7    N     N_R   0.338762 0.184522 0.382491 0.168171
O61   O     O_R   0.279923 0.194587 0.382285 -0.232757
O62   O     O_R   0.360063 0.137363 0.360397 -0.306030
N8    N     N_R   0.186952 0.655565 0.377895 0.163811
O63   O     O_R   0.213861 0.668310 0.339502 -0.225702
O64   O     O_R   0.128445 0.666154 0.381916 -0.299282
N9    N     N_R   0.161324 0.684717 0.117454 0.168202
O65   O     O_R   0.220163 0.694821 0.117645 -0.232573
O66   O     O_R   0.140037 0.637561 0.139557 -0.306390
N10   N     N_R   0.313194 0.155368 0.122280 0.163707
O67   O     O_R   0.286309 0.168065 0.160693 -0.225384
O68   O     O_R   0.371706 0.165957 0.118257 -0.299312
N11   N     N_R   0.838214 0.315404 0.117292 0.168182
O69   O     O_R   0.779381 0.305258 0.117393 -0.232628
O70   O     O_R   0.859415 0.362617 0.139397 -0.306247
N12   N     N_R   0.686944 0.844477 0.122115 0.163784
O71   O     O_R   0.713884 0.831726 0.160501 -0.225005
O72   O     O_R   0.628422 0.833911 0.118111 -0.299318
N13   N     N_R   0.154740 0.313050 0.877559 0.163524
O73   O     O_R   0.167326 0.286095 0.839151 -0.224893
O74   O     O_R   0.165299 0.371572 0.881515 -0.299951
N14   N     N_R   0.312959 0.844471 0.877828 0.163855
O75   O     O_R   0.286026 0.831750 0.839427 -0.225260
O76   O     O_R   0.371468 0.833874 0.881841 -0.299270
N15   N     N_R   0.838802 0.684522 0.882459 0.168172
O77   O     O_R   0.779970 0.694615 0.882213 -0.232671
O78   O     O_R   0.860105 0.637345 0.860387 -0.306010
N16   N     N_R   0.686958 0.155645 0.877950 0.163822
O79   O     O_R   0.713870 0.168427 0.839565 -0.225742
O80   O     O_R   0.628451 0.166231 0.881975 -0.299133
N17   N     N_R   0.325049 0.316569 0.394485 0.163990
O81   O     O_R   0.317480 0.306794 0.351144 -0.227349
O82   O     O_R   0.298402 0.363770 0.413068 -0.335046
N18   N     N_R   0.685495 0.317704 0.401015 0.160426
O83   O     O_R   0.712260 0.264712 0.396431 -0.247366
O84   O     O_R   0.626760 0.321588 0.393559 -0.314773
N19   N     N_R   0.680948 0.685706 0.399912 0.159918
O85   O     O_R   0.733534 0.712902 0.394052 -0.246529
O86   O     O_R   0.677402 0.626774 0.393209 -0.315681
N20   N     N_R   0.314436 0.682395 0.401160 0.160315
O87   O     O_R   0.287663 0.735389 0.396623 -0.248003
O88   O     O_R   0.373167 0.678526 0.393702 -0.315364
N21   N     N_R   0.325177 0.683361 0.605870 0.163978
O89   O     O_R   0.317709 0.693201 0.649210 -0.227386
O90   O     O_R   0.298525 0.636090 0.587360 -0.334892
N22   N     N_R   0.685726 0.682111 0.599203 0.160186
O91   O     O_R   0.712527 0.735095 0.603824 -0.247763
O92   O     O_R   0.627000 0.678214 0.606683 -0.314923
N23   N     N_R   0.675028 0.316766 0.605438 0.163960
O93   O     O_R   0.682620 0.307026 0.648778 -0.227585
O94   O     O_R   0.701657 0.363974 0.586847 -0.334507
N24   N     N_R   0.314376 0.317626 0.598843 0.160435
O95   O     O_R   0.287558 0.264644 0.603397 -0.247638
O96   O     O_R   0.373119 0.321477 0.606284 -0.315405
N25   N     N_R   0.825086 0.816568 0.894454 0.164004
O97   O     O_R   0.817571 0.806825 0.851105 -0.227379
O98   O     O_R   0.798408 0.863749 0.913038 -0.335039
N26   N     N_R   0.185491 0.817637 0.901083 0.160420
O99   O     O_R   0.212261 0.764646 0.896510 -0.247310
O100  O     O_R   0.126753 0.821510 0.893635 -0.314854
N27   N     N_R   0.181772 0.185648 0.900816 0.160021
O101  O     O_R   0.234736 0.212469 0.896138 -0.247750
O102  O     O_R   0.177896 0.126912 0.893380 -0.315070
N28   N     N_R   0.814441 0.182458 0.901228 0.160289
O103  O     O_R   0.787670 0.235457 0.896720 -0.247974
O104  O     O_R   0.873172 0.178591 0.893763 -0.315466
N29   N     N_R   0.824648 0.183323 0.105376 0.163947
O105  O     O_R   0.816963 0.193149 0.148697 -0.227552
O106  O     O_R   0.798086 0.136059 0.086784 -0.335222
N30   N     N_R   0.185716 0.182231 0.099077 0.160166
O107  O     O_R   0.212520 0.235220 0.103659 -0.247637
O108  O     O_R   0.126988 0.178350 0.106552 -0.315041
N31   N     N_R   0.175014 0.816764 0.105451 0.163960
O109  O     O_R   0.182601 0.807025 0.148790 -0.227596
O110  O     O_R   0.201646 0.863972 0.086861 -0.334516
N32   N     N_R   0.814376 0.817597 0.098813 0.160426
O111  O     O_R   0.787558 0.764614 0.103361 -0.247581
O112  O     O_R   0.873120 0.821443 0.106253 -0.315448

loop_
_geom_bond_atom_site_label_1
_geom_bond_atom_site_label_2
_geom_bond_distance
_ccdc_geom_bond_type
N24   O96   1.301670 A    
C90   C106  1.415371 A    
O25   C13   1.317433 A    
C77   C93   1.399555 A    
C10   C18   1.506388 S    
N29   O105  1.301300 A    
N17   O81   1.301289 A    
C48   C128  1.416080 A    
C125  C147  1.420502 A    
C14   C22   1.506391 S    
O18   Cu2   1.832678 S    
C56   H16   1.080003 S    
N7    O61   1.301311 A    
C127  C145  1.420638 A    
C109  C139  1.414384 A    
C114  C130  1.403990 A    
N8    O63   1.301389 A    
C55   C135  1.416738 A    
C82   N26   1.438781 S    
C100  H28   1.080878 S    
C80   N24   1.438778 S    
O19   Cu3   1.832770 S    
Cu1   Cu3   2.694297 S    
C60   C76   1.408747 A    
Cu2   Cu4   2.694580 S    
O3    C3    1.295775 A    
C47   H7    1.079369 S    
C6    C150  1.459416 S    
C89   C105  1.415829 A    
O38   C156  1.235486 A    
C98   C114  1.415367 A    
C74   C90   1.400098 A    
O5    Cu1   1.976852 S    
C64   N4    1.438289 S    
C68   C84   1.408744 A    
C96   C112  1.415364 A    
C49   C65   1.401607 A    
N20   O88   1.301670 A    
C44   C60   1.401931 A    
C51   C67   1.401876 A    
N30   O107  1.301355 A    
C142  C157  1.450062 S    
O17   C9    1.317431 A    
N3    O54   1.301528 A    
C133  C151  1.420658 A    
N22   O91   1.301356 A    
C112  C140  1.413463 A    
O36   C156  1.235482 A    
N21   O90   1.301728 A    
C97   C113  1.415828 A    
C87   C103  1.399499 A    
C119  C141  1.414271 A    
C88   C104  1.400101 A    
C46   H6    1.080012 S    
C47   C63   1.401611 A    
C101  C117  1.415713 A    
C23   C31   1.247958 T    
O26   Cu6   1.832678 S    
C34   C39   1.248061 T    
N16   O79   1.301378 A    
C89   H17   1.080457 S    
O27   C13   1.317449 A    
O8    Cu2   1.976762 S    
O31   C15   1.317423 A    
O36   Cu9   1.974622 S    
O32   C16   1.317541 A    
O46   Cu12  1.974710 S    
C126  C146  1.419991 A    
C124  C148  1.420052 A    
C51   C131  1.416187 A    
C45   C125  1.416596 A    
N14   O76   1.301545 A    
C49   C129  1.416739 A    
N12   O72   1.301546 A    
O41   C157  1.235283 A    
C105  C121  1.403862 A    
C52   C132  1.416075 A    
C111  C127  1.403866 A    
C61   N3    1.437758 S    
C53   C133  1.416632 A    
C102  C118  1.415388 A    
C43   H3    1.080072 S    
O16   Cu6   1.976762 S    
C58   C74   1.408742 A    
C41   H1    1.079379 S    
O4    C4    1.296068 A    
C107  C139  1.413803 A    
C97   H25   1.080456 S    
O6    Cu4   1.976764 S    
C101  H29   1.080505 S    
C50   H10   1.079996 S    
O34   Cu9   1.974708 S    
N23   O94   1.301728 A    
O44   C160  1.235487 A    
C29   C37   1.480505 S    
C54   H14   1.080005 S    
C129  C149  1.420633 A    
O9    C5    1.296021 A    
C31   C39   1.480500 S    
C27   C35   1.480500 S    
N15   O78   1.301510 A    
O21   Cu1   1.832768 S    
C132  C152  1.420067 A    
C22   C30   1.247970 T    
Cu9   Cu10  2.495766 S    
O23   C11   1.317422 A    
C71   N9    1.437750 S    
O47   C159  1.235318 A    
O11   C7    1.295890 A    
N1    O49   1.301332 A    
C69   N11   1.437752 S    
C115  C143  1.413628 A    
O34   C154  1.235392 A    
C110  C126  1.404002 A    
C83   C99   1.400092 A    
O13   C7    1.296145 A    
C81   C97   1.399500 A    
N25   O98   1.301705 A    
O2    Cu2   1.976649 S    
C19   C27   1.247955 T    
C5    C149  1.459475 S    
C52   C68   1.401928 A    
C85   C101  1.399508 A    
O7    C1    1.296016 A    
N2    O52   1.301546 A    
C91   C107  1.415528 A    
O26   C14   1.317504 A    
O29   C15   1.317462 A    
O30   C16   1.317510 A    
C78   C94   1.400116 A    
C11   C19   1.506377 S    
O35   Cu9   1.974417 S    
C138  C153  1.450092 S    
O29   Cu5   1.832768 S    
N18   O84   1.301673 A    
N9    O65   1.301332 A    
C48   C64   1.401928 A    
C118  C134  1.404002 A    
C47   C127  1.416742 A    
C72   C88   1.408746 A    
C108  C124  1.403997 A    
C88   N32   1.438778 S    
C109  C125  1.404171 A    
N10   O67   1.301391 A    
N28   O103  1.301359 A    
C42   C122  1.416077 A    
C84   N28   1.438774 S    
C116  C132  1.403994 A    
C60   N8    1.438285 S    
C143  C158  1.450415 S    
O15   Cu7   1.976850 S    
C66   N14   1.438282 S    
C4    C148  1.459461 S    
N27   O102  1.301666 A    
N32   O112  1.301671 A    
C76   C92   1.400097 A    
C99   C115  1.415499 A    
C66   C82   1.408743 A    
N13   O73   1.301372 A    
C8    C152  1.459474 S    
N5    O58   1.301578 A    
C87   N31   1.437794 S    
C70   C86   1.408733 A    
O32   Cu6   1.832771 S    
N31   O110  1.301727 A    
C91   H19   1.080763 S    
C104  C120  1.415362 A    
C46   C62   1.401902 A    
O18   C10   1.317504 A    
C140  C155  1.450022 S    
C78   N22   1.438777 S    
O47   Cu12  1.974504 S    
C75   N19   1.439230 S    
O23   Cu3   1.832673 S    
N26   O99   1.301345 A    
O42   Cu11  1.974708 S    
N4    O55   1.301387 A    
C28   C36   1.480514 S    
O12   C8    1.296081 A    
O1    C1    1.296025 A    
O14   C6    1.296056 A    
C32   C40   1.480514 S    
C107  C123  1.403738 A    
C44   H4    1.079993 S    
N8    O64   1.301545 A    
C99   H27   1.080808 S    
O30   Cu8   1.832675 S    
O46   C160  1.235486 A    
N11   O69   1.301330 A    
C53   C69   1.401642 A    
C128  C148  1.420047 A    
C42   C58   1.401922 A    
O14   Cu8   1.976764 S    
C46   C126  1.416079 A    
C67   C83   1.408669 A    
C116  C144  1.413451 A    
Cu11  Cu12  2.495766 S    
O10   C6    1.296082 A    
C106  C122  1.403992 A    
O40   C154  1.235624 A    
N30   O108  1.301669 A    
C15   C23   1.506377 S    
C16   C24   1.506385 S    
C30   C38   1.480517 S    
O33   C153  1.235283 A    
N22   O92   1.301669 A    
C121  C145  1.420643 A    
N29   O106  1.301728 A    
O31   Cu7   1.832673 S    
C1    C145  1.459482 S    
O45   Cu12  1.974415 S    
O13   Cu5   1.976852 S    
C52   H12   1.079989 S    
N24   O95   1.301356 A    
C108  C140  1.413466 A    
C43   C59   1.401786 A    
O21   C11   1.317464 A    
O48   C158  1.235534 A    
O22   C12   1.317510 A    
N16   O80   1.301552 A    
C112  C128  1.403971 A    
C70   N10   1.438288 S    
N17   O82   1.301724 A    
C55   H15   1.079372 S    
N19   O85   1.301906 A    
C82   C98   1.400096 A    
N15   O77   1.301282 A    
O3    Cu3   1.976967 S    
C57   N7    1.437754 S    
C86   N30   1.438776 S    
C86   C102  1.400107 A    
C79   C95   1.399500 A    
C80   C96   1.400100 A    
N27   O101  1.301338 A    
O28   Cu8   1.832774 S    
O7    Cu3   1.976850 S    
C26   C34   1.480517 S    
O37   C153  1.235358 A    
C83   N27   1.438766 S    
C131  C151  1.419999 A    
C50   C66   1.401929 A    
C134  C150  1.420019 A    
C45   H5    1.079420 S    
C113  C141  1.414268 A    
O48   Cu12  1.974620 S    
C63   N1    1.437749 S    
C144  C159  1.450007 S    
O9    Cu5   1.976965 S    
O11   Cu7   1.976967 S    
O41   Cu11  1.974502 S    
C43   C123  1.416091 A    
N20   O87   1.301356 A    
C56   C136  1.416082 A    
C41   C121  1.416737 A    
C84   C100  1.400086 A    
C65   N15   1.437764 S    
C17   C25   1.247961 T    
C103  C119  1.415827 A    
O5    C3    1.296122 A    
C68   N16   1.438285 S    
C94   H22   1.080864 S    
C61   C77   1.408427 A    
C48   H8    1.080004 S    
C9    C17   1.506377 S    
O42   C158  1.235332 A    
C103  H31   1.080459 S    
C81   N25   1.437772 S    
N21   O89   1.301306 A    
O22   Cu4   1.832675 S    
C12   C20   1.506388 S    
C95   C111  1.415827 A    
C59   C75   1.408825 A    
C13   C21   1.506377 S    
C54   C70   1.401908 A    
N25   O97   1.301250 A    
O17   Cu1   1.832677 S    
C42   H2    1.080000 S    
C111  C137  1.414270 A    
N23   O93   1.301298 A    
N6    O59   1.301388 A    
C20   C28   1.247967 T    
C73   N17   1.437791 S    
C113  C129  1.403862 A    
C77   N21   1.437800 S    
C117  C143  1.414214 A    
C51   H11   1.079991 S    
C117  C133  1.404151 A    
C64   C80   1.408747 A    
C76   N20   1.438781 S    
C49   H9    1.079379 S    
N31   O109  1.301296 A    
O2    C2    1.296084 A    
C92   H20   1.080880 S    
O43   Cu11  1.974417 S    
C53   H13   1.079385 S    
C7    C151  1.459508 S    
C141  C160  1.450567 S    
O45   C157  1.235337 A    
C75   C91   1.400395 A    
C56   C72   1.401929 A    
C106  C138  1.413514 A    
O8    C4    1.296097 A    
C73   C89   1.399505 A    
O4    Cu4   1.976647 S    
N14   O75   1.301381 A    
N10   O68   1.301545 A    
O35   C155  1.235280 A    
N12   O71   1.301390 A    
N28   O104  1.301683 A    
C136  C152  1.420053 A    
C94   C110  1.415396 A    
C25   C33   1.480505 S    
C123  C147  1.419777 A    
C18   C26   1.247970 T    
C95   H23   1.080458 S    
N5    O57   1.301696 A    
C62   N2    1.438291 S    
O37   Cu10  1.974415 S    
C62   C78   1.408734 A    
C110  C138  1.413553 A    
O16   C8    1.296094 A    
C119  C135  1.403870 A    
C120  C136  1.403969 A    
C72   N12   1.438288 S    
O43   C159  1.235272 A    
Cu5   Cu7   2.694297 S    
O25   Cu5   1.832677 S    
O6    C2    1.296035 A    
Cu6   Cu8   2.694580 S    
O27   Cu7   1.832770 S    
C92   C108  1.415358 A    
C93   C109  1.415736 A    
C36   C37   1.248061 T    
N26   O100  1.301666 A    
C58   N6    1.438288 S    
C122  C146  1.420012 A    
N4    O56   1.301547 A    
C2    C146  1.459385 S    
N19   O86   1.301988 A    
O39   C155  1.235320 A    
O19   C9    1.317451 A    
N1    O50   1.301524 A    
N2    O51   1.301389 A    
C50   C130  1.416078 A    
C74   N18   1.438776 S    
O24   C12   1.317537 A    
C65   C81   1.408367 A    
O28   C14   1.317546 A    
C118  C142  1.413524 A    
O24   Cu2   1.832771 S    
O12   Cu8   1.976647 S    
C54   C134  1.416080 A    
C120  C144  1.413454 A    
C69   C85   1.408421 A    
N18   O83   1.301357 A    
C100  C116  1.415355 A    
N9    O66   1.301524 A    
C71   C87   1.408367 A    
C90   H18   1.080877 S    
O40   Cu10  1.974620 S    
O44   Cu11  1.974622 S    
C57   C73   1.408367 A    
N3    O53   1.301339 A    
C45   C61   1.401618 A    
C21   C29   1.247964 T    
N7    O62   1.301512 A    
C85   N29   1.437793 S    
C59   N5    1.438120 S    
O33   Cu9   1.974502 S    
C63   C79   1.408368 A    
N6    O60   1.301546 A    
C44   C124  1.416073 A    
C135  C149  1.420633 A    
C130  C150  1.420029 A    
C93   H21   1.080476 S    
C55   C71   1.401610 A    
O20   Cu4   1.832774 S    
N32   O111  1.301356 A    
C41   C57   1.401606 A    
C114  C142  1.413497 A    
O20   C10   1.317546 A    
N13   O74   1.301539 A    
C33   C40   1.248061 T    
C79   N23   1.437795 S    
C24   C32   1.247970 T    
O10   Cu6   1.976649 S    
C35   C38   1.248061 T    
C104  H32   1.080889 S    
C139  C154  1.450648 S    
C115  C131  1.403785 A    
O15   C5    1.296016 A    
C137  C156  1.450559 S    
C98   H26   1.080879 S    
C105  C137  1.414264 A    
C3    C147  1.459279 S    
O38   Cu10  1.974710 S    
O39   Cu10  1.974504 S    
O1    Cu1   1.976965 S    
C102  H30   1.080862 S    
C67   N13   1.438298 S    
N11   O70   1.301524 A    
C96   H24   1.080889 S    
