data_mof_unit_58909.cif
_audit_creation_date              2013-03-05T15:39:28-0500
_audit_creation_method            fapswitch 2.2
_symmetry_space_group_name_H-M    P1
_symmetry_Int_Tables_number       1
_space_group_crystal_system       triclinic
_cell_length_a                    16.871406
_cell_length_b                    16.870506
_cell_length_c                    16.847406
_cell_angle_alpha                 67.150256
_cell_angle_beta                  67.226883
_cell_angle_gamma                 67.511496
_cell_volume                      3919.40438557

loop_
_atom_site_label
_atom_site_type_symbol
_atom_site_description
_atom_site_fract_x
_atom_site_fract_y
_atom_site_fract_z
_atom_type_partial_charge
O1    O     O_R   0.124540 0.978640 0.385460 -0.554068
O2    O     O_R   0.875460 0.021360 0.614540 -0.551218
O3    O     O_R   0.978640 0.385460 0.124540 -0.551838
O4    O     O_R   0.021360 0.614540 0.875460 -0.544658
O5    O     O_R   0.385460 0.124540 0.978640 -0.554739
O6    O     O_R   0.614540 0.875460 0.021360 -0.530328
O7    O     O_R   0.614540 0.021360 0.875460 -0.545074
O8    O     O_R   0.385460 0.978640 0.124540 -0.557562
O9    O     O_R   0.875460 0.614540 0.021360 -0.524895
O10   O     O_R   0.124540 0.385460 0.978640 -0.557693
O11   O     O_R   0.021360 0.875460 0.614540 -0.550537
O12   O     O_R   0.978640 0.124540 0.385460 -0.558564
C1    C     C_R   0.600599 0.014211 0.595683 -0.095135
C2    C     C_R   0.397186 0.991504 0.402462 -0.088556
C3    C     C_R   0.011518 0.596829 0.601060 -0.096539
C4    C     C_R   0.985004 0.404907 0.398470 -0.086361
C5    C     C_R   0.594272 0.597029 0.021358 -0.095214
C6    C     C_R   0.400572 0.395834 0.995822 -0.087571
Cu1   Cu    Cu3+1 0.995180 0.995180 0.424630 1.107608
Cu2   Cu    Cu3+1 0.004820 0.004820 0.575370 1.131525
Cu3   Cu    Cu3+1 0.995180 0.424630 0.995180 1.105207
Cu4   Cu    Cu3+1 0.004820 0.575370 0.004820 1.151198
Cu5   Cu    Cu3+1 0.424630 0.995180 0.995180 1.106768
Cu6   Cu    Cu3+1 0.575370 0.004820 0.004820 1.149458
C7    C     C_R   0.021039 0.829606 0.567762 0.868065
C8    C     C_R   0.979627 0.170296 0.431918 0.864368
C9    C     C_R   0.829910 0.567674 0.020534 0.831986
C10   C     C_R   0.170086 0.431983 0.979927 0.868246
C11   C     C_R   0.567652 0.021436 0.829455 0.865795
C12   C     C_R   0.431925 0.979866 0.170183 0.856531
C13   C     C_R   0.435767 0.171788 0.970509 0.858135
C14   C     C_R   0.564467 0.828666 0.028380 0.852411
C15   C     C_R   0.968856 0.436187 0.171847 0.840212
C16   C     C_R   0.030051 0.564085 0.828145 0.860986
C17   C     C_R   0.171707 0.970031 0.435967 0.858646
C18   C     C_R   0.828260 0.030222 0.563910 0.867976
O13   O     O_R   0.013780 0.867370 0.487190 -0.563647
O14   O     O_R   0.986220 0.132630 0.512810 -0.559954
O15   O     O_R   0.867370 0.487190 0.013780 -0.566596
O16   O     O_R   0.132630 0.512810 0.986220 -0.559652
O17   O     O_R   0.487190 0.013780 0.867370 -0.564774
O18   O     O_R   0.512810 0.986220 0.132630 -0.567712
O19   O     O_R   0.512810 0.132630 0.986220 -0.559998
O20   O     O_R   0.487190 0.867370 0.013780 -0.570667
O21   O     O_R   0.986220 0.512810 0.132630 -0.563769
O22   O     O_R   0.013780 0.487190 0.867370 -0.569834
O23   O     O_R   0.132630 0.986220 0.512810 -0.562473
O24   O     O_R   0.867370 0.013780 0.487190 -0.569830
H1    H     H_    0.495813 0.151322 0.498891 0.157964
H2    H     H_    0.502158 0.854791 0.498851 0.156970
H3    H     H_    0.859785 0.581531 0.593377 0.147482
H4    H     H_    0.136462 0.420899 0.405664 0.148260
H5    H     H_    0.581712 0.586743 0.870336 0.152646
H6    H     H_    0.411061 0.406743 0.148745 0.147572
H7    H     H_    0.408640 0.142546 0.415638 0.149225
H8    H     H_    0.589209 0.863579 0.582113 0.147539
H9    H     H_    0.498327 0.500797 0.860030 0.158456
H10   H     H_    0.494262 0.493356 0.159025 0.157870
H11   H     H_    0.849224 0.499078 0.506572 0.153963
H12   H     H_    0.146996 0.503057 0.492715 0.158131
C19   C     C_R   0.548155 0.008016 0.546425 0.133811
C20   C     C_R   0.449690 0.998090 0.451360 0.140964
C21   C     C_R   0.004097 0.548060 0.548831 0.132378
C22   C     C_R   0.992142 0.454177 0.450315 0.148657
C23   C     C_R   0.543713 0.545724 0.015337 0.121991
C24   C     C_R   0.448865 0.448130 0.003675 0.142448
C25   C     C_R   0.549816 0.924513 0.546006 -0.084578
C26   C     C_R   0.448065 0.081624 0.451715 -0.073974
C27   C     C_R   0.081909 0.502374 0.495835 -0.101405
C28   C     C_R   0.914307 0.499888 0.503322 -0.088748
C29   C     C_R   0.495118 0.495126 0.093750 -0.095177
C30   C     C_R   0.497186 0.499074 0.925406 -0.095669
C31   C     C_R   0.500643 0.919617 0.498706 -0.093913
C32   C     C_R   0.497288 0.086521 0.499016 -0.100340
C33   C     C_R   0.447924 0.446220 0.087970 -0.074005
C34   C     C_R   0.544477 0.547670 0.931178 -0.094289
C35   C     C_R   0.075998 0.455739 0.446596 -0.077690
C36   C     C_R   0.920221 0.546661 0.552447 -0.081497
C37   C     C_R   0.568682 0.999249 0.689188 -0.070508
C38   C     C_R   0.428322 0.007154 0.308827 -0.077086
C39   C     C_R   0.997131 0.690071 0.569285 -0.070650
C40   C     C_R   0.003177 0.311026 0.428914 -0.075221
C41   C     C_R   0.687165 0.562878 0.008047 -0.067595
C42   C     C_R   0.307499 0.426959 0.010066 -0.075120
C43   C     C_R   0.316856 0.967093 0.449826 -0.079770
C44   C     C_R   0.682488 0.035596 0.549068 -0.070867
C45   C     C_R   0.448210 0.316487 0.970359 -0.077782
C46   C     C_R   0.549857 0.681085 0.037553 -0.064672
C47   C     C_R   0.959136 0.451602 0.318754 -0.077848
C48   C     C_R   0.033729 0.550027 0.682509 -0.071883
C49   C     C_R   0.606230 0.028092 0.732276 -0.218135
C50   C     C_R   0.392438 0.975550 0.266675 -0.221843
C51   C     C_R   0.027028 0.732753 0.606332 -0.218973
C52   C     C_R   0.973830 0.267172 0.392651 -0.219502
C53   C     C_R   0.733809 0.606526 0.025259 -0.224790
C54   C     C_R   0.266130 0.392179 0.976520 -0.221223
C55   C     C_R   0.270594 0.954697 0.402457 -0.190516
C56   C     C_R   0.729113 0.046902 0.596899 -0.184123
C57   C     C_R   0.401649 0.270624 0.956298 -0.190982
C58   C     C_R   0.599633 0.730776 0.041028 -0.196467
C59   C     C_R   0.950958 0.402803 0.271321 -0.194144
C60   C     C_R   0.046159 0.597391 0.728812 -0.187463
C61   C     C_R   0.680707 0.063444 0.681125 0.258273
C62   C     C_R   0.318981 0.938958 0.318067 0.264506
C63   C     C_R   0.062907 0.681536 0.680181 0.258852
C64   C     C_R   0.937627 0.317309 0.319027 0.265020
C65   C     C_R   0.687894 0.688626 0.046031 0.271192
C66   C     C_R   0.317695 0.319177 0.939668 0.264601
C67   C     C_2   0.496913 0.953061 0.740153 0.892904
O25   O     O_2   0.423886 0.986405 0.725307 -0.554689
O26   O     O_R   0.513612 0.871086 0.805054 -0.762326
H13   H     H_    0.460086 0.845807 0.834922 0.364171
C68   C     C_2   0.498185 0.055734 0.256985 0.888839
O27   O     O_2   0.482889 0.125796 0.198385 -0.585170
O28   O     O_R   0.580783 0.021743 0.275525 -0.714354
H14   H     H_    0.622205 0.061311 0.236234 0.352173
C69   C     C_2   0.950271 0.741232 0.498330 0.892603
O29   O     O_2   0.982437 0.726702 0.424978 -0.552111
O30   O     O_R   0.868991 0.805940 0.516180 -0.765591
H15   H     H_    0.843081 0.835810 0.463182 0.363543
C70   C     C_2   0.051285 0.260673 0.498976 0.887952
O31   O     O_2   0.122197 0.203725 0.483409 -0.586218
O32   O     O_R   0.015845 0.278749 0.582107 -0.713503
H16   H     H_    0.055202 0.240635 0.623647 0.350734
C71   C     C_2   0.733924 0.483073 0.973687 0.902006
O33   O     O_2   0.717274 0.411506 0.018808 -0.553614
O34   O     O_R   0.796295 0.490689 0.889103 -0.750577
H17   H     H_    0.823585 0.432168 0.872770 0.359555
C72   C     C_2   0.255391 0.495984 0.059003 0.886945
O35   O     O_2   0.196532 0.479820 0.128745 -0.591992
O36   O     O_R   0.273925 0.578823 0.025649 -0.712347
H18   H     H_    0.234415 0.619633 0.065376 0.351368
C73   C     C_2   0.283810 0.952843 0.548651 0.921269
O37   O     O_2   0.264551 0.883457 0.598061 -0.507753
O38   O     O_R   0.275691 0.018272 0.584960 -0.723753
H19   H     H_    0.253298 0.000380 0.652884 0.355212
C74   C     C_2   0.716604 0.048451 0.450369 0.903041
O39   O     O_2   0.721642 0.991907 0.418848 -0.587732
O40   O     O_R   0.741659 0.126114 0.393614 -0.673889
H20   H     H_    0.763451 0.127516 0.328044 0.354314
C75   C     C_2   0.546655 0.284278 0.956260 0.918609
O41   O     O_2   0.596007 0.266540 0.886339 -0.511902
O42   O     O_R   0.582663 0.275302 0.022378 -0.721145
H21   H     H_    0.650328 0.253650 0.004506 0.353535
C76   C     C_2   0.451460 0.714954 0.051647 0.902807
O43   O     O_2   0.419005 0.721722 0.995003 -0.583716
O44   O     O_R   0.396125 0.737800 0.130494 -0.678186
H22   H     H_    0.330560 0.759642 0.132675 0.354855
C77   C     C_2   0.937788 0.551007 0.287400 0.913658
O45   O     O_2   0.869762 0.594753 0.263853 -0.528764
O46   O     O_R   0.995124 0.594362 0.284771 -0.722737
H23   H     H_    0.972854 0.661844 0.262710 0.358619
C78   C     C_2   0.046056 0.451666 0.716687 0.907656
O47   O     O_2   0.988171 0.420290 0.724307 -0.579421
O48   O     O_R   0.124414 0.395177 0.739550 -0.678193
H24   H     H_    0.125273 0.329801 0.761896 0.351585
N1    N     N_R   0.695637 0.128875 0.705899 0.155052
O49   O     O_R   0.764497 0.160515 0.659909 -0.302830
O50   O     O_R   0.629002 0.175624 0.755624 -0.289925
N2    N     N_R   0.307098 0.871476 0.293925 0.148884
O51   O     O_R   0.235794 0.843235 0.334421 -0.314441
O52   O     O_R   0.377000 0.820798 0.251064 -0.301092
N3    N     N_R   0.128995 0.706362 0.693991 0.155930
O53   O     O_R   0.176177 0.755674 0.626312 -0.289638
O54   O     O_R   0.160528 0.660924 0.762838 -0.301830
N4    N     N_R   0.871520 0.290963 0.307371 0.147930
O55   O     O_R   0.819762 0.249127 0.378048 -0.294872
O56   O     O_R   0.845647 0.328262 0.234719 -0.318012
N5    N     N_R   0.729312 0.728125 0.075659 0.153710
O57   O     O_R   0.781153 0.778136 0.017388 -0.316939
O58   O     O_R   0.704381 0.725153 0.159885 -0.286548
N6    N     N_R   0.293871 0.307322 0.871816 0.148994
O59   O     O_R   0.249107 0.376663 0.822119 -0.294666
O60   O     O_R   0.336164 0.237410 0.842042 -0.313958

loop_
_geom_bond_atom_site_label_1
_geom_bond_atom_site_label_2
_geom_bond_distance
_ccdc_geom_bond_type
Cu2   O14   1.957567 S    
C8    C52   1.485402 S    
O6    C14   1.308133 A    
C1    C37   1.404903 A    
C7    C51   1.483974 S    
N1    O49   1.300488 A    
C40   C52   1.425199 A    
O10   C10   1.301717 A    
C28   C36   1.396049 A    
C5    C46   1.405769 A    
C15   O21   1.292241 A    
N5    O57   1.302739 A    
C9    C53   1.480662 S    
Cu1   Cu2   2.676398 S    
O44   H22   1.013900 S    
C30   C34   1.393051 A    
C17   O23   1.288931 A    
H7    C26   1.083075 S    
C77   O45   1.223258 D    
O32   H16   1.013795 S    
C3    C39   1.405153 A    
Cu6   O18   1.954021 S    
C57   C66   1.413195 A    
C74   O40   1.395498 S    
O1    C17   1.310810 A    
C16   C60   1.491518 S    
C23   C34   1.400559 A    
C13   O19   1.292153 A    
O7    C11   1.303698 A    
C64   N4    1.447987 S    
C47   C59   1.420764 A    
N3    O54   1.300469 A    
C41   C71   1.486391 S    
C72   O35   1.223140 D    
C77   O46   1.398432 S    
O9    Cu4   1.961239 S    
O3    C15   1.309437 A    
C26   C32   1.395525 A    
C56   C61   1.412240 A    
C2    C20   1.478843 S    
C39   C69   1.485704 S    
C42   C72   1.486607 S    
O8    Cu5   1.953988 S    
O4    Cu4   1.953464 S    
C60   C63   1.410908 A    
C42   C54   1.423723 A    
C48   C60   1.424757 A    
O5    C13   1.310444 A    
Cu1   O13   1.957568 S    
C44   C74   1.489233 S    
C51   C63   1.417378 A    
C27   C35   1.395730 A    
C24   C30   1.402033 A    
O26   H13   1.013296 S    
C9    O15   1.289911 A    
O5    Cu5   1.960632 S    
C1    C44   1.406062 A    
C6    C42   1.405148 A    
Cu5   Cu6   2.679059 S    
C63   N3    1.451400 S    
C20   C31   1.402869 A    
C25   C31   1.394797 A    
C13   C57   1.493765 S    
C78   O48   1.396280 S    
C40   C70   1.486316 S    
C37   C49   1.425192 A    
C7    O13   1.288745 A    
C47   C77   1.489409 S    
C71   O33   1.223051 D    
C54   C66   1.419576 A    
C41   C53   1.425268 A    
C4    C47   1.408478 A    
N1    O50   1.301330 A    
Cu3   Cu4   2.679104 S    
N4    O56   1.300001 A    
N5    O58   1.300688 A    
C62   N2    1.448822 S    
C76   O44   1.395332 S    
N6    O60   1.300166 A    
C76   O43   1.222959 D    
C45   C57   1.422417 A    
O10   Cu3   1.961239 S    
O4    C16   1.312419 A    
O11   Cu2   1.958134 S    
O1    Cu1   1.959265 S    
C37   C67   1.485895 S    
O2    Cu2   1.959265 S    
C55   C62   1.409656 A    
C21   C27   1.402718 A    
O38   H19   1.013726 S    
C12   C50   1.482758 S    
H2    C31   1.083194 S    
Cu1   O24   1.959304 S    
C8    O14   1.290020 A    
C23   C29   1.402553 A    
Cu5   O20   1.962602 S    
C14   C58   1.483151 S    
O12   C8    1.303049 A    
C5    C41   1.405681 A    
C75   O42   1.398347 S    
N2    O52   1.300803 A    
C38   C50   1.424418 A    
C22   C28   1.403192 A    
C39   C51   1.425885 A    
C19   C25   1.400986 A    
Cu3   O15   1.963319 S    
O46   H23   1.013733 S    
Cu4   O16   1.963318 S    
O34   H17   1.013695 S    
C4    C40   1.408880 A    
O7    Cu6   1.953990 S    
C14   O20   1.288005 A    
C46   C76   1.487735 S    
C45   C75   1.488178 S    
C48   C78   1.488309 S    
C70   O31   1.223366 D    
C46   C58   1.423446 A    
C53   C65   1.409522 A    
C16   O22   1.288854 A    
Cu3   O22   1.953004 S    
C2    C38   1.405454 A    
C66   N6    1.450178 S    
N4    O55   1.300892 A    
C15   C59   1.490722 S    
O3    Cu3   1.953462 S    
H5    C34   1.083231 S    
H4    C35   1.083125 S    
C11   C49   1.484884 S    
N6    O59   1.301101 A    
O9    C9    1.302896 A    
C73   O38   1.398300 S    
C68   O27   1.223102 D    
C65   N5    1.437389 S    
O2    C18   1.311418 A    
C59   C64   1.408826 A    
Cu6   O19   1.962602 S    
C52   C64   1.415456 A    
C58   C65   1.403818 A    
C3    C21   1.480943 S    
C11   O17   1.290844 A    
C61   N1    1.451917 S    
C2    C43   1.406292 A    
C49   C61   1.418817 A    
O40   H20   1.013900 S    
O6    Cu6   1.960632 S    
C19   C32   1.402907 A    
C6    C24   1.477750 S    
H8    C25   1.083130 S    
C74   O39   1.222971 D    
C5    C23   1.478872 S    
C6    C45   1.406382 A    
Cu5   O17   1.954023 S    
C20   C26   1.401309 A    
C10   C54   1.485076 S    
O8    C12   1.302961 A    
N2    O51   1.300107 A    
C69   O30   1.397551 S    
O42   H21   1.013722 S    
H3    C36   1.083095 S    
C17   C55   1.491026 S    
C69   O29   1.223146 D    
C3    C48   1.406096 A    
C29   C33   1.396113 A    
O28   H14   1.013772 S    
C73   O37   1.222120 D    
H12   C27   1.083166 S    
C24   C33   1.401986 A    
C67   O26   1.397689 S    
O12   Cu1   1.958134 S    
C18   O24   1.288845 A    
H9    C30   1.083272 S    
C44   C56   1.424565 A    
C70   O32   1.398546 S    
N3    O53   1.301182 A    
C43   C55   1.423545 A    
H10   C29   1.083058 S    
C50   C62   1.416368 A    
H11   C28   1.083146 S    
H6    C33   1.083055 S    
O11   C7    1.303664 A    
Cu4   O21   1.953003 S    
C1    C19   1.479529 S    
C38   C68   1.486576 S    
O30   H15   1.013146 S    
C67   O25   1.223139 D    
O48   H24   1.013860 S    
C71   O34   1.398163 S    
C22   C35   1.401713 A    
C10   O16   1.292732 A    
H1    C32   1.083148 S    
C12   O18   1.290298 A    
C18   C56   1.492585 S    
C4    C22   1.479932 S    
C68   O28   1.398194 S    
C78   O47   1.223120 D    
C75   O41   1.222421 D    
Cu2   O23   1.959304 S    
O36   H18   1.013758 S    
C43   C73   1.487862 S    
C72   O36   1.398216 S    
C21   C36   1.401607 A    
