data_mof_unit_21805.cif
_audit_creation_date              2012-12-10T17:05:12-0500
_audit_creation_method            fapswitch 2.2
_symmetry_space_group_name_H-M    P1
_symmetry_Int_Tables_number       1
_space_group_crystal_system       triclinic
_cell_length_a                    10.74406
_cell_length_b                    11.037545
_cell_length_c                    9.864414
_cell_angle_alpha                 112.530159
_cell_angle_beta                  98.621436
_cell_angle_gamma                 90.88854
_cell_volume                      1064.89696746

loop_
_atom_site_label
_atom_site_type_symbol
_atom_type_description
_atom_site_fract_x
_atom_site_fract_y
_atom_site_fract_z
_atom_type_partial_charge
C1    C     C_R   0.494328 0.251995 0.438023 0.832944
C2    C     C_3   0.879057 0.506549 0.503839 0.033505
C3    C     C_3   0.926042 0.613314 0.449431 -0.016025
C4    C     C_3   0.909867 0.369253 0.389538 -0.073623
C5    C     C_2   0.503015 0.108851 0.400692 -0.014719
C6    C     C_2   0.523340 0.069561 0.515702 -0.222355
C7    C     C_2   0.518560 0.888225 0.598760 -0.362994
C8    C     C_2   0.535141 0.931553 0.493563 -0.163541
C9    C     C_2   0.506994 0.513595 0.081440 0.009003
C10   C     C_2   0.477786 0.505991 0.921823 -0.084067
C11   C     C_R   0.260006 0.499602 0.500732 0.788771
C12   C     C_R   0.510822 0.746874 0.561437 0.848395
C13   C     C_R   0.740317 0.504210 0.501082 0.741700
C14   C     C_3   0.094698 0.510830 0.655881 -0.388786
C15   C     C_3   0.953960 0.529384 0.664081 0.055381
C16   C     C_3   0.072445 0.620703 0.470805 -0.387301
C17   C     C_3   0.053284 0.372158 0.381952 -0.415919
C18   C     C_3   0.122701 0.501054 0.502390 0.063646
Cu1   Cu    Cu3+1 0.522160 0.521810 0.644910 0.910861
Cu2   Cu    Cu3+1 0.477840 0.478190 0.355090 0.916987
H1    H     H_    0.155807 0.592428 0.747549 0.187032
H2    H     H_    0.858217 0.356081 0.277369 0.164625
H3    H     H_    0.102770 0.622679 0.368560 0.158992
H4    H     H_    0.890473 0.576100 0.327322 0.150278
H5    H     H_    0.551991 0.861439 0.386908 0.174284
H6    H     H_    0.527507 0.139589 0.629701 0.176274
H7    H     H_    0.506176 0.955635 0.709103 0.153465
H8    H     H_    0.388498 0.459205 0.853357 0.173716
H9    H     H_    0.585598 0.581464 0.154445 0.117628
H10   H     H_    0.641089 0.597337 0.928388 0.187273
H11   H     H_    0.119568 0.419253 0.672407 0.136814
H12   H     H_    0.917374 0.451962 0.697648 0.151585
H13   H     H_    0.114654 0.712977 0.564781 0.167746
H14   H     H_    0.066328 0.365465 0.269500 0.156371
H15   H     H_    0.096560 0.286332 0.397294 0.168310
N1    N     N_2   0.444530 0.445420 0.137360 -0.141586
N2    N     N_2   0.555520 0.554510 0.862630 -0.293124
O1    O     O_R   0.511820 0.332340 0.577400 -0.590591
O2    O     O_R   0.474400 0.295500 0.332650 -0.561320
O3    O     O_R   0.336400 0.518400 0.622370 -0.589762
O4    O     O_R   0.298980 0.481560 0.377620 -0.599378
O5    O     O_R   0.525600 0.704500 0.667350 -0.572044
O6    O     O_R   0.488180 0.667660 0.422600 -0.580874
O7    O     O_R   0.701020 0.518440 0.622380 -0.579394
O8    O     O_R   0.663600 0.481600 0.377630 -0.592501
C19   C     C_3   0.493819 0.005586 0.240974 -0.405886
C20   C     C_3   0.465406 0.051596 0.113649 -0.817866
H16   H     H_    0.373380 0.095917 0.116190 0.262925
H17   H     H_    0.543444 0.121521 0.119808 0.269069
H18   H     H_    0.458462 0.965778 0.005957 0.231217
H19   H     H_    0.584759 0.958954 0.230154 0.203494
H20   H     H_    0.417998 0.928210 0.221834 0.211656
C21   C     C_3   0.337726 0.352849 0.045007 -0.108755
C22   C     C_3   0.377514 0.234274 0.919437 -0.917821
H21   H     H_    0.367293 0.249235 0.813675 0.235371
H22   H     H_    0.477030 0.215707 0.949074 0.262169
H23   H     H_    0.315344 0.145117 0.897130 0.228464
H24   H     H_    0.293254 0.314628 0.116635 0.198503
H25   H     H_    0.264283 0.403511 0.999547 0.125545
C23   C     C_3   0.939899 0.662382 0.791583 -0.875048
H26   H     H_    0.845093 0.698725 0.780150 0.251626
H27   H     H_    0.957544 0.650571 0.899565 0.219042
H28   H     H_    0.010192 0.740744 0.800215 0.223005
C24   C     C_3   0.875487 0.751582 0.516536 -0.373665
C25   C     C_3   0.886828 0.830863 0.420988 -0.900887
H29   H     H_    0.986789 0.844409 0.409550 0.260643
H30   H     H_    0.828693 0.780573 0.308804 0.240625
H31   H     H_    0.852070 0.929249 0.475302 0.253073
H32   H     H_    0.774363 0.742997 0.525231 0.200231
H33   H     H_    0.927457 0.810524 0.629347 0.216753
C26   C     C_3   0.865685 0.248891 0.420609 -0.378796
C27   C     C_3   0.856414 0.120662 0.282885 -0.856171
H34   H     H_    0.790177 0.127146 0.188440 0.248599
H35   H     H_    0.950424 0.098741 0.249741 0.250984
H36   H     H_    0.819755 0.038248 0.307415 0.244078
H37   H     H_    0.931400 0.239426 0.513736 0.201062
H38   H     H_    0.770835 0.260399 0.453253 0.201077

loop_
_geom_bond_atom_site_label_1
_geom_bond_atom_site_label_2
_ccdc_geom_bond_type
C9    N1    D    
C2    C4    S    
C21   H24   S    
C11   C18   S    
C21   C22   S    
C2    C15   S    
Cu1   O1    S    
C24   H33   S    
C16   H13   S    
C12   O6    A    
C26   H38   S    
C4    H2    S    
C15   C23   S    
C14   C18   S    
C20   H18   S    
Cu2   O8    S    
Cu1   O5    S    
C9    H9    S    
C14   H11   S    
C27   H34   S    
C25   H31   S    
C24   C25   S    
Cu1   Cu2   S    
C17   C18   S    
C21   H25   S    
C26   C27   S    
C20   H17   S    
Cu1   N2    S    
C19   C20   S    
C24   H32   S    
C13   O7    A    
C23   H27   S    
C13   O8    A    
C8    H5    S    
C3    H4    S    
C6    H6    S    
C1    O1    A    
C27   H36   S    
Cu2   O4    S    
C5    C6    D    
C14   H1    S    
C16   C18   S    
C11   O4    A    
C16   H3    S    
C2    C3    S    
Cu1   O3    S    
C23   H28   S    
C11   O3    A    
C1    C5    S    
C7    C12   S    
C7    C8    D    
C17   H14   S    
C4    C17   S    
C12   O5    A    
C22   H21   S    
Cu2   N1    S    
C9    C10   S    
C19   H20   S    
C26   H37   S    
C15   H12   S    
Cu2   O6    S    
C7    H7    S    
Cu1   O7    S    
C27   H35   S    
C25   H29   S    
C5    C19   S    
C10   H8    S    
C2    C13   S    
Cu2   O2    S    
C1    O2    A    
C14   C15   S    
C23   H26   S    
C6    C8    S    
N1    C21   S    
C17   H15   S    
C3    C24   S    
C19   H19   S    
C4    C26   S    
C3    C16   S    
C20   H16   S    
H10   N2    S    
C22   H22   S    
C25   H30   S    
C22   H23   S    
C10   N2    D    
