data_mof_unit_57836.cif
_audit_creation_date              2012-12-10T17:32:21-0500
_audit_creation_method            fapswitch 2.2
_symmetry_space_group_name_H-M    P1
_symmetry_Int_Tables_number       1
_space_group_crystal_system       triclinic
_cell_length_a                    15.614721
_cell_length_b                    15.493526
_cell_length_c                    15.52814
_cell_angle_alpha                 91.712935
_cell_angle_beta                  71.90853
_cell_angle_gamma                 111.569414
_cell_volume                      3305.76764251

loop_
_atom_site_label
_atom_site_type_symbol
_atom_type_description
_atom_site_fract_x
_atom_site_fract_y
_atom_site_fract_z
_atom_type_partial_charge
C1    C     C_R   0.462240 0.258256 0.464178 0.795277
C2    C     C_R   0.505364 0.528045 0.121200 -0.262379
C3    C     C_R   0.674568 0.610822 0.108821 -0.192341
C4    C     C_R   0.534482 0.741302 0.536684 0.782476
C5    C     C_R   0.424349 0.431198 0.841130 -0.077769
C6    C     C_R   0.320969 0.005384 0.464205 -0.244676
C7    C     C_R   0.441941 0.159719 0.454428 -0.026652
C8    C     C_R   0.639440 0.895298 0.566736 -0.227138
C9    C     C_R   0.666418 0.991580 0.569365 0.161796
C10   C     C_R   0.611747 0.035402 0.545687 -0.227593
C11   C     C_R   0.525254 0.982876 0.526446 0.063764
C12   C     C_R   0.295124 0.381634 0.985940 -0.155822
C13   C     C_R   0.491894 0.883960 0.537086 0.085156
C14   C     C_R   0.469232 0.024788 0.499006 0.093430
C15   C     C_R   0.376922 0.967295 0.493097 0.148680
C16   C     C_R   0.755568 0.550459 0.464178 0.793700
C17   C     C_R   0.339743 0.872008 0.517943 -0.247015
C18   C     C_R   0.396369 0.830541 0.538846 -0.185075
C19   C     C_R   0.500873 0.121640 0.478078 -0.295700
C20   C     C_R   0.352554 0.101352 0.444288 0.099857
C21   C     C_R   0.553644 0.840925 0.548962 -0.106628
C22   C     C_R   0.019728 0.689056 0.418475 0.115257
C23   C     C_R   0.361110 0.426442 0.031254 -0.184688
C24   C     C_R   0.857507 0.571995 0.450490 -0.005335
C25   C     C_R   0.075134 0.334562 0.573737 -0.196680
C26   C     C_R   0.982666 0.304758 0.566212 -0.173749
C27   C     C_R   0.951145 0.367040 0.535019 -0.183507
C28   C     C_R   0.243002 0.450763 0.537672 0.778657
C29   C     C_R   0.010862 0.462926 0.513519 0.099492
C30   C     C_R   0.104963 0.493634 0.523210 0.091894
C31   C     C_R   0.980683 0.529112 0.481657 0.052486
C32   C     C_R   0.047302 0.623276 0.453764 0.136260
C33   C     C_R   0.137688 0.650995 0.466834 -0.270095
C34   C     C_R   0.461491 0.472516 0.982950 0.085575
C35   C     C_R   0.162690 0.589511 0.506772 -0.203021
C36   C     C_R   0.885356 0.505499 0.479453 -0.272314
C37   C     C_R   0.924020 0.662152 0.418694 -0.241551
C38   C     C_R   0.138947 0.427629 0.548721 -0.081459
C39   C     C_R   0.552399 0.551448 0.259049 0.782516
C40   C     C_R   0.450375 0.448557 0.741781 0.783243
C41   C     C_R   0.701718 0.607842 0.015203 -0.196651
C42   C     C_R   0.576782 0.569776 0.161718 0.014526
C43   C     C_R   0.325969 0.384966 0.891727 -0.188968
C44   C     C_3   0.754432 0.047431 0.596615 -0.445124
C45   C     C_R   0.493678 0.469652 0.886918 0.083974
C46   C     C_3   0.737400 0.020491 0.696670 -0.321183
C47   C     C_3   0.822387 0.080832 0.727763 -0.895615
C48   C     C_3   0.088465 0.788824 0.383020 -0.443977
C49   C     C_3   0.162394 0.792679 0.289582 -0.326108
C50   C     C_3   0.234022 0.892321 0.255143 -0.885544
C51   C     C_3   0.290477 0.138753 0.410515 -0.418426
C52   C     C_3   0.194721 0.127202 0.485373 -0.323128
C53   C     C_3   0.128989 0.156508 0.447865 -0.901753
C54   C     C_R   0.531182 0.520670 0.026622 0.078430
C55   C     C_R   0.631491 0.561100 0.974009 0.170962
C56   C     C_R   0.661727 0.550928 0.881460 -0.247725
C57   C     C_R   0.594298 0.504168 0.838984 -0.198803
H1    H     H_    0.730239 0.641624 0.140610 0.134647
H2    H     H_    0.738352 0.577982 0.841767 0.150493
H3    H     H_    0.829107 0.437792 0.505277 0.124719
H4    H     H_    0.098579 0.283290 0.594575 0.169051
H5    H     H_    0.880310 0.337256 0.526947 0.124955
H6    H     H_    0.936316 0.231775 0.581198 0.149277
H7    H     H_    0.227988 0.619779 0.525076 0.174728
H8    H     H_    0.778195 0.638407 0.975460 0.137123
H9    H     H_    0.431541 0.497024 0.166174 0.129324
H10   H     H_    0.271890 0.354290 0.858181 0.161054
H11   H     H_    0.330941 0.422727 0.104108 0.130494
H12   H     H_    0.266114 0.829505 0.521676 0.136195
H13   H     H_    0.218758 0.346548 0.024115 0.144528
H14   H     H_    0.622816 0.493711 0.768355 0.171656
H15   H     H_    0.891661 0.077366 0.682558 0.257955
H16   H     H_    0.827726 0.154290 0.727546 0.261955
H17   H     H_    0.810392 0.055340 0.798240 0.255793
H18   H     H_    0.670025 0.028781 0.740589 0.229006
H19   H     H_    0.728044 0.946340 0.705924 0.222705
H20   H     H_    0.818791 0.034518 0.552048 0.196680
H21   H     H_    0.770542 0.123297 0.587124 0.194179
H22   H     H_    0.194624 0.938409 0.252033 0.257959
H23   H     H_    0.251608 0.960204 0.458157 0.134003
H24   H     H_    0.278580 0.919464 0.300589 0.264177
H25   H     H_    0.283517 0.893307 0.185787 0.255059
H26   H     H_    0.203989 0.748872 0.293021 0.229447
H27   H     H_    0.123017 0.765041 0.239950 0.224999
H28   H     H_    0.047112 0.831708 0.375583 0.200181
H29   H     H_    0.125215 0.822021 0.432951 0.186424
H30   H     H_    0.164428 0.231602 0.422427 0.268248
H31   H     H_    0.113026 0.114483 0.391506 0.261242
H32   H     H_    0.059096 0.144652 0.502558 0.243954
H33   H     H_    0.155056 0.053229 0.514264 0.215004
H34   H     H_    0.569016 0.169868 0.483315 0.136588
H35   H     H_    0.210331 0.170539 0.541120 0.242442
H36   H     H_    0.330097 0.213476 0.384238 0.185156
H37   H     H_    0.274606 0.100235 0.352143 0.202433
H38   H     H_    0.686254 0.862891 0.578230 0.163561
H39   H     H_    0.636289 0.110040 0.546423 0.125092
H40   H     H_    0.362974 0.756532 0.559313 0.155518
H41   H     H_    0.900059 0.712187 0.396020 0.125910
H42   H     H_    0.189586 0.721456 0.448692 0.155703
O1    O     O_3   0.500000 0.500000 0.500000 -0.477063
O2    O     O_R   0.588830 0.499590 0.285390 -0.637704
O3    O     O_R   0.395900 0.395880 0.699370 -0.644649
O4    O     O_R   0.493280 0.582590 0.315890 -0.633412
O5    O     O_R   0.521980 0.521940 0.699340 -0.640841
O6    O     O_R   0.708210 0.582550 0.530770 -0.644083
O7    O     O_R   0.270260 0.395900 0.573760 -0.648028
O8    O     O_R   0.537060 0.322180 0.411040 -0.637495
O9    O     O_R   0.484470 0.699370 0.484430 -0.643887
O10   O     O_R   0.404710 0.279110 0.530840 -0.642640
O11   O     O_R   0.573760 0.699350 0.573690 -0.642202
O12   O     O_R   0.714470 0.499570 0.411000 -0.639607
O13   O     O_R   0.307050 0.521980 0.484470 -0.646566
Zn1   Zn    Zn3+2 0.574690 0.574670 0.574650 0.959096
Zn2   Zn    Zn3+2 0.583640 0.456100 0.403530 0.968833
Zn3   Zn    Zn3+2 0.447120 0.574690 0.447120 0.960603
Zn4   Zn    Zn3+2 0.394550 0.394550 0.574700 0.956813

loop_
_geom_bond_atom_site_label_1
_geom_bond_atom_site_label_2
_ccdc_geom_bond_type
C22   C48   S    
C55   C56   A    
C3    C42   A    
C17   H12   S    
C27   C29   A    
C52   H33   S    
O1    Zn4   S    
C50   H22   S    
C46   H19   S    
C28   O13   A    
C4    O9    A    
C12   C23   A    
C45   C57   A    
C26   C27   A    
C24   C36   A    
C22   C32   A    
C30   C35   A    
O9    Zn3   S    
O6    Zn1   S    
C44   H20   S    
C20   C51   S    
C31   C36   A    
C11   C14   A    
C56   C57   A    
C30   C38   A    
C37   H41   S    
C12   H13   S    
O10   Zn4   S    
C1    O10   A    
C6    C15   A    
C46   C47   S    
C41   C55   A    
C28   O7    A    
C8    C9    A    
C35   H7    S    
C18   H40   S    
C10   H39   S    
C53   H31   S    
C9    C10   A    
C5    C43   A    
C16   C24   S    
O2    Zn2   S    
O1    Zn3   S    
C46   H18   S    
C44   C46   S    
C39   O2    A    
C39   C42   S    
C51   C52   S    
O1    Zn2   S    
C47   H16   S    
C24   C37   A    
C2    C54   A    
C41   H8    S    
C2    H9    S    
C25   C26   A    
C22   C37   A    
C5    C45   A    
C7    C20   A    
C8    H38   S    
O7    Zn4   S    
C33   H42   S    
C23   H11   S    
O4    Zn3   S    
C26   H6    S    
O8    Zn2   S    
C29   C30   A    
C27   H5    S    
C25   C38   A    
C40   O5    A    
C6    H23   S    
C31   C32   A    
C28   C38   S    
C23   C34   A    
C17   C18   A    
C13   C21   A    
C53   H30   S    
C34   C45   A    
C25   H4    S    
C57   H14   S    
O11   Zn1   S    
C16   O6    A    
C51   H36   S    
C13   C18   A    
C48   C49   S    
C1    O8    A    
C34   C54   A    
C7    C19   A    
C53   H32   S    
C48   H29   S    
C52   H35   S    
C52   C53   S    
C50   H25   S    
C49   H27   S    
C15   C17   A    
C4    O11   A    
C54   C55   A    
C3    C41   A    
C9    C44   S    
C1    C7    S    
C14   C19   A    
C48   H28   S    
C19   H34   S    
O1    Zn1   S    
C47   H17   S    
C36   H3    S    
C8    C21   A    
C39   O4    A    
C12   C43   A    
C6    C20   A    
C56   H2    S    
C32   C33   A    
C49   H26   S    
C44   H21   S    
C29   C31   A    
C4    C21   S    
C11   C13   A    
C2    C42   A    
C33   C35   A    
O12   Zn2   S    
C47   H15   S    
O3    Zn4   S    
C10   C11   A    
C51   H37   S    
C40   O3    A    
O5    Zn1   S    
C3    H1    S    
C50   H24   S    
C43   H10   S    
C49   C50   S    
C5    C40   S    
C14   C15   A    
O13   Zn3   S    
C16   O12   A    
