data_mof_unit_60334.cif
_audit_creation_date              2012-10-26T17:51:42-0400
_audit_creation_method            fapswitch 2.2
_symmetry_space_group_name_H-M    P1
_symmetry_Int_Tables_number       1
_space_group_crystal_system       triclinic
_cell_length_a                    21.863014
_cell_length_b                    21.863015
_cell_length_c                    38.91474
_cell_angle_alpha                 90.0
_cell_angle_beta                  89.999951
_cell_angle_gamma                 90.000012
_cell_volume                      18600.911171

loop_
_atom_site_label
_atom_site_type_symbol
_atom_type_description
_atom_site_fract_x
_atom_site_fract_y
_atom_site_fract_z
_atom_type_partial_charge
C1    C     C_R   0.500000 0.118095 0.500000 0.521989
C2    C     C_R   0.725383 0.432843 0.413245 -0.109123
C3    C     C_R   0.000000 0.500000 0.566166 0.511438
C4    C     C_R   0.000000 0.500000 0.933834 0.511438
C5    C     C_R   0.500000 0.000000 0.933834 0.511438
C6    C     C_R   1.000000 0.500000 0.066166 0.511438
C7    C     C_R   0.500000 0.000000 0.066166 0.511438
C8    C     C_R   0.452350 0.029086 0.376972 -0.039888
C9    C     C_R   0.970914 0.452350 0.376972 -0.039888
C10   C     C_R   0.547650 0.970914 0.376972 -0.039888
C11   C     C_R   0.029086 0.547650 0.376972 -0.039888
C12   C     C_R   0.452350 0.970914 0.623028 -0.039888
C13   C     C_R   0.567158 0.725383 0.413245 -0.109124
C14   C     C_R   0.970914 0.547650 0.623028 -0.039888
C15   C     C_R   0.547650 0.029086 0.623028 -0.039888
C16   C     C_R   0.029086 0.452350 0.623028 -0.039888
C17   C     C_R   0.952350 0.529086 0.876972 -0.039888
C18   C     C_R   0.470914 0.952350 0.876972 -0.039888
C19   C     C_R   0.047650 0.470914 0.876972 -0.039888
C20   C     C_R   0.529086 0.047650 0.876972 -0.039888
C21   C     C_R   0.952350 0.470914 0.123028 -0.039888
C22   C     C_R   0.470914 0.047650 0.123028 -0.039888
C23   C     C_R   0.047650 0.529086 0.123028 -0.039888
C24   C     C_R   0.274618 0.567157 0.413245 -0.109124
C25   C     C_R   0.529086 0.952350 0.123028 -0.039888
C26   C     C_R   0.453016 0.029073 0.341058 -0.124469
C27   C     C_R   0.970928 0.453016 0.341058 -0.124470
C28   C     C_R   0.546984 0.970928 0.341058 -0.124469
C29   C     C_R   0.029072 0.546984 0.341058 -0.124469
C30   C     C_R   0.453016 0.970928 0.658942 -0.124470
C31   C     C_R   0.970928 0.546984 0.658942 -0.124469
C32   C     C_R   0.546984 0.029072 0.658942 -0.124469
C33   C     C_R   0.029073 0.453016 0.658942 -0.124470
C34   C     C_R   0.953016 0.529072 0.841058 -0.124469
C35   C     C_R   0.432842 0.725382 0.586755 -0.109124
C36   C     C_R   0.470927 0.953016 0.841058 -0.124470
C37   C     C_R   0.046984 0.470927 0.841058 -0.124469
C38   C     C_R   0.529072 0.046984 0.841058 -0.124469
C39   C     C_R   0.953016 0.470927 0.158942 -0.124469
C40   C     C_R   0.470927 0.046984 0.158942 -0.124469
C41   C     C_R   0.046984 0.529072 0.158942 -0.124469
C42   C     C_R   0.529072 0.953016 0.158942 -0.124470
C43   C     C_R   0.500000 0.000000 0.322849 0.007285
C44   C     C_R   1.000000 0.500000 0.322849 0.007285
C45   C     C_R   0.500000 0.000000 0.677151 0.007285
C46   C     C_R   0.725382 0.567157 0.586755 -0.109124
C47   C     C_R   0.000000 0.500000 0.677151 0.007285
C48   C     C_R   0.000000 0.500000 0.822849 0.007285
C49   C     C_R   0.500000 0.000000 0.822849 0.007285
C50   C     C_R   1.000000 0.500000 0.177151 0.007285
C51   C     C_R   0.500000 0.000000 0.177151 0.007285
C52   C     C_R   0.500000 0.000000 0.395609 -0.016313
C53   C     C_R   0.000000 0.500000 0.395609 -0.016313
C54   C     C_R   0.500000 0.000000 0.604391 -0.016314
C55   C     C_R   0.000000 0.500000 0.604391 -0.016314
C56   C     C_R   0.000000 0.500000 0.895609 -0.016313
C57   C     C_R   0.567157 0.274618 0.586755 -0.109124
C58   C     C_R   0.500000 0.000000 0.895609 -0.016313
C59   C     C_R   1.000000 0.500000 0.104391 -0.016314
C60   C     C_R   0.500000 1.000000 0.104391 -0.016314
C61   C     C_R   0.500000 0.000000 0.215107 0.349635
C62   C     C_R   1.000000 0.500000 0.215107 0.349634
C63   C     C_R   0.500000 0.000000 0.784893 0.349634
C64   C     C_R   0.000000 0.500000 0.784893 0.349635
C65   C     C_R   0.000000 0.500000 0.715107 0.349635
C66   C     C_R   0.500000 0.000000 0.715107 0.349635
C67   C     C_R   1.000000 0.500000 0.284893 0.349634
C68   C     C_R   0.274617 0.432843 0.586755 -0.109124
C69   C     C_R   0.500000 0.000000 0.284893 0.349635
C70   C     C_R   0.478466 0.185151 0.438044 -0.077063
C71   C     C_R   0.814849 0.478465 0.438044 -0.077063
C72   C     C_R   0.521535 0.814849 0.438044 -0.077063
C73   C     C_R   0.185151 0.521534 0.438044 -0.077063
C74   C     C_R   0.478465 0.814849 0.561956 -0.077063
C75   C     C_R   0.814849 0.521535 0.561956 -0.077063
C76   C     C_R   0.521534 0.185151 0.561956 -0.077064
C77   C     C_R   0.185151 0.478466 0.561956 -0.077063
C78   C     C_R   0.978466 0.685151 0.938043 -0.077064
C79   C     C_R   0.932843 0.774617 0.913245 -0.109124
C80   C     C_R   0.314850 0.978466 0.938043 -0.077063
C81   C     C_R   0.021534 0.314849 0.938043 -0.077063
C82   C     C_R   0.685151 0.021535 0.938044 -0.077063
C83   C     C_R   0.978466 0.314850 0.061956 -0.077063
C84   C     C_R   0.314849 0.021534 0.061956 -0.077063
C85   C     C_R   0.021534 0.685150 0.061956 -0.077063
C86   C     C_R   0.685150 0.978465 0.061956 -0.077063
C87   C     C_R   0.455175 0.215567 0.409558 -0.109665
C88   C     C_R   0.784433 0.455175 0.409558 -0.109666
C89   C     C_R   0.544825 0.784433 0.409558 -0.109666
C90   C     C_R   0.225383 0.932844 0.913245 -0.109123
C91   C     C_R   0.215568 0.544825 0.409558 -0.109666
C92   C     C_R   0.455174 0.784432 0.590441 -0.109665
C93   C     C_R   0.784432 0.544825 0.590442 -0.109665
C94   C     C_R   0.544825 0.215567 0.590442 -0.109665
C95   C     C_R   0.215567 0.455175 0.590442 -0.109665
C96   C     C_R   0.955175 0.715568 0.909558 -0.109665
C97   C     C_R   0.284433 0.955176 0.909558 -0.109666
C98   C     C_R   0.044824 0.284432 0.909558 -0.109665
C99   C     C_R   0.715568 0.044826 0.909559 -0.109665
C100  C     C_R   0.955176 0.284433 0.090442 -0.109665
C101  C     C_R   0.067157 0.225382 0.913245 -0.109124
C102  C     C_R   0.284432 0.044825 0.090442 -0.109666
C103  C     C_R   0.044824 0.715567 0.090442 -0.109666
C104  C     C_R   0.715567 0.955175 0.090441 -0.109666
C105  C     C_1   0.402550 0.060703 0.393742 0.205803
C106  C     C_1   0.939297 0.402550 0.393742 0.205803
C107  C     C_1   0.597450 0.939297 0.393742 0.205803
C108  C     C_1   0.060703 0.597450 0.393742 0.205803
C109  C     C_1   0.402550 0.939297 0.606258 0.205803
C110  C     C_1   0.939297 0.597450 0.606258 0.205802
C111  C     C_1   0.597450 0.060703 0.606258 0.205802
C112  C     C_R   0.881905 0.500000 0.500000 0.521989
C113  C     C_R   0.774618 0.067158 0.913245 -0.109124
C114  C     C_1   0.060703 0.402550 0.606258 0.205803
C115  C     C_1   0.902550 0.560703 0.893741 0.205802
C116  C     C_1   0.439297 0.902550 0.893742 0.205803
C117  C     C_1   0.097450 0.439297 0.893741 0.205803
C118  C     C_1   0.560703 0.097450 0.893741 0.205803
C119  C     C_1   0.902550 0.439297 0.106258 0.205803
C120  C     C_1   0.439297 0.097450 0.106258 0.205803
C121  C     C_1   0.097450 0.560703 0.106258 0.205803
C122  C     C_1   0.560703 0.902550 0.106258 0.205802
C123  C     C_1   0.394020 0.352157 0.451012 0.231022
C124  C     C_R   0.932844 0.225383 0.086755 -0.109124
C125  C     C_1   0.647843 0.394020 0.451012 0.231022
C126  C     C_1   0.605980 0.647843 0.451012 0.231022
C127  C     C_1   0.352157 0.605980 0.451012 0.231023
C128  C     C_1   0.394019 0.647844 0.548988 0.231022
C129  C     C_1   0.647843 0.605980 0.548988 0.231022
C130  C     C_1   0.605980 0.352156 0.548988 0.231022
C131  C     C_1   0.352156 0.394020 0.548988 0.231022
C132  C     C_1   0.894020 0.852156 0.951012 0.231022
C133  C     C_1   0.147843 0.894020 0.951011 0.231021
C134  C     C_1   0.105980 0.147843 0.951012 0.231022
C135  C     C_R   0.225382 0.067157 0.086755 -0.109124
C136  C     C_1   0.852156 0.105981 0.951013 0.231020
C137  C     C_1   0.894021 0.147843 0.048990 0.231023
C138  C     C_1   0.147843 0.105980 0.048988 0.231022
C139  C     C_1   0.105980 0.852157 0.048988 0.231021
C140  C     C_1   0.852157 0.894020 0.048988 0.231022
C141  C     C_R   0.067157 0.774617 0.086755 -0.109123
C142  C     C_R   0.774617 0.932843 0.086755 -0.109123
C143  C     C_R   0.439028 0.305491 0.444584 0.027030
C144  C     C_R   0.694509 0.439028 0.444584 0.027029
C145  C     C_R   0.560972 0.694509 0.444584 0.027029
C146  C     C_R   0.305491 0.560972 0.444584 0.027029
C147  C     C_R   0.439027 0.694509 0.555416 0.027029
C148  C     C_R   0.500000 0.881905 0.500000 0.521989
C149  C     C_R   0.694509 0.560972 0.555416 0.027029
C150  C     C_R   0.560972 0.305491 0.555416 0.027029
C151  C     C_R   0.305491 0.439028 0.555416 0.027029
C152  C     C_R   0.939028 0.805491 0.944584 0.027030
C153  C     C_R   0.194509 0.939028 0.944584 0.027029
C154  C     C_R   0.060972 0.194509 0.944584 0.027029
C155  C     C_R   0.805491 0.060973 0.944584 0.027030
C156  C     C_R   0.939028 0.194509 0.055416 0.027029
C157  C     C_R   0.194509 0.060972 0.055416 0.027030
C158  C     C_R   0.060972 0.805491 0.055416 0.027029
C159  C     C_R   0.118095 0.500000 0.500000 0.521989
C160  C     C_R   0.805491 0.939028 0.055416 0.027030
C161  C     C_R   0.474822 0.279525 0.471524 0.009973
C162  C     C_R   0.720475 0.474822 0.471524 0.009973
C163  C     C_R   0.525178 0.720475 0.471524 0.009973
C164  C     C_R   0.279525 0.525178 0.471524 0.009973
C165  C     C_R   0.474822 0.720475 0.528476 0.009973
C166  C     C_R   0.720475 0.525178 0.528476 0.009973
C167  C     C_R   0.525178 0.279525 0.528476 0.009973
C168  C     C_R   0.279525 0.474822 0.528476 0.009973
C169  C     C_R   0.974822 0.779525 0.971524 0.009973
C170  C     C_R   0.000000 0.618094 1.000000 0.521989
C171  C     C_R   0.220475 0.974822 0.971523 0.009973
C172  C     C_R   0.025178 0.220475 0.971524 0.009973
C173  C     C_R   0.779525 0.025178 0.971524 0.009972
C174  C     C_R   0.974822 0.220475 0.028477 0.009973
C175  C     C_R   0.220475 0.025178 0.028476 0.009973
C176  C     C_R   0.025178 0.779525 0.028476 0.009972
C177  C     C_R   0.779525 0.974822 0.028476 0.009973
C178  C     C_R   0.485587 0.215996 0.469715 0.001521
C179  C     C_R   0.784004 0.485586 0.469715 0.001521
C180  C     C_R   0.514414 0.784004 0.469715 0.001521
C181  C     C_R   0.381905 0.000000 0.000000 0.521989
C182  C     C_R   0.215996 0.514413 0.469715 0.001521
C183  C     C_R   0.485586 0.784004 0.530285 0.001521
C184  C     C_R   0.784004 0.514413 0.530285 0.001521
C185  C     C_R   0.514413 0.215996 0.530285 0.001521
C186  C     C_R   0.215996 0.485587 0.530285 0.001521
C187  C     C_R   0.985587 0.715996 0.969715 0.001521
C188  C     C_R   0.284004 0.985587 0.969715 0.001521
C189  C     C_R   0.014413 0.284004 0.969715 0.001521
C190  C     C_R   0.715996 0.014414 0.969715 0.001521
C191  C     C_R   0.985587 0.284004 0.030285 0.001521
C192  C     C_R   1.000000 0.381905 1.000000 0.521989
C193  C     C_R   0.284004 0.014413 0.030285 0.001521
C194  C     C_R   0.014413 0.715996 0.030285 0.001521
C195  C     C_R   0.715996 0.985586 0.030285 0.001521
C196  C     C_R   0.500000 0.312868 0.500000 0.006561
C197  C     C_R   0.687132 0.500000 0.500000 0.006561
C198  C     C_R   0.500000 0.687132 0.500000 0.006561
C199  C     C_R   0.312868 0.500000 0.500000 0.006561
C200  C     C_R   1.000000 0.812868 0.000000 0.006560
C201  C     C_R   0.187132 1.000000 1.000000 0.006560
C202  C     C_R   1.000000 0.187132 0.000000 0.006561
C203  C     C_R   0.618094 1.000000 1.000000 0.521989
C204  C     C_R   0.812868 0.000000 0.000000 0.006560
C205  C     C_R   0.500000 0.184315 0.500000 -0.000408
C206  C     C_R   0.815685 0.500000 0.500000 -0.000408
C207  C     C_R   0.500000 0.815685 0.500000 -0.000408
C208  C     C_R   0.184315 0.500000 0.500000 -0.000408
C209  C     C_R   1.000000 0.684315 1.000000 -0.000408
C210  C     C_R   0.315685 1.000000 0.000000 -0.000408
C211  C     C_R   1.000000 0.315685 1.000000 -0.000407
C212  C     C_R   0.684315 1.000000 1.000000 -0.000408
C213  C     C_R   0.619228 0.500000 0.500000 0.575910
C214  C     C_R   0.432843 0.274617 0.413245 -0.109124
C215  C     C_R   0.500000 0.619228 0.500000 0.575910
C216  C     C_R   0.380772 0.500000 0.500000 0.575910
C217  C     C_R   0.500000 0.380772 0.500000 0.575910
C218  C     C_R   0.119228 1.000000 1.000000 0.575909
C219  C     C_R   1.000000 0.119228 0.000000 0.575910
C220  C     C_R   0.880772 0.000000 0.000000 0.575909
C221  C     C_R   0.000000 0.880772 0.000000 0.575909
C222  C     C_R   0.500000 0.000000 0.433834 0.511438
C223  C     C_R   0.000000 0.500000 0.433834 0.511438
C224  C     C_R   0.500000 0.000000 0.566166 0.511438
Cu1   Cu    Cu3+1 0.561710 0.000000 0.500000 1.024263
Cu2   Cu    Cu3+1 0.500000 0.500000 0.465670 1.007019
Cu3   Cu    Cu3+1 0.000000 0.000000 0.034330 1.007021
Cu4   Cu    Cu3+1 0.000000 0.000000 0.965670 1.007019
Cu5   Cu    Cu3+1 0.000000 0.561710 0.500000 1.024263
Cu6   Cu    Cu3+1 0.438290 0.000000 0.500000 1.024263
Cu7   Cu    Cu3+1 0.000000 0.438290 0.500000 1.024263
Cu8   Cu    Cu3+1 0.061710 0.500000 0.000000 1.024263
Cu9   Cu    Cu3+1 0.500000 0.061710 0.000000 1.024263
Cu10  Cu    Cu3+1 0.938290 0.500000 0.000000 1.024263
Cu11  Cu    Cu3+1 0.500000 0.938290 0.000000 1.024263
Cu12  Cu    Cu3+1 0.500000 0.500000 0.534330 1.007019
H1    H     H_    0.416316 0.051678 0.327270 0.145639
H2    H     H_    0.448322 0.916316 0.827270 0.145639
H3    H     H_    0.083684 0.448322 0.827270 0.145639
H4    H     H_    0.551678 0.083684 0.827270 0.145639
H5    H     H_    0.916316 0.448322 0.172730 0.145639
H6    H     H_    0.448322 0.083684 0.172730 0.145639
H7    H     H_    0.083684 0.551678 0.172730 0.145639
H8    H     H_    0.551678 0.916316 0.172730 0.145639
H9    H     H_    0.550278 0.191623 0.614596 0.131166
H10   H     H_    0.808377 0.550278 0.614596 0.131166
H11   H     H_    0.449721 0.808376 0.614596 0.131166
H12   H     H_    0.948322 0.416316 0.327270 0.145639
H13   H     H_    0.191623 0.449722 0.614596 0.131165
H14   H     H_    0.550279 0.808377 0.385404 0.131166
H15   H     H_    0.808377 0.449722 0.385404 0.131166
H16   H     H_    0.449722 0.191623 0.385404 0.131166
H17   H     H_    0.191623 0.550278 0.385404 0.131166
H18   H     H_    0.050277 0.691623 0.114596 0.131165
H19   H     H_    0.308376 0.050278 0.114596 0.131166
H20   H     H_    0.949724 0.308378 0.114597 0.131165
H21   H     H_    0.691623 0.949722 0.114596 0.131166
H22   H     H_    0.050277 0.308376 0.885404 0.131166
H23   H     H_    0.583684 0.948322 0.327270 0.145638
H24   H     H_    0.308377 0.949723 0.885404 0.131166
H25   H     H_    0.949722 0.691623 0.885404 0.131166
H26   H     H_    0.691624 0.050279 0.885404 0.131166
H27   H     H_    0.490503 0.137425 0.435163 0.123681
H28   H     H_    0.862575 0.490503 0.435163 0.123681
H29   H     H_    0.509498 0.862575 0.435163 0.123681
H30   H     H_    0.137425 0.509497 0.435163 0.123680
H31   H     H_    0.490502 0.862575 0.564837 0.123680
H32   H     H_    0.862575 0.509497 0.564837 0.123680
H33   H     H_    0.509497 0.137425 0.564837 0.123680
H34   H     H_    0.051678 0.583684 0.327270 0.145639
H35   H     H_    0.137425 0.490503 0.564837 0.123680
H36   H     H_    0.990503 0.637425 0.935163 0.123680
H37   H     H_    0.362575 0.990503 0.935163 0.123681
H38   H     H_    0.009497 0.362574 0.935162 0.123680
H39   H     H_    0.637426 0.009498 0.935162 0.123680
H40   H     H_    0.990504 0.362575 0.064837 0.123681
H41   H     H_    0.362574 0.009497 0.064838 0.123680
H42   H     H_    0.009497 0.637425 0.064837 0.123680
H43   H     H_    0.637425 0.990503 0.064837 0.123681
H44   H     H_    0.407102 0.294744 0.392288 0.123645
H45   H     H_    0.416316 0.948322 0.672730 0.145639
H46   H     H_    0.705256 0.407102 0.392288 0.123645
H47   H     H_    0.592899 0.705256 0.392288 0.123645
H48   H     H_    0.294744 0.592898 0.392288 0.123645
H49   H     H_    0.407100 0.705256 0.607711 0.123645
H50   H     H_    0.705256 0.592898 0.607711 0.123645
H51   H     H_    0.592898 0.294744 0.607712 0.123645
H52   H     H_    0.294744 0.407102 0.607712 0.123645
H53   H     H_    0.907102 0.794744 0.892288 0.123645
H54   H     H_    0.205257 0.907103 0.892288 0.123645
H55   H     H_    0.092898 0.205256 0.892288 0.123645
H56   H     H_    0.948322 0.583684 0.672730 0.145639
H57   H     H_    0.794745 0.092899 0.892289 0.123645
H58   H     H_    0.907104 0.205257 0.107712 0.123645
H59   H     H_    0.205256 0.092898 0.107712 0.123645
H60   H     H_    0.092897 0.794744 0.107712 0.123645
H61   H     H_    0.794743 0.907102 0.107712 0.123645
H62   H     H_    0.583684 0.051678 0.672730 0.145639
H63   H     H_    0.051678 0.416316 0.672730 0.145639
H64   H     H_    0.916316 0.551678 0.827270 0.145638
N1    N     N_R   0.537807 0.962274 0.267097 -0.224233
N2    N     N_R   0.537726 0.037807 0.767097 -0.224232
N3    N     N_R   0.962193 0.537726 0.767097 -0.224232
N4    N     N_R   0.462274 0.962193 0.767097 -0.224232
N5    N     N_R   0.037807 0.537726 0.232903 -0.224232
N6    N     N_R   0.537726 0.962193 0.232903 -0.224232
N7    N     N_R   0.962193 0.462274 0.232903 -0.224232
N8    N     N_R   0.462274 0.037807 0.232903 -0.224232
N9    N     N_1   0.362585 0.086007 0.407100 -0.269636
N10   N     N_1   0.913993 0.362585 0.407100 -0.269636
N11   N     N_1   0.637415 0.913994 0.407100 -0.269636
N12   N     N_R   0.037726 0.537807 0.267097 -0.224233
N13   N     N_1   0.086007 0.637415 0.407100 -0.269636
N14   N     N_1   0.362585 0.913994 0.592900 -0.269637
N15   N     N_1   0.913993 0.637415 0.592900 -0.269636
N16   N     N_1   0.637415 0.086006 0.592900 -0.269636
N17   N     N_1   0.086007 0.362585 0.592900 -0.269636
N18   N     N_1   0.862585 0.586007 0.907100 -0.269636
N19   N     N_1   0.413993 0.862585 0.907100 -0.269636
N20   N     N_1   0.137415 0.413993 0.907100 -0.269636
N21   N     N_1   0.586007 0.137414 0.907100 -0.269637
N22   N     N_1   0.862585 0.413993 0.092900 -0.269636
N23   N     N_R   0.462193 0.037726 0.267097 -0.224232
N24   N     N_1   0.413993 0.137415 0.092900 -0.269637
N25   N     N_1   0.137414 0.586007 0.092900 -0.269636
N26   N     N_1   0.586006 0.862585 0.092900 -0.269636
N27   N     N_1   0.356125 0.388058 0.455629 -0.289806
N28   N     N_1   0.611942 0.356125 0.455629 -0.289806
N29   N     N_1   0.643875 0.611942 0.455629 -0.289806
N30   N     N_1   0.388058 0.643874 0.455629 -0.289805
N31   N     N_1   0.356125 0.611943 0.544370 -0.289807
N32   N     N_1   0.611942 0.643875 0.544371 -0.289806
N33   N     N_1   0.643875 0.388058 0.544371 -0.289806
N34   N     N_R   0.962274 0.462193 0.267097 -0.224232
N35   N     N_1   0.388058 0.356125 0.544371 -0.289805
N36   N     N_1   0.856125 0.888058 0.955629 -0.289805
N37   N     N_1   0.111941 0.856126 0.955628 -0.289805
N38   N     N_1   0.143875 0.111942 0.955629 -0.289806
N39   N     N_1   0.888057 0.143876 0.955630 -0.289808
N40   N     N_1   0.856128 0.111940 0.044374 -0.289804
N41   N     N_1   0.111942 0.143874 0.044371 -0.289806
N42   N     N_1   0.143874 0.888058 0.044372 -0.289806
N43   N     N_1   0.888058 0.856126 0.044371 -0.289805
N44   N     N_R   0.537807 0.037726 0.732903 -0.224232
N45   N     N_R   0.037726 0.462193 0.732903 -0.224232
N46   N     N_R   0.462193 0.962275 0.732903 -0.224233
N47   N     N_R   0.962274 0.537807 0.732903 -0.224233
N48   N     N_R   0.037807 0.462274 0.767097 -0.224233
O1    O     O_R   0.552090 0.090090 0.500110 -0.500092
O2    O     O_R   0.409910 0.052090 0.000110 -0.500092
O3    O     O_R   0.947910 0.409910 0.000110 -0.500092
O4    O     O_R   0.590090 0.947910 0.000110 -0.500091
O5    O     O_R   0.052090 0.409910 0.999890 -0.500091
O6    O     O_R   0.409910 0.947910 0.999890 -0.500091
O7    O     O_R   0.947910 0.590090 0.999890 -0.500092
O8    O     O_R   0.590090 0.052090 0.999890 -0.500092
O9    O     O_R   0.552090 0.999930 0.450180 -0.496908
O10   O     O_R   0.000070 0.552090 0.450180 -0.496908
O11   O     O_R   0.447910 0.000070 0.450180 -0.496907
O12   O     O_R   0.909910 0.552090 0.500110 -0.500092
O13   O     O_R   0.999930 0.447910 0.450180 -0.496907
O14   O     O_R   0.552090 0.000070 0.549820 -0.496908
O15   O     O_R   0.000070 0.447910 0.549820 -0.496908
O16   O     O_R   0.447910 0.999930 0.549820 -0.496908
O17   O     O_R   0.999930 0.552090 0.549820 -0.496908
O18   O     O_R   0.052090 0.499930 0.950180 -0.496908
O19   O     O_R   0.500070 0.052090 0.950180 -0.496908
O20   O     O_R   0.947910 0.500070 0.950180 -0.496908
O21   O     O_R   0.499930 0.947910 0.950180 -0.496907
O22   O     O_R   0.052090 0.500070 0.049820 -0.496908
O23   O     O_R   0.447910 0.909910 0.500110 -0.500091
O24   O     O_R   0.500070 0.947910 0.049820 -0.496908
O25   O     O_R   0.947910 0.499930 0.049820 -0.496908
O26   O     O_R   0.499930 0.052090 0.049820 -0.496908
O27   O     O_R   0.590060 0.499930 0.529020 -0.500528
O28   O     O_R   0.500070 0.590060 0.529020 -0.500528
O29   O     O_R   0.409940 0.500070 0.529020 -0.500528
O30   O     O_R   0.499930 0.409940 0.529020 -0.500528
O31   O     O_R   0.590060 0.500070 0.470980 -0.500528
O32   O     O_R   0.500070 0.409940 0.470980 -0.500527
O33   O     O_R   0.409940 0.499930 0.470980 -0.500528
O34   O     O_R   0.090090 0.447910 0.500110 -0.500092
O35   O     O_R   0.499930 0.590060 0.470980 -0.500527
O36   O     O_R   0.090060 0.999930 0.029020 -0.500527
O37   O     O_R   0.000070 0.090060 0.029020 -0.500528
O38   O     O_R   0.909940 0.000070 0.029020 -0.500526
O39   O     O_R   0.999930 0.909940 0.029020 -0.500528
O40   O     O_R   0.090060 0.000070 0.970980 -0.500528
O41   O     O_R   0.000070 0.909940 0.970980 -0.500527
O42   O     O_R   0.909940 0.999930 0.970980 -0.500528
O43   O     O_R   0.999930 0.090060 0.970980 -0.500528
O44   O     O_R   0.552090 0.909910 0.499890 -0.500092
O45   O     O_R   0.909910 0.447910 0.499890 -0.500091
O46   O     O_R   0.447910 0.090090 0.499890 -0.500092
O47   O     O_R   0.090090 0.552090 0.499890 -0.500092
O48   O     O_R   0.052090 0.590090 0.000110 -0.500092

loop_
_geom_bond_atom_site_label_1
_geom_bond_atom_site_label_2
_ccdc_geom_bond_type
C7    O24   A    
C52   C222  S    
C8    C26   A    
C32   C45   A    
C7    C60   S    
C30   C45   A    
C131  C151  S    
C161  C196  A    
C20   C118  S    
C15   C32   A    
C170  O7    A    
Cu8   O18   S    
C203  O8    A    
C31   C47   A    
C213  O31   A    
C22   C60   A    
C37   H3    S    
C75   C184  A    
C125  C144  S    
Cu9   O2    S    
C167  C185  A    
C108  N13   T    
C62   N7    A    
C102  H19   S    
Cu9   O8    S    
C74   C92   A    
C190  C212  A    
Cu7   O15   S    
C19   C37   A    
C159  O34   A    
C76   C94   A    
C188  C210  A    
C18   C58   A    
C163  C198  A    
C78   C96   A    
C25   C60   A    
Cu12  O28   S    
C85   C103  A    
C174  C191  A    
C98   H22   S    
C4    C56   S    
C70   H27   S    
C113  C155  A    
C116  N19   T    
C132  N36   T    
N2    N44   A    
C68   C95   A    
C89   H14   S    
C165  C183  A    
C15   C54   A    
C166  C184  A    
C169  C187  A    
C2    H46   S    
C38   C49   A    
Cu11  O21   S    
C125  N28   T    
C100  C124  A    
C22   C120  S    
C185  C205  A    
Cu3   Cu4   S    
C28   H23   S    
C76   H33   S    
Cu8   Cu10  S    
C177  C204  A    
C66   N46   A    
C90   C153  A    
C81   C189  A    
C169  C200  A    
C41   H7    S    
C83   C100  A    
C126  N29   T    
C33   C47   A    
C34   C48   A    
C17   C34   A    
C75   C93   A    
C71   H28   S    
Cu7   O34   S    
C177  C195  A    
Cu1   O44   S    
C221  O39   A    
C128  C147  S    
C21   C59   A    
C216  O33   A    
C53   C223  S    
N5    N12   A    
C145  C163  A    
C6    O25   A    
Cu1   Cu6   S    
C23   C41   A    
C186  C208  A    
C79   C96   A    
C21   C119  S    
C68   C151  A    
C165  C198  A    
C122  N26   T    
C26   H1    S    
C120  N24   T    
C67   N34   A    
Cu2   O35   S    
C182  C208  A    
C85   C194  A    
C94   H9    S    
N7    N34   A    
C73   H30   S    
C38   H4    S    
C71   C88   A    
C33   H63   S    
C34   H64   S    
Cu7   O13   S    
C67   N12   A    
C103  H18   S    
Cu10  O7    S    
C3    O15   A    
C181  O2    A    
C100  H20   S    
C115  N18   T    
C143  C161  A    
C191  C211  A    
C19   C56   A    
C148  O23   A    
Cu3   O36   S    
C135  C157  A    
C217  O32   A    
C80   C97   A    
C183  C207  A    
C13   C145  A    
C14   C31   A    
C218  O40   A    
C8    C105  S    
C196  C217  S    
C23   C59   A    
C139  C158  S    
C69   N1    A    
C5    C58   S    
C200  C221  S    
Cu6   O11   S    
C86   C195  A    
C64   N48   A    
Cu2   Cu12  S    
C81   H38   S    
C4    O18   A    
C102  C135  A    
C192  O5    A    
C218  O36   A    
C147  C165  A    
C148  C207  S    
C105  N9    T    
C3    C55   S    
C27   C44   A    
Cu8   O48   S    
C107  N11   T    
C128  N31   T    
C130  C150  S    
C35   H49   S    
C136  N39   T    
C8    C52   A    
C164  C199  A    
C62   N5    A    
C14   C55   A    
C63   N4    A    
C43   C69   S    
C84   H41   S    
C64   N3    A    
Cu2   O32   S    
C77   C186  A    
C73   C91   A    
C124  H58   S    
C70   C87   A    
C103  C141  A    
C126  C145  S    
C113  H57   S    
C168  C186  A    
Cu4   O41   S    
C136  C155  S    
C32   H62   S    
C141  H60   S    
Cu6   O23   S    
C91   H17   S    
Cu3   O38   S    
C146  C164  A    
Cu2   O33   S    
C1    O46   A    
C181  C210  S    
C129  C149  S    
C74   H31   S    
Cu10  O3    S    
C80   C188  A    
C114  N17   T    
C172  C202  A    
C17   C56   A    
C79   H53   S    
C57   C94   A    
Cu6   O46   S    
C110  N15   T    
C72   C180  A    
C20   C58   A    
C219  O43   A    
C17   C115  S    
C14   C110  S    
C6    C59   S    
C16   C114  S    
C40   C51   A    
C133  N37   T    
C82   H39   S    
C4    O20   A    
C195  C212  A    
C140  C160  S    
C7    O26   A    
C73   C182  A    
C111  N16   T    
C101  C154  A    
C142  H61   S    
Cu1   O14   S    
C80   H37   S    
C87   C214  A    
C175  C193  A    
C222  O11   A    
Cu7   O45   S    
Cu10  O25   S    
C69   N23   A    
C46   C149  A    
C2    C144  A    
C63   N2    A    
C11   C108  S    
C44   C67   S    
N4    N46   A    
C78   C187  A    
C5    O19   A    
C129  N32   T    
C76   C185  A    
C97   H24   S    
C216  O29   A    
C39   H5    S    
C24   C91   A    
C82   C99   A    
C112  O12   A    
Cu4   O43   S    
C10   C52   A    
C57   H51   S    
Cu8   O5    S    
C23   C121  S    
C130  N33   T    
C156  C174  A    
C171  C188  A    
C204  C220  S    
C83   C191  A    
C168  C199  A    
C3    O17   A    
C201  C218  S    
C109  N14   T    
Cu11  O24   S    
C48   C64   S    
C81   C98   A    
C173  C190  A    
C174  C202  A    
C184  C206  A    
C220  O38   A    
C77   H35   S    
Cu5   O10   S    
C78   H36   S    
C180  C207  A    
C90   C97   A    
Cu12  O29   S    
C13   C89   A    
C35   C92   A    
C215  O35   A    
C86   C104  A    
Cu10  O20   S    
C148  O44   A    
C176  C200  A    
C198  C215  S    
C181  O6    A    
C75   H32   S    
C36   H2    S    
C159  O47   A    
C61   N6    A    
C1    O1    A    
C217  O30   A    
C18   C116  S    
C13   H47   S    
C223  O13   A    
Cu5   O17   S    
C30   H45   S    
C222  O9    A    
C46   H50   S    
Cu4   O40   S    
Cu6   O16   S    
C187  C209  A    
C54   C224  S    
Cu3   O39   S    
C65   N45   A    
Cu12  O27   S    
C88   H15   S    
Cu9   O19   S    
C203  O4    A    
C127  N30   T    
C104  C142  A    
C9    C53   A    
C41   C50   A    
C101  H55   S    
C197  C213  S    
C9    C27   A    
C213  O27   A    
C10   C28   A    
C12   C30   A    
C106  N10   T    
C25   C42   A    
C99   C113  A    
C117  N20   T    
C172  C189  A    
C98   C101  A    
C28   C43   A    
Cu5   O47   S    
C166  C197  A    
C112  C206  S    
Cu5   Cu7   S    
C24   C146  A    
C27   H12   S    
C152  C169  A    
C121  N25   T    
C134  C154  S    
N1    N6    A    
C90   H54   S    
Cu8   O22   S    
C150  C167  A    
C123  N27   T    
C72   H29   S    
Cu5   O12   S    
C221  O41   A    
C160  C177  A    
C164  C182  A    
C93   H10   S    
C127  C146  S    
C141  C158  A    
C19   C117  S    
C224  O14   A    
C85   H42   S    
C140  N43   T    
C176  C194  A    
C161  C178  A    
C18   C36   A    
C12   C54   A    
C36   C49   A    
C96   H25   S    
C49   C63   S    
C214  H44   S    
C167  C196  A    
C51   C61   S    
C159  C208  S    
C95   H13   S    
C193  C210  A    
C215  O28   A    
C170  C209  S    
C162  C197  A    
C173  C204  A    
C133  C153  S    
C29   H34   S    
Cu4   O42   S    
Cu11  O4    S    
Cu3   O37   S    
C137  N40   T    
C170  O48   A    
C151  C168  A    
C178  C205  A    
C71   C179  A    
C65   N47   A    
C135  H59   S    
C5    O21   A    
C68   H52   S    
Cu1   O9    S    
C24   H48   S    
C99   H26   S    
C138  N41   T    
C2    C88   A    
C134  N38   T    
C1    C205  S    
C25   C122  S    
C11   C53   A    
C84   C102  A    
C131  N35   T    
C155  C173  A    
C179  C206  A    
C82   C190  A    
C10   C107  S    
C112  O45   A    
C12   C109  S    
C92   H11   S    
C26   C43   A    
C87   H16   S    
C139  N42   T    
C199  C216  S    
C15   C111  S    
C175  C201  A    
C189  C211  A    
C118  N21   T    
C31   H56   S    
C70   C178  A    
C74   C183  A    
C9    C106  S    
C77   C95   A    
C220  O42   A    
C137  C156  S    
N45   N48   A    
C202  C219  S    
C171  C201  A    
C192  C211  S    
C219  O37   A    
C16   C33   A    
C20   C38   A    
C21   C39   A    
C223  O10   A    
C84   C193  A    
C22   C40   A    
C57   C150  A    
C153  C171  A    
C224  O16   A    
C154  C172  A    
C35   C147  A    
C86   H43   S    
C37   C48   A    
Cu9   Cu11  S    
C162  C179  A    
N8    N23   A    
C157  C175  A    
C143  C214  A    
C158  C176  A    
C124  C156  A    
C66   N44   A    
Cu2   O31   S    
C50   C62   S    
C203  C212  S    
C83   H40   S    
Cu11  O6    S    
C163  C180  A    
C61   N8    A    
C6    O22   A    
C144  C162  A    
N3    N47   A    
C149  C166  A    
C142  C160  A    
C42   C51   A    
C16   C55   A    
C29   C44   A    
C194  C209  A    
C72   C89   A    
C138  C157  S    
C46   C93   A    
C132  C152  S    
C42   H8    S    
Cu1   O1    S    
C104  H21   S    
Cu9   O26   S    
C39   C50   A    
C11   C29   A    
C123  C143  S    
C45   C66   S    
C79   C152  A    
C47   C65   S    
C40   H6    S    
C119  N22   T    
C192  O3    A    
Cu12  O30   S    
