data_mof_unit_7762.cif
_audit_creation_date              2012-12-10T16:38:41-0500
_audit_creation_method            fapswitch 2.2
_symmetry_space_group_name_H-M    P1
_symmetry_Int_Tables_number       1
_space_group_crystal_system       triclinic
_cell_length_a                    10.835537
_cell_length_b                    10.830425
_cell_length_c                    17.913764
_cell_angle_alpha                 98.28591
_cell_angle_beta                  72.843569
_cell_angle_gamma                 98.637043
_cell_volume                      1974.8024533

loop_
_atom_site_label
_atom_site_type_symbol
_atom_type_description
_atom_site_fract_x
_atom_site_fract_y
_atom_site_fract_z
_atom_type_partial_charge
C1    C     C_R   0.157437 0.479985 0.517375 0.496474
C2    C     C_R   0.562868 0.379060 0.926299 -0.093744
C3    C     C_R   0.636763 0.328809 0.962944 -0.150221
C4    C     C_R   0.843213 0.520837 0.482337 0.505568
C5    C     C_R   0.627605 0.365466 0.041767 -0.001238
C6    C     C_R   0.534232 0.446094 0.086396 0.020153
C7    C     C_R   0.708197 0.318686 0.076957 -0.135866
C8    C     C_R   0.696693 0.349984 0.157508 0.252864
C9    C     C_R   0.508704 0.456485 0.168585 -0.167807
C10   C     C_2   0.981367 0.529404 0.475272 -0.124554
C11   C     C_2   0.021222 0.472950 0.524105 -0.107950
C12   C     C_R   0.302177 0.656613 0.840352 -0.185766
C13   C     C_2   0.547755 0.968397 0.478873 0.241616
C14   C     C_2   0.453557 0.035877 0.523010 -0.076910
C15   C     C_R   0.466048 0.168628 0.518499 0.528852
C16   C     C_R   0.531357 0.833364 0.483051 0.506683
C17   C     C_R   0.565115 0.435541 0.288137 0.544806
C18   C     C_R   0.436673 0.564016 0.712306 0.520854
C19   C     C_R   0.405525 0.588563 0.798604 -0.016856
C20   C     C_R   0.590460 0.412001 0.203318 0.034312
C21   C     C_R   0.275058 0.685733 0.921881 0.262008
C22   C     C_3   0.106024 0.666928 0.124238 0.051623
C23   C     C_R   0.479542 0.544780 0.839428 0.238990
C24   C     C_3   0.006228 0.759239 0.163467 -0.267765
C25   C     C_3   0.873409 0.691003 0.201523 -0.456076
C26   C     C_3   0.663739 0.014226 0.355954 -0.016704
C27   C     C_3   0.783392 0.090923 0.309441 -0.352548
C28   C     C_3   0.910759 0.329006 0.149056 -0.024510
C29   C     C_3   0.999145 0.346923 0.202792 -0.379796
C30   C     C_3   0.215850 0.886764 0.940191 0.016523
C31   C     C_3   0.286069 0.965659 0.996899 -0.244038
C32   C     C_3   0.323565 0.101298 0.977342 -0.497714
C33   C     C_3   0.696198 0.609494 0.802154 -0.004411
C34   C     C_R   0.434735 0.547401 0.922449 -0.080409
C35   C     C_3   0.827803 0.571740 0.752672 -0.356417
C36   C     C_3   0.485994 0.763544 0.151735 0.004270
C37   C     C_3   0.484679 0.829692 0.232571 -0.376351
C38   C     C_R   0.337785 0.626729 0.964163 -0.032234
C39   C     C_R   0.489033 0.478608 0.964615 -0.018198
C40   C     C_R   0.468236 0.508946 0.047020 -0.019668
C41   C     C_R   0.387658 0.604963 0.085247 0.229345
C42   C     C_R   0.311566 0.650547 0.046477 0.267243
H1    H     H_    0.780382 0.258988 0.041542 0.092660
H2    H     H_    0.069393 0.601536 0.079416 0.135349
H3    H     H_    0.040325 0.824305 0.209119 0.168342
H4    H     H_    0.996461 0.815717 0.118796 0.183544
H5    H     H_    0.835922 0.627563 0.156603 0.150304
H6    H     H_    0.803513 0.760608 0.229648 0.144762
H7    H     H_    0.880513 0.635262 0.247212 0.186779
H8    H     H_    0.576254 0.049401 0.349446 0.138537
H9    H     H_    0.667315 0.914571 0.330489 0.140722
H10   H     H_    0.872784 0.058080 0.314265 0.151164
H11   H     H_    0.784905 0.079927 0.246585 0.126768
H12   H     H_    0.050850 0.581672 0.430259 0.104750
H13   H     H_    0.781469 0.191730 0.332453 0.186987
H14   H     H_    0.932740 0.413282 0.116271 0.111863
H15   H     H_    0.934253 0.244289 0.106811 0.127310
H16   H     H_    0.990426 0.260291 0.231108 0.148139
H17   H     H_    0.101852 0.367697 0.167951 0.095955
H18   H     H_    0.972682 0.426328 0.248892 0.163137
H19   H     H_    0.125760 0.928614 0.945419 0.136273
H20   H     H_    0.276775 0.892987 0.878423 0.111770
H21   H     H_    0.221393 0.965509 0.057926 0.197890
H22   H     H_    0.375561 0.924199 0.993623 0.170556
H23   H     H_    0.953801 0.419807 0.569299 0.120561
H24   H     H_    0.391064 0.104706 0.917253 0.149542
H25   H     H_    0.372983 0.155790 0.019935 0.162497
H26   H     H_    0.235567 0.145604 0.981124 0.140444
H27   H     H_    0.700670 0.635712 0.863839 0.130704
H28   H     H_    0.677281 0.692734 0.778863 0.120427
H29   H     H_    0.827011 0.547667 0.690427 0.173106
H30   H     H_    0.904776 0.650799 0.756107 0.098543
H31   H     H_    0.849920 0.489057 0.774546 0.154280
H32   H     H_    0.471124 0.833275 0.115976 0.148225
H33   H     H_    0.583196 0.729880 0.124108 0.121990
H34   H     H_    0.361519 0.992033 0.557492 0.070635
H35   H     H_    0.505470 0.764527 0.268747 0.147224
H36   H     H_    0.560163 0.911917 0.226129 0.080447
H37   H     H_    0.388264 0.862806 0.262410 0.170280
H38   H     H_    0.424592 0.496305 0.207541 0.176676
H39   H     H_    0.699596 0.259003 0.929706 0.103468
H40   H     H_    0.244734 0.691794 0.809469 0.144154
H41   H     H_    0.565043 0.338309 0.867354 0.179302
H42   H     H_    0.117066 0.612744 0.169760 0.143430
O1    O     O_3   0.500000 0.500000 0.500000 -0.443202
O2    O     O_R   0.470800 0.371790 0.332500 -0.542475
O3    O     O_R   0.380610 0.619380 0.674980 -0.566242
O4    O     O_R   0.632640 0.524780 0.317540 -0.546995
O5    O     O_R   0.515950 0.484050 0.674980 -0.486078
O6    O     O_3   0.225776 0.734866 0.088740 -0.527527
O7    O     O_3   0.664161 0.027057 0.435338 -0.545703
O8    O     O_3   0.779215 0.312193 0.194397 -0.571711
O9    O     O_3   0.178369 0.761973 0.960652 -0.543330
O10   O     O_3   0.599853 0.507447 0.797773 -0.547185
O11   O     O_3   0.386115 0.662200 0.159475 -0.567944
O12   O     O_R   0.535460 0.243030 0.556410 -0.510143
O13   O     O_R   0.437420 0.784080 0.535340 -0.568310
O14   O     O_R   0.223560 0.397520 0.472140 -0.531825
O15   O     O_R   0.803560 0.575360 0.436110 -0.541594
O16   O     O_R   0.209690 0.568800 0.556400 -0.540346
O17   O     O_R   0.763190 0.458310 0.535350 -0.535247
O18   O     O_R   0.414000 0.207090 0.472140 -0.552925
O19   O     O_R   0.613120 0.765800 0.436110 -0.534330
Zn1   Zn    Zn3+2 0.577310 0.422690 0.565550 0.970658
Zn2   Zn    Zn3+2 0.403760 0.371330 0.445150 0.939561
Zn3   Zn    Zn3+2 0.634990 0.589920 0.423760 0.931488
Zn4   Zn    Zn3+2 0.383940 0.616050 0.565540 0.917476

loop_
_geom_bond_atom_site_label_1
_geom_bond_atom_site_label_2
_ccdc_geom_bond_type
C17   O4    A    
C41   C42   A    
C1    C11   S    
C33   O10   S    
C6    C9    A    
C28   H14   S    
C7    C8    A    
C41   O11   S    
C28   H15   S    
C37   H37   S    
C26   C27   S    
C8    C20   A    
O14   Zn2   S    
C24   H3    S    
C28   C29   S    
C38   C42   A    
C30   O9    S    
C26   H8    S    
C5    C6    A    
C27   H13   S    
C16   O13   A    
C17   C20   S    
O18   Zn2   S    
C18   C19   S    
C16   O19   A    
C2    C39   A    
C35   H31   S    
C21   C38   A    
C29   H17   S    
C3    H39   S    
C8    O8    S    
C7    H1    S    
C25   H5    S    
C33   H27   S    
C32   H26   S    
C35   H29   S    
C13   C14   D    
C13   O7    S    
C2    H41   S    
O1    Zn2   S    
C1    O16   A    
C22   H2    S    
C17   O2    A    
C31   H21   S    
C24   C25   S    
C15   O12   A    
C5    C7    A    
C26   O7    S    
C37   H35   S    
C12   C21   A    
C34   C39   A    
C42   O6    S    
C9    H38   S    
C22   H42   S    
C4    O15   A    
C19   C23   A    
C36   H33   S    
O4    Zn3   S    
C9    C20   A    
C31   C32   S    
C29   H18   S    
C23   C34   A    
C4    O17   A    
C22   O6    S    
C12   H40   S    
C28   O8    S    
C25   H6    S    
O1    Zn1   S    
C36   H32   S    
C33   H28   S    
C32   H25   S    
C40   C41   A    
C35   H30   S    
O17   Zn1   S    
O12   Zn1   S    
O5    Zn1   S    
C22   C24   S    
C30   H19   S    
O2    Zn2   S    
C4    C10   S    
O1    Zn3   S    
C39   C40   A    
C27   H10   S    
C32   H24   S    
O15   Zn3   S    
C36   C37   S    
O16   Zn4   S    
C34   C38   A    
C18   O5    A    
C31   H22   S    
C3    C5    A    
C1    O14   A    
C27   H11   S    
C37   H36   S    
C18   O3    A    
C23   O10   S    
C24   H4    S    
C30   H20   S    
C2    C3    A    
C26   H9    S    
C36   O11   S    
C30   C31   S    
C21   O9    S    
C12   C19   A    
C33   C35   S    
O19   Zn3   S    
C6    C40   A    
C15   O18   A    
C10   H12   S    
C25   H7    S    
C10   C11   D    
O13   Zn4   S    
O3    Zn4   S    
C29   H16   S    
C13   C16   S    
C14   C15   S    
O1    Zn4   S    
C11   H23   S    
C14   H34   S    
