data_mof_unit_52531.cif
_audit_creation_date              2012-12-11T14:45:34-0500
_audit_creation_method            fapswitch 2.2
_symmetry_space_group_name_H-M    P1
_symmetry_Int_Tables_number       1
_space_group_crystal_system       triclinic
_cell_length_a                    24.894632
_cell_length_b                    7.172129
_cell_length_c                    14.40566
_cell_angle_alpha                 90.708882
_cell_angle_beta                  102.748229
_cell_angle_gamma                 91.809442
_cell_volume                      2506.94603974

loop_
_atom_site_label
_atom_site_type_symbol
_atom_type_description
_atom_site_fract_x
_atom_site_fract_y
_atom_site_fract_z
_atom_type_partial_charge
O1    O     O_R   0.319150 0.364170 0.330530 -0.535245
O2    O     O_R   0.680850 0.635830 0.669470 -0.535232
O3    O     O_R   0.180850 0.864170 0.169470 -0.551613
O4    O     O_R   0.819150 0.135830 0.830530 -0.551577
O5    O     O_R   0.210330 0.696850 0.354180 -0.539213
O6    O     O_R   0.789670 0.303150 0.645820 -0.539245
O7    O     O_R   0.289670 0.196850 0.145820 -0.531725
O8    O     O_R   0.710330 0.803150 0.854180 -0.531803
C1    C     C_R   0.197740 0.524862 0.379010 0.741015
C2    C     C_R   0.802259 0.475136 0.620990 0.740948
C3    C     C_R   0.302380 0.025650 0.121179 0.738142
C4    C     C_R   0.697621 0.974349 0.878823 0.738315
O9    O     O_R   0.320550 0.694110 0.341970 -0.550607
O10   O     O_R   0.679450 0.305890 0.658030 -0.550620
O11   O     O_R   0.179450 0.194110 0.158030 -0.532732
O12   O     O_R   0.820550 0.805890 0.841970 -0.532780
O13   O     O_R   0.291860 0.861000 0.157170 -0.540568
O14   O     O_R   0.708140 0.139000 0.842830 -0.540504
O15   O     O_R   0.208140 0.361000 0.342830 -0.534431
O16   O     O_R   0.791860 0.639000 0.657170 -0.534414
C5    C     C_R   0.342199 0.529524 0.362159 0.749525
C6    C     C_R   0.657802 0.470476 0.637837 0.749454
C7    C     C_R   0.158125 0.021508 0.137707 0.747878
C8    C     C_R   0.841877 0.978492 0.862286 0.748035
O17   O     O_3   0.240460 0.529330 0.189380 -0.379087
O18   O     O_3   0.759540 0.470670 0.810620 -0.379103
O19   O     O_3   0.259540 0.029330 0.310620 -0.376765
O20   O     O_3   0.740460 0.970670 0.689380 -0.376754
V1    V     V_3+5 0.251770 0.805510 0.261240 1.474792
V2    V     V_3+5 0.748230 0.194490 0.738760 1.474843
V3    V     V_3+5 0.248230 0.305510 0.238760 1.504248
V4    V     V_3+5 0.751770 0.694490 0.761240 1.504127
C9    C     C_R   0.102498 0.995845 0.074820 -0.054155
C10   C     C_R   0.897507 0.004157 0.925165 -0.054243
C11   C     C_R   0.398383 0.537204 0.424754 -0.057750
C12   C     C_R   0.601620 0.462799 0.575236 -0.057686
C13   C     C_R   0.965512 0.211727 0.028290 -0.146162
C14   C     C_R   0.034495 0.788283 0.971683 -0.146310
C15   C     C_R   0.529430 0.283473 0.464314 -0.149286
C16   C     C_R   0.470575 0.716535 0.535670 -0.149176
C17   C     C_R   0.911532 0.171755 0.978402 -0.095486
C18   C     C_R   0.088475 0.828252 0.021576 -0.095767
C19   C     C_R   0.583851 0.304703 0.515944 -0.096905
C20   C     C_R   0.416154 0.695304 0.484043 -0.096760
C21   C     C_R   0.938512 0.874429 0.924691 -0.210691
C22   C     C_R   0.061493 0.125574 0.075290 -0.210479
C23   C     C_R   0.563787 0.601902 0.580271 -0.207249
C24   C     C_R   0.436216 0.398103 0.419717 -0.207358
C25   C     C_R   0.993149 0.914735 0.974080 0.139136
C26   C     C_R   0.006857 0.085271 0.025896 0.139131
C27   C     C_R   0.508714 0.580485 0.529056 0.141351
C28   C     C_R   0.491290 0.419521 0.470930 0.141361
H1    H     H_    0.071569 0.253960 0.116928 0.116284
H2    H     H_    0.928435 0.746041 0.883054 0.116300
H3    H     H_    0.423382 0.276644 0.373660 0.116074
H4    H     H_    0.576621 0.723360 0.626330 0.116062
H5    H     H_    0.119307 0.725813 0.019741 0.168741
H6    H     H_    0.880701 0.274197 0.980238 0.168764
H7    H     H_    0.387969 0.804700 0.489744 0.174813
H8    H     H_    0.612036 0.195309 0.510243 0.174794
H9    H     H_    0.975031 0.342690 0.067739 0.157540
H10   H     H_    0.024977 0.657326 0.932229 0.157582
H11   H     H_    0.517062 0.159553 0.419965 0.153633
H12   H     H_    0.482943 0.840457 0.580017 0.153620
C29   C     C_R   0.666448 0.982408 0.954169 -0.099215
C30   C     C_R   0.333553 0.017564 0.045836 -0.099168
C31   C     C_R   0.833367 0.483609 0.545624 -0.098934
C32   C     C_R   0.166633 0.516349 0.454376 -0.098969
C33   C     C_R   0.659299 0.013602 0.118251 -0.127457
C34   C     C_R   0.340692 0.985812 0.881773 -0.127397
C35   C     C_R   0.840902 0.454503 0.381716 -0.127126
C36   C     C_R   0.159106 0.544862 0.618311 -0.127157
C37   C     C_R   0.692435 0.000535 0.051590 -0.064792
C38   C     C_R   0.307564 0.999088 0.948433 -0.064644
C39   C     C_R   0.807629 0.461626 0.448321 -0.064932
C40   C     C_R   0.192377 0.537984 0.551695 -0.065019
C41   C     C_R   0.608941 0.979147 0.925836 -0.197215
C42   C     C_R   0.391061 0.020947 0.074161 -0.197197
C43   C     C_R   0.890778 0.499997 0.573913 -0.197245
C44   C     C_R   0.109220 0.500066 0.426085 -0.197253
C45   C     C_R   0.574988 0.993681 0.992406 0.067435
C46   C     C_R   0.425009 0.006051 0.007601 0.067402
C47   C     C_R   0.924923 0.492492 0.507427 0.067023
C48   C     C_R   0.075081 0.507127 0.492594 0.067045
C49   C     C_R   0.601325 0.009880 0.090386 0.026428
C50   C     C_R   0.398668 0.989604 0.909631 0.026453
C51   C     C_R   0.898840 0.468436 0.409637 0.026681
C52   C     C_R   0.101168 0.530924 0.590395 0.026660
C53   C     C_R   0.515929 0.992821 0.964584 -0.002978
C54   C     C_R   0.484066 0.006803 0.035424 -0.002977
C55   C     C_R   0.983954 0.505729 0.535282 -0.002770
C56   C     C_R   0.016053 0.493728 0.464748 -0.002778
C57   C     C_R   0.512257 0.020326 0.131903 -0.201000
C58   C     C_R   0.487734 0.979054 0.868112 -0.200993
C59   C     C_R   0.988116 0.468809 0.368559 -0.201424
C60   C     C_R   0.011894 0.530320 0.631487 -0.201436
C61   C     C_R   0.569371 0.022073 0.159181 0.372274
C62   C     C_R   0.430618 0.977213 0.840841 0.372306
C63   C     C_R   0.931008 0.457355 0.341163 0.373898
C64   C     C_R   0.069003 0.541704 0.658884 0.373871
H13   H     H_    0.407670 0.034822 0.149575 0.093644
H14   H     H_    0.592337 0.965700 0.850407 0.093638
H15   H     H_    0.092797 0.486409 0.350611 0.094818
H16   H     H_    0.907192 0.514146 0.649371 0.094815
H17   H     H_    0.679322 0.026028 0.192824 0.223760
H18   H     H_    0.320661 0.973171 0.807210 0.223650
H19   H     H_    0.821005 0.438100 0.307233 0.222994
H20   H     H_    0.179003 0.561051 0.692804 0.223087
H21   H     H_    0.491288 0.029524 0.189406 0.152027
H22   H     H_    0.508698 0.969576 0.810614 0.152012
H23   H     H_    0.009272 0.456673 0.311432 0.152462
H24   H     H_    0.990744 0.542062 0.688640 0.152466
Cl1   Cl    Cl    0.598837 0.038787 0.282564 -0.689650
Cl2   Cl    Cl    0.401146 0.960136 0.717469 -0.689775
Cl3   Cl    Cl    0.901789 0.427237 0.218197 -0.687750
Cl4   Cl    Cl    0.098224 0.571334 0.781876 -0.687624
C65   C     C_2   0.246427 0.992110 0.913156 0.789031
O21   O     O_2   0.216124 0.041290 0.964343 -0.565671
O22   O     O_R   0.223306 0.930663 0.819880 -0.636958
H25   H     H_    0.181571 0.932753 0.803915 0.339598
C66   C     C_2   0.753574 0.007392 0.086891 0.789191
O23   O     O_2   0.783891 0.959077 0.035558 -0.565798
O24   O     O_R   0.776683 0.067763 0.180348 -0.636982
H26   H     H_    0.818419 0.065707 0.196306 0.339625
C67   C     C_2   0.253439 0.553532 0.586815 0.792075
O25   O     O_2   0.284240 0.506116 0.536149 -0.565356
O26   O     O_R   0.275917 0.619734 0.679483 -0.637902
H27   H     H_    0.317688 0.621642 0.695673 0.340705
C68   C     C_2   0.746570 0.445987 0.413209 0.792040
O27   O     O_2   0.715767 0.493812 0.463791 -0.565308
O28   O     O_R   0.724097 0.379236 0.320640 -0.637945
H28   H     H_    0.682326 0.377312 0.304442 0.340653

loop_
_geom_bond_atom_site_label_1
_geom_bond_atom_site_label_2
_ccdc_geom_bond_type
O17   V3    S    
C24   H3    S    
C47   C51   A    
O1    C5    A    
C9    C22   A    
C35   H19   S    
O19   V1    S    
O13   V1    S    
O3    C7    A    
C64   Cl4   S    
C44   C48   A    
O15   V3    S    
O24   H26   S    
C14   C25   A    
C2    C31   S    
O7    C3    A    
C60   H24   S    
C9    C18   A    
O9    V1    S    
C17   H6    S    
C14   C18   A    
C65   O22   S    
C63   Cl3   S    
O4    C8    A    
C59   C63   A    
C62   Cl2   S    
C58   C62   A    
C20   H7    S    
C30   C38   A    
O1    V3    S    
C29   C37   A    
C12   C23   A    
O2    V4    S    
C53   C58   A    
O3    V1    S    
C34   C38   A    
C55   C60   A    
C1    O15   A    
C36   H20   S    
C2    O16   A    
C7    C9    S    
O2    C6    A    
C33   C37   A    
O14   V2    S    
C41   C45   A    
C16   C20   A    
O5    V1    S    
C3    C30   S    
C36   C40   A    
C45   C53   A    
O11   C7    A    
C15   C28   A    
O12   C8    A    
C42   H13   S    
C40   C67   S    
C41   H14   S    
C10   C17   A    
O10   V2    S    
C11   C24   A    
C18   H5    S    
C36   C52   A    
C51   C63   A    
C30   C42   A    
O7    V3    S    
C44   H15   S    
C27   C28   A    
O8    V4    S    
C31   C43   A    
C34   H18   S    
C55   C56   A    
C33   H17   S    
O18   V4    S    
C15   C19   A    
C46   C50   A    
C58   H22   S    
C56   C59   A    
C8    C10   S    
O5    C1    A    
C29   C41   A    
C42   C46   A    
C13   H9    S    
C6    C12   S    
C21   C25   A    
O8    C4    A    
O9    C5    A    
C10   C21   A    
C11   C20   A    
C66   O23   D    
C52   C64   A    
C19   H8    S    
C35   C51   A    
O6    V2    S    
C21   H2    S    
C37   C66   S    
C67   O25   D    
C43   H16   S    
C32   C40   A    
C61   Cl1   S    
C32   C44   A    
C34   C50   A    
C57   C61   A    
C33   C49   A    
C54   C57   A    
C68   O27   D    
O16   V4    S    
C38   C65   S    
C3    O13   A    
C48   C52   A    
C46   C54   A    
O6    C2    A    
C23   C27   A    
O22   H25   S    
O11   V3    S    
O26   H27   S    
C5    C11   S    
O12   V4    S    
C16   C27   A    
C15   H11   S    
C4    C29   S    
C22   C26   A    
C16   H12   S    
O10   C6    A    
O20   V2    S    
C1    C32   S    
C59   H23   S    
C65   O21   D    
C35   C39   A    
C13   C26   A    
C60   C64   A    
C22   H1    S    
C47   C55   A    
C13   C17   A    
C50   C62   A    
O4    V2    S    
C66   O24   S    
C49   C61   A    
C43   C47   A    
C39   C68   S    
C24   C28   A    
C31   C39   A    
C25   C26   A    
C4    O14   A    
C67   O26   S    
C12   C19   A    
C48   C56   A    
C68   O28   S    
C53   C54   A    
C45   C49   A    
O28   H28   S    
C57   H21   S    
C23   H4    S    
C14   H10   S    
