data_mof_unit_68346.cif
_audit_creation_date              2012-10-26T18:34:24-0400
_audit_creation_method            fapswitch 2.2
_symmetry_space_group_name_H-M    P1
_symmetry_Int_Tables_number       1
_space_group_crystal_system       triclinic
_cell_length_a                    10.8875
_cell_length_b                    9.665341
_cell_length_c                    9.126001
_cell_angle_alpha                 90.017314
_cell_angle_beta                  97.608737
_cell_angle_gamma                 90.008306
_cell_volume                      951.886339456

loop_
_atom_site_label
_atom_site_type_symbol
_atom_type_description
_atom_site_fract_x
_atom_site_fract_y
_atom_site_fract_z
_atom_type_partial_charge
C1    C     C_R   0.263880 0.499994 0.513660 0.583326
C2    C     C_R   0.063674 0.625017 0.523061 0.178239
C3    C     C_R   0.870053 0.500020 0.472167 -0.037665
C4    C     C_R   0.129945 0.499980 0.527828 -0.037666
C5    C     C_R   0.427047 0.073919 0.391886 0.098470
C6    C     C_R   0.572954 0.926081 0.608113 0.098472
C7    C     C_R   0.572953 0.074017 0.608114 0.098443
C8    C     C_R   0.427044 0.925984 0.391887 0.098448
C9    C     C_R   0.347098 0.145638 0.270722 0.055903
C10   C     C_R   0.222264 0.170979 0.281812 -0.052608
C11   C     C_R   0.146656 0.237997 0.168126 -0.106330
C12   C     C_R   0.736119 0.500006 0.486339 0.583324
C13   C     C_R   0.193042 0.271300 0.037358 -0.092915
C14   C     C_R   0.312680 0.230895 0.017924 -0.085529
C15   C     C_R   0.388874 0.166149 0.133616 -0.084637
C16   C     C_R   0.652905 0.854364 0.729277 0.055901
C17   C     C_R   0.777739 0.829022 0.718188 -0.052600
C18   C     C_R   0.853344 0.762001 0.831875 -0.106331
C19   C     C_R   0.806958 0.728696 0.962644 -0.092921
C20   C     C_R   0.687320 0.769102 0.982076 -0.085524
C21   C     C_R   0.611128 0.833850 0.866383 -0.084636
C22   C     C_R   0.652906 0.145853 0.729270 0.055875
C23   C     C_R   0.499185 0.499986 0.220805 0.549414
C24   C     C_R   0.777639 0.171610 0.717976 -0.052565
C25   C     C_R   0.853227 0.238861 0.831580 -0.106446
C26   C     C_R   0.806966 0.271933 0.962505 -0.093005
C27   C     C_R   0.687458 0.231132 0.982125 -0.085343
C28   C     C_R   0.611254 0.166210 0.866483 -0.084639
C29   C     C_R   0.347088 0.854150 0.270729 0.055882
C30   C     C_R   0.388745 0.833784 0.133518 -0.084636
C31   C     C_R   0.312546 0.768868 0.017875 -0.085357
C32   C     C_R   0.193035 0.728089 0.037487 -0.093010
C33   C     C_R   0.146765 0.761179 0.168402 -0.106449
C34   C     C_R   0.500816 0.500013 0.779195 0.549412
C35   C     C_R   0.222352 0.828416 0.282012 -0.052576
C36   C     C_1   0.499805 0.499981 0.065507 -0.077434
C37   C     C_1   0.500199 0.500018 0.934494 -0.077434
C38   C     C_R   0.063607 0.374949 0.522786 0.178412
C39   C     C_R   0.936390 0.625051 0.477207 0.178419
C40   C     C_R   0.936324 0.374983 0.476931 0.178229
Cl1   Cl    Cl    0.128766 0.227435 0.617269 -0.605703
Cl2   Cl    Cl    0.871230 0.772563 0.382721 -0.605706
Cl3   Cl    Cl    0.871060 0.227573 0.382178 -0.606046
Cl4   Cl    Cl    0.128940 0.772432 0.617798 -0.606030
Cu1   Cu    Cu3+1 0.500000 0.640660 0.500000 1.015369
Cu2   Cu    Cu3+1 0.500000 0.359340 0.500000 1.015363
H1    H     H_    0.182860 0.133811 0.375682 0.211995
H2    H     H_    0.518945 0.866464 0.880766 0.095162
H3    H     H_    0.816974 0.134649 0.623966 0.212047
H4    H     H_    0.947799 0.263298 0.818694 0.160719
H5    H     H_    0.864243 0.326095 0.049921 0.132221
H6    H     H_    0.654337 0.251665 0.086408 0.156789
H7    H     H_    0.519172 0.133309 0.881007 0.094992
H8    H     H_    0.480829 0.866672 0.119000 0.095000
H9    H     H_    0.345673 0.748325 0.913596 0.156779
H10   H     H_    0.135765 0.673930 0.950072 0.132227
H11   H     H_    0.052188 0.736770 0.181276 0.160742
H12   H     H_    0.051970 0.262049 0.180800 0.161258
H13   H     H_    0.183014 0.865390 0.376016 0.212044
H14   H     H_    0.135773 0.325325 0.949909 0.132342
H15   H     H_    0.345902 0.251581 0.913741 0.156619
H16   H     H_    0.481056 0.133533 0.119231 0.095162
H17   H     H_    0.817144 0.866194 0.624316 0.211997
H18   H     H_    0.948029 0.737949 0.819203 0.161244
H19   H     H_    0.864226 0.674671 0.050095 0.132343
H20   H     H_    0.654095 0.748411 0.086260 0.156616
N1    N     N_R   0.500000 0.852070 0.500000 -0.228615
N2    N     N_R   0.500000 0.147930 0.500000 -0.228617
O1    O     O_R   0.319640 0.618740 0.499990 -0.465024
O2    O     O_R   0.680360 0.381260 0.500010 -0.465038
O3    O     O_R   0.680360 0.618740 0.500010 -0.464830
O4    O     O_R   0.319640 0.381260 0.499990 -0.464830
O5    O     O_R   0.500000 0.618760 0.288390 -0.499109
O6    O     O_R   0.500000 0.381240 0.711610 -0.499106
O7    O     O_R   0.500000 0.618760 0.711610 -0.499145
O8    O     O_R   0.500000 0.381240 0.288390 -0.499143

loop_
_geom_bond_atom_site_label_1
_geom_bond_atom_site_label_2
_ccdc_geom_bond_type
C16   C21   A    
Cu1   O3    S    
C34   C37   S    
C19   C20   A    
C23   O8    A    
Cu2   O8    S    
C13   H14   S    
Cu1   Cu2   S    
Cu2   N2    S    
C30   H8    S    
C26   C27   A    
C8    C29   S    
C20   H20   S    
C36   C37   T    
C30   C31   A    
Cu1   O5    S    
C18   C19   A    
C25   H4    S    
C3    C12   S    
C7    N2    A    
C2    C39   A    
C40   Cl3   S    
C2    Cl4   S    
C16   C17   A    
Cu1   N1    S    
C11   H12   S    
C9    C10   A    
Cu2   O4    S    
C34   O7    A    
C21   H2    S    
C3    C39   A    
C22   C28   A    
C13   C14   A    
C23   O5    A    
C5    N2    A    
C39   Cl2   S    
C35   H13   S    
C1    O4    A    
Cu1   O1    S    
C24   C25   A    
C38   Cl1   S    
C25   C26   A    
C14   H15   S    
C1    O1    A    
C2    C4    A    
C5    C9    S    
C29   C30   A    
C31   C32   A    
C17   C18   A    
C34   O6    A    
C6    N1    A    
C12   O3    A    
C4    C38   A    
C3    C40   A    
C22   C24   A    
Cu2   O6    S    
C27   H6    S    
C24   H3    S    
C12   O2    A    
C33   H11   S    
C5    C8    A    
C28   H7    S    
C6    C7    A    
C7    C22   S    
C29   C35   A    
Cu1   O7    S    
C1    C4    S    
C32   C33   A    
C9    C15   A    
C26   H5    S    
C17   H17   S    
C38   C40   A    
C11   C13   A    
C18   H18   S    
C33   C35   A    
C15   H16   S    
C19   H19   S    
Cu2   O2    S    
C10   C11   A    
C6    C16   S    
C20   C21   A    
C8    N1    A    
C23   C36   S    
C10   H1    S    
C14   C15   A    
C31   H9    S    
C32   H10   S    
C27   C28   A    
