data_mof_unit_35265.cif
_audit_creation_date              2012-12-11T15:27:17-0500
_audit_creation_method            fapswitch 2.2
_symmetry_space_group_name_H-M    P1
_symmetry_Int_Tables_number       1
_space_group_crystal_system       triclinic
_cell_length_a                    13.822394
_cell_length_b                    13.965564
_cell_length_c                    27.481889
_cell_angle_alpha                 90.01646
_cell_angle_beta                  90.053452
_cell_angle_gamma                 119.656718
_cell_volume                      4610.10189922

loop_
_atom_site_label
_atom_site_type_symbol
_atom_type_description
_atom_site_fract_x
_atom_site_fract_y
_atom_site_fract_z
_atom_type_partial_charge
C1    C     C_R   0.233475 0.787490 0.568367 0.558613
C2    C     C_1   0.710991 0.864128 0.857880 -0.070308
C3    C     C_1   0.112283 0.879412 0.851135 -0.069873
C4    C     C_1   0.116808 0.235090 0.851148 -0.070169
C5    C     C_1   0.636924 0.817667 0.657026 -0.026996
C6    C     C_1   0.174077 0.821116 0.654819 -0.022159
C7    C     C_1   0.176082 0.355078 0.655025 -0.023753
C8    C     C_1   0.606322 0.798346 0.615280 0.032788
C9    C     C_1   0.197343 0.807762 0.614097 0.036822
C10   C     C_1   0.191195 0.390657 0.614190 0.034604
C11   C     C_R   0.070951 0.163052 0.941530 0.535990
C12   C     C_R   0.212179 0.445807 0.568356 0.559155
C13   C     C_R   0.780472 0.887351 0.948609 0.543772
C14   C     C_R   0.091321 0.928533 0.941769 0.533462
C15   C     C_R   0.614801 0.807327 0.384856 0.026510
C16   C     C_R   0.191630 0.804677 0.384354 0.026312
C17   C     C_R   0.187572 0.377516 0.386437 0.025310
C18   C     C_R   0.630540 0.905468 0.361013 0.001913
C19   C     C_R   0.092862 0.721794 0.360640 0.002005
C20   C     C_R   0.265584 0.352773 0.363497 0.002196
C21   C     C_R   0.666581 0.922333 0.312526 -0.059822
C22   C     C_R   0.075715 0.738890 0.311882 -0.055776
C23   C     C_R   0.553875 0.765816 0.568505 0.556032
C24   C     C_R   0.237113 0.299888 0.317963 -0.058990
C25   C     C_R   0.676900 0.841543 0.287286 0.049324
C26   C     C_R   0.156556 0.829071 0.286457 0.046587
C27   C     C_R   0.141715 0.283364 0.293339 0.043305
C28   C     C_R   0.232752 0.786336 0.431040 0.535350
C29   C     C_R   0.212685 0.445638 0.431042 0.536459
C30   C     C_R   0.553790 0.766701 0.431136 0.535990
C31   C     C_R   0.670222 0.751131 0.311708 -0.118247
C32   C     C_R   0.247785 0.912890 0.310617 -0.126188
C33   C     C_R   0.063551 0.302065 0.317006 -0.116343
C34   C     C_3   0.697456 0.752426 0.785732 -0.223582
C35   C     C_R   0.642731 0.736132 0.360369 -0.138452
C36   C     C_R   0.263389 0.902067 0.359379 -0.141820
C37   C     C_R   0.085058 0.345867 0.363439 -0.136786
C38   C     C_R   0.787309 0.844373 0.218316 -0.155400
C39   C     C_R   0.147714 0.934555 0.218619 -0.148950
C40   C     C_R   0.023551 0.166906 0.226466 -0.140523
C41   C     C_R   0.811143 0.853636 0.169533 -0.126199
C42   C     C_R   0.139574 0.951029 0.169965 -0.119778
C43   C     C_R   0.004920 0.136990 0.177892 -0.148982
C44   C     C_R   0.656815 0.885441 0.152481 -0.131937
C45   C     C_3   0.233221 0.960721 0.779791 -0.225337
C46   C     C_R   0.117453 0.771486 0.151094 -0.124698
C47   C     C_R   0.195094 0.273500 0.158752 -0.101209
C48   C     C_R   0.628003 0.871077 0.201938 0.067208
C49   C     C_R   0.129668 0.754564 0.200542 0.067922
C50   C     C_R   0.213462 0.309921 0.207055 0.063362
C51   C     C_R   0.696102 0.851995 0.235012 0.003112
C52   C     C_R   0.144573 0.838122 0.234380 0.003655
C53   C     C_R   0.127058 0.253174 0.241629 0.004723
C54   C     C_R   0.746618 0.874673 0.136578 0.003854
C55   C     C_R   0.125198 0.870387 0.136150 0.010940
C56   C     C_3   0.027212 0.261380 0.778200 -0.225812
C57   C     C_R   0.090807 0.188152 0.144202 -0.011529
C58   C     C_R   0.067225 0.154827 0.093554 0.556324
C59   C     C_R   0.777877 0.884459 0.086024 0.544783
C60   C     C_R   0.116328 0.893613 0.085786 0.556021
C61   C     C_3   0.552931 0.821076 0.736794 -0.014101
C62   C     C_3   0.158711 0.742650 0.738155 -0.014142
C63   C     C_3   0.248147 0.421283 0.738876 -0.015541
C64   C     C_3   0.761066 0.945578 0.722319 -0.215894
C65   C     C_3   0.041782 0.830918 0.714306 -0.215737
C66   C     C_3   0.174686 0.220564 0.715192 -0.214971
C67   C     C_3   0.682154 0.742416 0.729752 -0.241875
C68   C     C_3   0.778070 0.957864 0.778337 -0.210918
C69   C     C_3   0.024406 0.843566 0.769235 -0.211280
C70   C     C_3   0.164121 0.192657 0.770175 -0.212973
C71   C     C_1   0.736727 0.873909 0.900253 -0.018371
C72   C     C_1   0.102666 0.900253 0.892797 -0.015955
C73   C     C_1   0.098293 0.203665 0.892706 -0.018403
C74   C     C_3   0.658292 0.832685 0.709908 0.044289
C75   C     C_3   0.154313 0.833969 0.706496 0.045031
C76   C     C_3   0.161855 0.323318 0.706723 0.044343
C77   C     C_3   0.573161 0.835579 0.792826 -0.218852
C78   C     C_3   0.247016 0.947744 0.724788 -0.241238
C79   C     C_3   0.138776 0.756773 0.792979 -0.216678
C80   C     C_3   0.230613 0.388984 0.793882 -0.215047
C81   C     C_3   0.689891 0.852779 0.805080 0.046893
C82   C     C_3   0.126470 0.860259 0.799625 0.045594
C83   C     C_3   0.134449 0.269020 0.799724 0.046224
C84   C     C_3   0.601369 0.986177 0.385396 -0.238227
C85   C     C_3   0.623584 0.088569 0.356094 -0.328852
C86   C     C_3   0.590320 0.160678 0.385168 -0.469012
C87   C     C_3   0.011762 0.613751 0.385594 -0.238257
C88   C     C_3   0.908108 0.533064 0.356685 -0.328469
C89   C     C_3   0.043335 0.293929 0.723702 -0.241138
C90   C     C_3   0.835639 0.430166 0.386664 -0.468960
C91   C     C_3   0.380028 0.389205 0.385516 -0.238292
C92   C     C_3   0.458728 0.363989 0.355798 -0.324091
C93   C     C_3   0.570349 0.407209 0.381555 -0.467952
C94   C     C_2   0.525003 0.871721 0.217163 0.566369
C95   C     C_2   0.130554 0.652089 0.214857 0.572933
C96   C     C_2   0.319993 0.411217 0.218972 0.563549
C97   C     C_2   0.515353 0.898280 0.716553 0.533182
C98   C     C_2   0.079572 0.627154 0.720126 0.542513
C99   C     C_2   0.366939 0.461652 0.722717 0.534071
Cr1   Cr    Cr6+3 0.164410 0.584450 0.499910 1.020634
Cr2   Cr    Cr6+3 0.415550 0.579960 0.499910 1.023006
Cr3   Cr    Cr6+3 0.420040 0.835590 0.499910 1.021135
Cr4   Cr    Cr6+3 0.156760 0.076070 0.017830 1.042254
Cr5   Cr    Cr6+3 0.923930 0.080690 0.017830 1.033313
Cr6   Cr    Cr6+3 0.919310 0.843240 0.017830 1.032830
H1    H     H_    0.565788 0.906348 0.807003 0.159037
H2    H     H_    0.779408 0.761165 0.795477 0.119057
H3    H     H_    0.229912 0.037082 0.786229 0.116021
H4    H     H_    0.956951 0.176136 0.782049 0.114894
H5    H     H_    0.840805 0.831694 0.243237 0.115701
H6    H     H_    0.157047 0.997812 0.244161 0.116333
H7    H     H_    0.956436 0.123377 0.252225 0.115201
H8    H     H_    0.882515 0.847374 0.157520 0.139281
H9    H     H_    0.143857 0.027087 0.158591 0.125587
H10   H     H_    0.923234 0.074135 0.166441 0.126703
H11   H     H_    0.680095 0.994420 0.292469 0.103641
H12   H     H_    0.063330 0.683307 0.807370 0.160591
H13   H     H_    0.003223 0.679805 0.291901 0.105864
H14   H     H_    0.292108 0.278178 0.299133 0.102904
H15   H     H_    0.607258 0.900346 0.126186 0.146793
H16   H     H_    0.106233 0.710200 0.124098 0.149064
H17   H     H_    0.259919 0.315724 0.131864 0.171184
H18   H     H_    0.682118 0.689783 0.292653 0.119351
H19   H     H_    0.309085 0.985239 0.291289 0.123673
H20   H     H_    0.987955 0.287578 0.298756 0.116737
H21   H     H_    0.635063 0.663464 0.377729 0.124010
H22   H     H_    0.336933 0.967236 0.376459 0.125748
H23   H     H_    0.307565 0.397712 0.810984 0.163062
H24   H     H_    0.023491 0.361648 0.379939 0.125833
H25   H     H_    0.836802 0.951958 0.704981 0.095940
H26   H     H_    0.040999 0.899141 0.693687 0.096390
H27   H     H_    0.109070 0.148984 0.694730 0.098228
H28   H     H_    0.751385 0.014361 0.707517 0.166340
H29   H     H_    0.971527 0.753070 0.700022 0.166148
H30   H     H_    0.256124 0.234480 0.701279 0.160325
H31   H     H_    0.771453 0.030163 0.790872 0.141525
H32   H     H_    0.948874 0.768160 0.782006 0.139247
H33   H     H_    0.244783 0.203476 0.783641 0.147749
H34   H     H_    0.483589 0.735602 0.730573 0.151168
H35   H     H_    0.863208 0.973705 0.787474 0.099027
H36   H     H_    0.009382 0.913944 0.774569 0.097036
H37   H     H_    0.099117 0.105317 0.775578 0.098822
H38   H     H_    0.612989 0.659177 0.720410 0.170801
H39   H     H_    0.330421 0.957153 0.718164 0.167667
H40   H     H_    0.029638 0.365174 0.718153 0.168402
H41   H     H_    0.758691 0.750387 0.712534 0.118038
H42   H     H_    0.243742 0.015027 0.704434 0.117476
H43   H     H_    0.979490 0.224400 0.701639 0.116447
H44   H     H_    0.632362 0.675478 0.803211 0.137627
H45   H     H_    0.244510 0.754927 0.735144 0.143608
H46   H     H_    0.307434 0.969597 0.799694 0.136012
H47   H     H_    0.004819 0.316433 0.798670 0.135047
H48   H     H_    0.505844 0.111616 0.400868 0.154029
H49   H     H_    0.650478 0.202785 0.415207 0.153385
H50   H     H_    0.589362 0.222569 0.360384 0.148768
H51   H     H_    0.713384 0.137924 0.346682 0.158321
H52   H     H_    0.572968 0.062754 0.322165 0.178430
H53   H     H_    0.510503 0.941670 0.392393 0.201677
H54   H     H_    0.647857 0.014042 0.420325 0.154128
H55   H     H_    0.885814 0.397548 0.404020 0.153893
H56   H     H_    0.232046 0.491396 0.734254 0.148711
H57   H     H_    0.791418 0.448929 0.415577 0.153641
H58   H     H_    0.774561 0.365609 0.362194 0.147636
H59   H     H_    0.858109 0.572570 0.346557 0.158607
H60   H     H_    0.933990 0.507025 0.323170 0.178584
H61   H     H_    0.057046 0.568321 0.393043 0.202309
H62   H     H_    0.983814 0.633212 0.420296 0.153981
H63   H     H_    0.602783 0.492672 0.394616 0.152930
H64   H     H_    0.561829 0.354233 0.413230 0.152353
H65   H     H_    0.631277 0.407352 0.355409 0.149292
H66   H     H_    0.421597 0.273595 0.350548 0.156829
H67   H     H_    0.508347 0.760813 0.811784 0.095048
H68   H     H_    0.474110 0.405120 0.319722 0.187189
H69   H     H_    0.423548 0.480297 0.389178 0.196187
H70   H     H_    0.368696 0.350702 0.422005 0.154013
H71   H     H_    0.396680 0.818843 0.264161 0.369054
H72   H     H_    0.181804 0.575355 0.261944 0.373797
H73   H     H_    0.399392 0.552686 0.257469 0.360571
H74   H     H_    0.538628 0.052624 0.712824 0.332537
H75   H     H_    0.921947 0.501040 0.715173 0.335856
H76   H     H_    0.503056 0.443717 0.724908 0.333833
H77   H     H_    0.210394 0.765280 0.814911 0.097201
H78   H     H_    0.210062 0.445883 0.813949 0.100099
O1    O     O_R   0.137310 0.468260 0.552980 -0.500746
O2    O     O_R   0.139940 0.470480 0.446230 -0.538948
O3    O     O_R   0.529520 0.669460 0.446230 -0.534575
O4    O     O_R   0.330540 0.860060 0.446230 -0.537278
O5    O     O_R   0.176560 0.690850 0.450770 -0.523662
O6    O     O_R   0.309150 0.485710 0.450770 -0.520560
O7    O     O_R   0.514290 0.823440 0.450770 -0.522502
O8    O     O_3   0.333333 0.666667 0.499990 -0.255893
O9    O     O_3   1.000000 0.000000 0.017910 -0.301053
O10   O     O_R   0.149710 0.171070 0.967700 -0.487671
O11   O     O_R   0.828930 0.978640 0.967700 -0.518816
O12   O     O_R   0.531740 0.669050 0.552980 -0.499829
O13   O     O_R   0.021360 0.850290 0.967700 -0.479957
O14   O     O_R   0.178510 0.985930 0.071830 -0.506599
O15   O     O_R   0.014070 0.192580 0.071830 -0.467472
O16   O     O_R   0.807420 0.821490 0.071830 -0.497963
O17   O     O_R   0.147830 0.173300 0.066650 -0.484304
O18   O     O_R   0.826700 0.974530 0.066650 -0.516807
O19   O     O_R   0.025470 0.852170 0.066650 -0.493491
O20   O     O_2   0.493009 0.925957 0.194260 -0.520761
O21   O     O_R   0.462686 0.808403 0.256740 -0.675232
O22   O     O_2   0.081585 0.569139 0.189807 -0.507479
O23   O     O_R   0.330950 0.862690 0.552980 -0.496165
O24   O     O_R   0.189245 0.650345 0.255991 -0.687502
O25   O     O_2   0.405696 0.429988 0.198059 -0.522920
O26   O     O_R   0.322068 0.487171 0.252735 -0.683157
O27   O     O_2   0.437810 0.862971 0.687727 -0.538654
O28   O     O_R   0.570411 0.009671 0.729652 -0.729701
O29   O     O_2   0.116121 0.577172 0.697045 -0.543977
O30   O     O_R   0.965352 0.578064 0.729272 -0.727038
O31   O     O_2   0.410671 0.538477 0.694113 -0.543273
O32   O     O_R   0.425209 0.409560 0.738964 -0.728454
O33   O     O_R   0.180530 0.983530 0.965090 -0.497052
O34   O     O_R   0.016470 0.197000 0.965090 -0.478043
O35   O     O_R   0.803000 0.819470 0.965090 -0.506188
O36   O     O_R   0.174120 0.688790 0.549730 -0.489463
O37   O     O_R   0.311210 0.485330 0.549730 -0.487348
O38   O     O_R   0.514670 0.825880 0.549730 -0.485420

loop_
_geom_bond_atom_site_label_1
_geom_bond_atom_site_label_2
_ccdc_geom_bond_type
C25   C31   A    
C89   H43   S    
C44   C48   A    
C87   C88   S    
C26   C32   A    
Cr6   O13   S    
C18   C21   A    
C17   C29   S    
H71   O21   S    
C15   C18   A    
C45   C82   S    
C24   C27   A    
C67   H38   S    
C8    C23   S    
C6    C9    T    
C21   H11   S    
Cr6   O19   S    
C6    C75   S    
C40   H7    S    
C12   O1    A    
C85   C86   S    
C27   C33   A    
C89   H40   S    
C46   C49   A    
C58   O17   A    
C48   C94   S    
C56   C83   S    
C34   H2    S    
C32   C36   A    
C77   H1    S    
Cr1   O5    S    
C86   H48   S    
Cr2   O6    S    
C85   H52   S    
C28   O5    A    
C66   H30   S    
C96   O25   D    
C87   H61   S    
C63   C76   S    
C44   H15   S    
C92   H66   S    
C69   H36   S    
Cr5   O9    S    
H74   O28   S    
C17   C20   A    
C22   H13   S    
Cr4   O14   S    
C80   H78   S    
C5    C74   S    
C32   H19   S    
C39   C42   A    
C63   C99   S    
C69   C82   S    
C43   H10   S    
C62   C98   S    
C42   H9    S    
C40   C43   A    
C87   H62   S    
C20   C24   A    
Cr1   O36   S    
C59   O16   A    
Cr2   O3    S    
C46   C55   A    
C18   C84   S    
C46   H16   S    
C45   C78   S    
C34   C81   S    
C13   O35   A    
C38   H5    S    
C97   O28   S    
C11   O34   A    
C16   C28   S    
C45   H3    S    
C76   C89   S    
C63   C80   S    
C94   O20   D    
C39   H6    S    
C39   C52   A    
C93   H64   S    
C55   C60   S    
C95   O24   S    
Cr6   O9    S    
Cr5   O15   S    
C67   H41   S    
C80   C83   S    
C15   C35   A    
C65   H26   S    
C34   H44   S    
C47   C50   A    
C66   H27   S    
C54   C59   S    
C48   C51   A    
C69   H32   S    
Cr5   O34   S    
C20   C91   S    
C93   H65   S    
C70   H37   S    
C50   C53   A    
C97   O27   D    
C91   H70   S    
C23   O38   A    
C62   C79   S    
C68   H31   S    
C19   C22   A    
C1    C9    S    
C84   C85   S    
C93   H63   S    
C38   C41   A    
C1    O36   A    
C21   C25   A    
C11   C73   S    
C28   O4    A    
C61   C77   S    
C91   C92   S    
C84   H53   S    
C61   H34   S    
C47   H17   S    
C38   C51   A    
C80   H23   S    
C88   H59   S    
C98   O29   D    
C33   C37   A    
H72   O24   S    
C91   H69   S    
C45   H46   S    
C85   H51   S    
C35   H21   S    
C86   H50   S    
C25   C51   S    
C26   C52   S    
C70   C83   S    
C84   H54   S    
C78   H39   S    
C42   C55   A    
C47   C57   A    
C59   O18   A    
C77   C81   S    
C49   C52   A    
C66   C76   S    
C3    C82   S    
C33   H20   S    
Cr3   O8    S    
C14   O33   A    
H76   O32   S    
C67   C74   S    
C17   C37   A    
C49   C95   S    
C11   O10   A    
C1    O23   A    
Cr3   O23   S    
C4    C73   T    
C10   C12   S    
C78   H42   S    
C29   O2    A    
C60   O14   A    
C60   O19   A    
C56   C89   S    
C98   O30   S    
C64   H25   S    
C70   H33   S    
C13   O11   A    
C61   C74   S    
C29   O6    A    
C62   C75   S    
C68   H35   S    
Cr1   O8    S    
C94   O21   S    
C68   C81   S    
C2    C71   T    
C64   C68   S    
C56   H4    S    
C15   C30   S    
C63   H56   S    
C5    C8    T    
C14   O13   A    
C64   H28   S    
H75   O30   S    
C24   H14   S    
Cr5   O11   S    
C96   O26   S    
C62   H45   S    
C14   C72   S    
C61   C97   S    
C65   H29   S    
C88   C90   S    
Cr2   O8    S    
C34   C67   S    
C79   C82   S    
C27   C53   S    
C7    C76   S    
Cr6   O35   S    
C99   O31   D    
C92   H68   S    
C13   C71   S    
C90   H57   S    
C19   C87   S    
Cr3   O4    S    
C65   C75   S    
C79   H77   S    
C90   H58   S    
C7    C10   T    
C3    C72   T    
C86   H49   S    
C31   H18   S    
C88   H60   S    
Cr5   O18   S    
Cr2   O37   S    
C50   C96   S    
C57   C58   S    
C66   C70   S    
C4    C83   S    
C99   O32   S    
C77   H67   S    
C65   C69   S    
C79   H12   S    
C41   H8    S    
C92   C93   S    
Cr3   O7    S    
C37   H24   S    
Cr1   O2    S    
C31   C35   A    
Cr4   O17   S    
C30   O7    A    
C90   H55   S    
Cr1   O1    S    
C75   C78   S    
C41   C54   A    
C58   O15   A    
C43   C57   A    
C95   O22   D    
C36   H22   S    
C44   C54   A    
Cr6   O16   S    
H73   O26   S    
C40   C53   A    
C22   C26   A    
C23   O12   A    
C30   O3    A    
C64   C74   S    
C2    C81   S    
Cr4   O9    S    
Cr4   O10   S    
C56   H47   S    
Cr4   O33   S    
C12   O37   A    
C16   C36   A    
Cr2   O12   S    
Cr3   O38   S    
C16   C19   A    
