data_mof_unit_53748.cif
_audit_creation_date              2012-12-11T14:33:59-0500
_audit_creation_method            fapswitch 2.2
_symmetry_space_group_name_H-M    P1
_symmetry_Int_Tables_number       1
_space_group_crystal_system       triclinic
_cell_length_a                    13.888967
_cell_length_b                    13.920489
_cell_length_c                    27.373943
_cell_angle_alpha                 89.94818
_cell_angle_beta                  90.125728
_cell_angle_gamma                 119.7305
_cell_volume                      4595.83443452

loop_
_atom_site_label
_atom_site_type_symbol
_atom_type_description
_atom_site_fract_x
_atom_site_fract_y
_atom_site_fract_z
_atom_type_partial_charge
C1    C     C_R   0.234487 0.787146 0.568947 0.540360
C2    C     C_R   0.212929 0.447096 0.568950 0.541303
C3    C     C_R   0.552921 0.765494 0.568915 0.540717
C4    C     C_3   0.696235 0.747271 0.785207 -0.211900
C5    C     C_3   0.253400 0.947864 0.785264 -0.211881
C6    C     C_3   0.050833 0.304233 0.784792 -0.211887
C7    C     C_3   0.665173 0.730887 0.730286 -0.213306
C8    C     C_3   0.269728 0.932859 0.730397 -0.213219
C9    C     C_3   0.066227 0.335728 0.729937 -0.213207
C10   C     C_1   0.758971 0.881207 0.853459 -0.070592
C11   C     C_1   0.119106 0.877924 0.853488 -0.070502
C12   C     C_1   0.120966 0.239837 0.853317 -0.070334
C13   C     C_1   0.636531 0.818022 0.657278 -0.076083
C14   C     C_1   0.182029 0.817860 0.657379 -0.075987
C15   C     C_1   0.182362 0.363475 0.657282 -0.076040
C16   C     C_1   0.604040 0.797931 0.615809 -0.017036
C17   C     C_1   0.201990 0.805481 0.615897 -0.017025
C18   C     C_1   0.194854 0.396073 0.615838 -0.017240
C19   C     C_R   0.066603 0.151873 0.096276 0.580314
C20   C     C_R   0.777449 0.884186 0.088528 0.603138
C21   C     C_R   0.116133 0.892595 0.088002 0.599373
C22   C     C_R   0.070811 0.162557 0.943090 0.501675
C23   C     C_R   0.836933 0.908040 0.943159 0.502044
C24   C     C_R   0.091752 0.928676 0.943150 0.499211
C25   C     C_R   0.614672 0.895199 0.361476 -0.130787
C26   C     C_R   0.099319 0.729973 0.362438 -0.131772
C27   C     C_R   0.263742 0.356079 0.365349 -0.132085
C28   C     C_R   0.642122 0.911871 0.312148 0.013928
C29   C     C_R   0.083367 0.739227 0.312639 0.015652
C30   C     C_R   0.242090 0.305861 0.319374 0.014762
C31   C     C_R   0.678500 0.929931 0.210569 0.026869
C32   C     C_R   0.062551 0.751298 0.210669 0.031138
C33   C     C_R   0.206385 0.229797 0.221951 0.035113
C34   C     C_R   0.232844 0.788363 0.431675 0.548173
C35   C     C_R   0.211372 0.444021 0.431692 0.550121
C36   C     C_R   0.555631 0.767550 0.431930 0.549503
C37   C     C_R   0.644381 0.997318 0.234640 -0.114573
C38   C     C_R   0.981596 0.660983 0.237549 -0.104653
C39   C     C_R   0.307570 0.260125 0.245955 -0.095834
C40   C     C_R   0.626590 0.988410 0.284962 -0.149842
C41   C     C_R   0.992314 0.654871 0.287980 -0.146279
C42   C     C_R   0.325129 0.297967 0.294032 -0.143526
C43   C     C_R   0.698941 0.938288 0.159794 0.189425
C44   C     C_R   0.051973 0.761767 0.159941 0.203770
C45   C     C_R   0.191088 0.202534 0.171777 0.213165
C46   C     C_R   0.731832 0.867537 0.137880 0.006550
C47   C     C_R   0.134973 0.855890 0.135384 0.007583
C48   C     C_R   0.088806 0.176586 0.148862 -0.001821
C49   C     C_R   0.664785 0.750947 0.365250 -0.132238
C50   C     C_R   0.267637 0.909283 0.360766 -0.129031
C51   C     C_R   0.075639 0.324986 0.368745 -0.130195
C52   C     C_R   0.692040 0.766194 0.316059 0.017892
C53   C     C_R   0.255664 0.917335 0.310960 0.017736
C54   C     C_R   0.053145 0.275501 0.322773 0.015965
C55   C     C_R   0.677642 0.844778 0.288943 0.068702
C56   C     C_R   0.164099 0.831189 0.286459 0.067813
C57   C     C_R   0.137762 0.268929 0.297209 0.066774
C58   C     C_R   0.725066 0.697929 0.292852 -0.127010
C59   C     C_R   0.338264 0.006546 0.284888 -0.133369
C60   C     C_R   0.949677 0.239142 0.300709 -0.126347
C61   C     C_R   0.739341 0.704107 0.242627 -0.110476
C62   C     C_R   0.331894 0.009060 0.234378 -0.108080
C63   C     C_R   0.932060 0.202113 0.252549 -0.107813
C64   C     C_R   0.723004 0.780154 0.215443 -0.001403
C65   C     C_R   0.240990 0.924340 0.209753 0.006313
C66   C     C_R   0.017156 0.199971 0.226050 0.004506
C67   C     C_3   0.586744 0.858816 0.738796 -0.215831
C68   C     C_3   0.141062 0.727850 0.739063 -0.215814
C69   C     C_3   0.271774 0.411606 0.739199 -0.215911
C70   C     C_R   0.694014 0.852498 0.238322 0.029491
C71   C     C_R   0.155441 0.835710 0.235607 0.025167
C72   C     C_R   0.119885 0.231102 0.248567 0.028048
C73   C     C_R   0.737408 0.785589 0.165640 -0.152920
C74   C     C_R   0.232565 0.930063 0.159748 -0.137429
C75   C     C_R   0.002194 0.171663 0.176829 -0.169245
C76   C     C_R   0.618970 0.809732 0.387053 -0.003228
C77   C     C_R   0.194862 0.812120 0.385807 -0.003943
C78   C     C_R   0.182497 0.370815 0.389016 -0.004301
C79   C     C_3   0.786553 0.934798 0.715315 -0.213371
C80   C     C_3   0.065417 0.852230 0.715229 -0.213308
C81   C     C_3   0.148162 0.212788 0.715151 -0.213269
C82   C     C_3   0.818997 0.950969 0.770015 -0.218137
C83   C     C_3   0.049340 0.868729 0.769871 -0.218178
C84   C     C_3   0.131062 0.179918 0.769768 -0.218337
C85   C     C_1   0.792949 0.894243 0.894772 -0.019188
C86   C     C_1   0.105885 0.898756 0.894776 -0.018532
C87   C     C_1   0.100253 0.206069 0.894637 -0.019759
C88   C     C_3   0.668196 0.835583 0.709007 0.071649
C89   C     C_3   0.164616 0.832176 0.709104 0.071550
C90   C     C_3   0.167670 0.331471 0.708978 0.071533
C91   C     C_3   0.620157 0.876796 0.793682 -0.211382
C92   C     C_3   0.123240 0.743576 0.793903 -0.211269
C93   C     C_3   0.255669 0.377784 0.794004 -0.211098
C94   C     C_3   0.723789 0.864468 0.802057 0.069401
C95   C     C_3   0.135886 0.859341 0.802105 0.069164
C96   C     C_3   0.139784 0.275204 0.801940 0.069271
Cr1   Cr    Cr6+3 0.164410 0.584450 0.499910 1.017529
Cr2   Cr    Cr6+3 0.415550 0.579960 0.499910 1.018469
Cr3   Cr    Cr6+3 0.420040 0.835590 0.499910 1.015370
Cr4   Cr    Cr6+3 0.155170 0.075460 0.019960 1.099277
Cr5   Cr    Cr6+3 0.924540 0.079710 0.019960 1.091312
Cr6   Cr    Cr6+3 0.920290 0.844830 0.019960 1.087137
H1    H     H_    0.637772 0.960633 0.805202 0.118694
H2    H     H_    0.039179 0.678151 0.805425 0.118664
H3    H     H_    0.321393 0.359062 0.805724 0.118663
H4    H     H_    0.500743 0.788128 0.735078 0.108499
H5    H     H_    0.211713 0.711865 0.735478 0.108419
H6    H     H_    0.287325 0.497811 0.735609 0.108480
H7    H     H_    0.549940 0.815436 0.816268 0.120455
H8    H     H_    0.184690 0.734262 0.816594 0.120588
H9    H     H_    0.264520 0.448043 0.816682 0.120819
H10   H     H_    0.768429 0.734885 0.791554 0.107509
H11   H     H_    0.265961 0.032266 0.791426 0.107554
H12   H     H_    0.966329 0.232744 0.790760 0.107555
H13   H     H_    0.580447 0.941959 0.378526 0.129446
H14   H     H_    0.042020 0.655466 0.381921 0.124519
H15   H     H_    0.345839 0.389710 0.381172 0.126961
H16   H     H_    0.630911 0.057101 0.215003 0.176314
H17   H     H_    0.909833 0.594067 0.220032 0.172691
H18   H     H_    0.375510 0.258281 0.227662 0.172730
H19   H     H_    0.598543 0.039942 0.302471 0.103364
H20   H     H_    0.929840 0.583545 0.307628 0.104699
H21   H     H_    0.405181 0.324547 0.310840 0.106183
H22   H     H_    0.760486 0.729281 0.148947 0.191335
H23   H     H_    0.298752 0.999058 0.140325 0.196142
H24   H     H_    0.923319 0.148907 0.159627 0.170536
H25   H     H_    0.762263 0.648804 0.224929 0.136398
H26   H     H_    0.397311 0.077949 0.214610 0.143231
H27   H     H_    0.853376 0.179337 0.235382 0.136726
H28   H     H_    0.736197 0.637355 0.313260 0.103538
H29   H     H_    0.409295 0.072632 0.303405 0.097120
H30   H     H_    0.883858 0.243412 0.320018 0.105335
H31   H     H_    0.586866 0.933521 0.724198 0.112947
H32   H     H_    0.066032 0.653988 0.724493 0.112951
H33   H     H_    0.346185 0.410598 0.724856 0.112946
H34   H     H_    0.669945 0.686421 0.385333 0.126398
H35   H     H_    0.340477 0.974259 0.378809 0.129873
H36   H     H_    0.011570 0.333823 0.387311 0.129454
H37   H     H_    0.846947 0.920497 0.694374 0.109210
H38   H     H_    0.079954 0.926714 0.694181 0.109295
H39   H     H_    0.073929 0.153310 0.693861 0.109287
H40   H     H_    0.790736 0.011409 0.700690 0.112580
H41   H     H_    0.988502 0.780546 0.700604 0.112458
H42   H     H_    0.220462 0.207740 0.700824 0.112555
H43   H     H_    0.840930 0.035996 0.781562 0.108107
H44   H     H_    0.964108 0.806436 0.781382 0.108061
H45   H     H_    0.193535 0.156797 0.781541 0.108020
H46   H     H_    0.892694 0.941503 0.775241 0.099180
H47   H     H_    0.059057 0.951749 0.774939 0.099245
H48   H     H_    0.047875 0.107080 0.774580 0.099314
H49   H     H_    0.580867 0.657827 0.725695 0.111739
H50   H     H_    0.342768 0.920894 0.725987 0.111513
H51   H     H_    0.077772 0.420314 0.725466 0.111639
H52   H     H_    0.724224 0.713239 0.710133 0.113322
H53   H     H_    0.287686 0.009302 0.710108 0.113470
H54   H     H_    0.989912 0.277655 0.709463 0.113556
H55   H     H_    0.625961 0.683520 0.807013 0.121583
H56   H     H_    0.317240 0.940936 0.807217 0.121609
H57   H     H_    0.057258 0.374535 0.806688 0.121870
O1    O     O_R   0.137150 0.468200 0.553200 -0.511689
O2    O     O_R   0.531800 0.668950 0.553200 -0.512197
O3    O     O_R   0.331050 0.862850 0.553200 -0.510684
O4    O     O_R   0.179100 0.982980 0.967000 -0.486474
O5    O     O_R   0.017020 0.196120 0.967000 -0.474399
O6    O     O_R   0.803880 0.820900 0.967000 -0.481929
O7    O     O_R   0.173970 0.688730 0.549930 -0.500613
O8    O     O_R   0.311270 0.485240 0.549930 -0.500479
O9    O     O_R   0.514760 0.826030 0.549930 -0.499795
O10   O     O_R   0.140110 0.470540 0.446010 -0.521048
O11   O     O_R   0.529460 0.669570 0.446010 -0.519931
O12   O     O_R   0.330430 0.859890 0.446010 -0.524289
O13   O     O_R   0.176710 0.690910 0.450560 -0.501647
O14   O     O_R   0.309090 0.485800 0.450560 -0.501882
O15   O     O_R   0.514200 0.823290 0.450560 -0.505466
O16   O     O_3   0.333333 0.666667 0.499990 -0.262763
O17   O     O_R   0.176750 0.985260 0.074180 -0.492287
O18   O     O_R   0.014740 0.191490 0.074180 -0.468967
O19   O     O_R   0.808510 0.823250 0.074180 -0.497208
O20   O     O_R   0.146100 0.172630 0.068980 -0.403816
O21   O     O_R   0.827370 0.973470 0.068980 -0.465752
O22   O     O_R   0.026530 0.853900 0.068980 -0.439560
O23   O     O_3   1.000000 0.000000 0.020040 -0.341369
O24   O     O_R   0.148270 0.170520 0.969620 -0.481839
O25   O     O_R   0.829480 0.977750 0.969620 -0.488304
O26   O     O_R   0.022250 0.851730 0.969620 -0.488155
Cl1   Cl    Cl    0.683489 0.035480 0.123763 -0.605008
Cl2   Cl    Cl    0.935352 0.659376 0.127711 -0.606220
Cl3   Cl    Cl    0.302926 0.208165 0.138199 -0.607708

loop_
_geom_bond_atom_site_label_1
_geom_bond_atom_site_label_2
_ccdc_geom_bond_type
C15   C18   T    
C79   H37   S    
C43   C46   A    
C10   C85   T    
C36   O15   A    
Cr1   O16   S    
C81   C84   S    
C2    C18   S    
C33   C45   A    
C48   C75   A    
C27   C78   A    
C92   H8    S    
C60   H30   S    
C6    C9    S    
C6    H57   S    
C53   C59   A    
C50   H35   S    
C20   O21   A    
C54   C60   A    
C25   C28   A    
C21   O22   A    
C40   H19   S    
C7    H52   S    
C59   H29   S    
C67   C88   S    
C33   C39   A    
Cr1   O13   S    
C31   C43   A    
C60   C63   A    
C82   C94   S    
C67   H31   S    
C37   C40   A    
C69   C93   S    
C25   H13   S    
C34   C77   S    
C64   C70   A    
C53   C56   A    
C79   H40   S    
Cr3   O12   S    
C10   C94   S    
C11   C86   T    
Cr1   O7    S    
C83   H44   S    
C30   C57   A    
Cr2   O11   S    
Cr1   O10   S    
C84   C96   S    
C80   C89   S    
Cr4   O24   S    
C8    H53   S    
C6    H12   S    
C36   C76   S    
C33   C72   A    
C93   H3    S    
C23   O6    A    
C28   C55   A    
C81   H42   S    
C66   C72   A    
C37   H16   S    
C7    C88   S    
C9    H54   S    
Cr4   O17   S    
Cr6   O23   S    
C64   C73   A    
C68   H5    S    
C32   C38   A    
C39   C42   A    
Cr4   O23   S    
C19   O18   A    
Cr2   O8    S    
C12   C87   T    
C44   C47   A    
C5    H11   S    
C56   C71   A    
C58   C61   A    
C81   H39   S    
C4    H10   S    
C63   C66   A    
C9    H51   S    
C69   H33   S    
C27   C30   A    
C14   C17   T    
C67   H4    S    
C80   C83   S    
C79   C88   S    
C5    C95   S    
C69   H6    S    
C42   H21   S    
C32   C71   A    
C31   C70   A    
C26   C77   A    
C50   C53   A    
Cr1   O1    S    
C83   H47   S    
C47   C74   A    
C38   C41   A    
Cr2   O14   S    
C3    O2    A    
C19   C48   S    
C20   O19   A    
C43   Cl1   S    
C4    C7    S    
C65   C71   A    
C92   C95   S    
C65   C74   A    
C31   C37   A    
C24   O26   A    
C35   O14   A    
C41   H20   S    
C61   C64   A    
C3    C16   S    
C14   C89   S    
C22   O24   A    
C80   H41   S    
C5    C8    S    
Cr3   O3    S    
C22   O5    A    
C4    H55   S    
C73   H22   S    
C83   C95   S    
C67   C91   S    
C68   C89   S    
C32   C44   A    
C49   C76   A    
C61   H25   S    
C22   C87   S    
Cr5   O25   S    
C52   C58   A    
C93   H9    S    
C7    H49   S    
C81   C90   S    
Cr2   O2    S    
C49   H34   S    
C1    O3    A    
C93   C96   S    
C6    C96   S    
C35   O10   A    
C4    C94   S    
C24   O4    A    
C38   H17   S    
C69   C90   S    
C50   C77   A    
C19   O20   A    
C82   H43   S    
C34   O13   A    
Cr3   O9    S    
C45   C48   A    
C11   C95   S    
C34   O12   A    
C59   C62   A    
C62   C65   A    
C29   C41   A    
Cr6   O22   S    
C36   O11   A    
Cr5   O5    S    
C30   C42   A    
C49   C52   A    
C91   H1    S    
C8    H50   S    
C9    C90   S    
C79   C82   S    
C82   H46   S    
C52   C55   A    
C45   Cl3   S    
C29   C56   A    
C84   H45   S    
Cr6   O26   S    
C35   C78   S    
C1    C17   S    
C51   C54   A    
C25   C76   A    
C75   H24   S    
C68   H32   S    
C51   C78   A    
C23   O25   A    
Cr5   O21   S    
C80   H38   S    
C91   C94   S    
C62   H26   S    
Cr2   O16   S    
C91   H7    S    
Cr3   O15   S    
C1    O7    A    
C58   H28   S    
Cr6   O19   S    
C66   C75   A    
C13   C88   S    
Cr6   O6    S    
C68   C92   S    
Cr4   O4    S    
C63   H27   S    
C57   C72   A    
C21   O17   A    
C26   H14   S    
C55   C70   A    
Cr5   O18   S    
C92   H2    S    
C44   Cl2   S    
C74   H23   S    
C51   H36   S    
Cr3   O16   S    
C26   C29   A    
C2    O1    A    
C5    H56   S    
C23   C85   S    
C13   C16   T    
C28   C40   A    
C12   C96   S    
C8    C89   S    
C27   H15   S    
C21   C47   S    
Cr4   O20   S    
C24   C86   S    
C2    O8    A    
C46   C73   A    
C20   C46   S    
Cr5   O23   S    
C39   H18   S    
C3    O9    A    
C15   C90   S    
C54   C57   A    
C84   H48   S    
