data_mof_unit_51952.cif
_audit_creation_date              2012-12-11T15:35:01-0500
_audit_creation_method            fapswitch 2.2
_symmetry_space_group_name_H-M    P1
_symmetry_Int_Tables_number       1
_space_group_crystal_system       triclinic
_cell_length_a                    30.456267
_cell_length_b                    7.238903
_cell_length_c                    26.089054
_cell_angle_alpha                 89.999521
_cell_angle_beta                  112.140435
_cell_angle_gamma                 89.99923
_cell_volume                      5327.72775627

loop_
_atom_site_label
_atom_site_type_symbol
_atom_type_description
_atom_site_fract_x
_atom_site_fract_y
_atom_site_fract_z
_atom_type_partial_charge
O1    O     O_R   0.295360 0.592990 0.320420 -0.536928
O2    O     O_R   0.704640 0.407010 0.679580 -0.536918
O3    O     O_R   0.204640 0.092990 0.179580 -0.536918
O4    O     O_R   0.795360 0.907010 0.820420 -0.536921
O5    O     O_R   0.294060 0.265620 0.213230 -0.504443
O6    O     O_R   0.705940 0.734380 0.786770 -0.504443
O7    O     O_R   0.205940 0.765620 0.286770 -0.504454
O8    O     O_R   0.794060 0.234380 0.713230 -0.504444
C1    C     C_R   0.303998 0.431901 0.199106 0.723129
C2    C     C_R   0.696002 0.568099 0.800894 0.723124
C3    C     C_R   0.196002 0.931901 0.300894 0.723097
C4    C     C_R   0.803998 0.068099 0.699106 0.723120
O9    O     O_R   0.300850 0.263360 0.322080 -0.537331
O10   O     O_R   0.699150 0.736640 0.677920 -0.537333
O11   O     O_R   0.199150 0.763360 0.177920 -0.537330
O12   O     O_R   0.800850 0.236640 0.822080 -0.537334
O13   O     O_R   0.211480 0.091820 0.289210 -0.545605
O14   O     O_R   0.788520 0.908180 0.710790 -0.545609
O15   O     O_R   0.288520 0.591820 0.210790 -0.545614
O16   O     O_R   0.711480 0.408180 0.789210 -0.545616
C5    C     C_R   0.312947 0.430581 0.343582 0.677840
C6    C     C_R   0.687053 0.569419 0.656418 0.677856
C7    C     C_R   0.187053 0.930582 0.156417 0.677847
C8    C     C_R   0.812947 0.069418 0.843583 0.677837
O17   O     O_3   0.220670 0.426670 0.239090 -0.371101
O18   O     O_3   0.779330 0.573330 0.760910 -0.371104
O19   O     O_3   0.279330 0.926670 0.260910 -0.371099
O20   O     O_3   0.720670 0.073330 0.739090 -0.371100
V1    V     V_3+5 0.255440 0.152290 0.252020 1.458706
V2    V     V_3+5 0.744560 0.847710 0.747980 1.458705
V3    V     V_3+5 0.244560 0.652290 0.247980 1.458680
V4    V     V_3+5 0.755440 0.347710 0.752020 1.458695
C9    C     C_R   0.849826 0.073719 0.900134 -0.051175
C10   C     C_R   0.150175 0.926281 0.099866 -0.051181
C11   C     C_R   0.650174 0.573715 0.599867 -0.051177
C12   C     C_R   0.349825 0.426286 0.400133 -0.051182
C13   C     C_R   0.880417 0.243854 0.986316 -0.130470
C14   C     C_R   0.119584 0.756145 0.013683 -0.130446
C15   C     C_R   0.619585 0.743829 0.513680 -0.130452
C16   C     C_R   0.380414 0.256173 0.486320 -0.130435
C17   C     C_R   0.842846 0.193367 0.938421 -0.180788
C18   C     C_R   0.157154 0.806628 0.061580 -0.180795
C19   C     C_R   0.657154 0.693353 0.561579 -0.180809
C20   C     C_R   0.342845 0.306645 0.438421 -0.180820
C21   C     C_R   0.894791 0.994131 0.912431 -0.188864
C22   C     C_R   0.105211 0.005877 0.087566 -0.188847
C23   C     C_R   0.605209 0.494133 0.587571 -0.188864
C24   C     C_R   0.394789 0.505873 0.412430 -0.188852
C25   C     C_R   0.933960 0.041442 0.961923 0.044933
C26   C     C_R   0.066042 0.958570 0.038073 0.044936
C27   C     C_R   0.566040 0.541438 0.538077 0.044926
C28   C     C_R   0.433958 0.458575 0.461925 0.044923
C29   C     C_R   0.926256 0.175431 0.997485 0.026669
C30   C     C_R   0.073747 0.824580 0.002511 0.026678
C31   C     C_R   0.573747 0.675405 0.502510 0.026686
C32   C     C_R   0.426251 0.324608 0.497492 0.026690
C33   C     C_R   0.980768 0.967046 0.976037 -0.029593
C34   C     C_R   0.019234 0.032971 0.023958 -0.029601
C35   C     C_R   0.519231 0.467054 0.523965 -0.029584
C36   C     C_R   0.480767 0.532963 0.476039 -0.029587
C37   C     C_R   0.009954 0.174069 0.055644 -0.260493
C38   C     C_R   0.990049 0.825953 0.944349 -0.260508
C39   C     C_R   0.490049 0.674029 0.444345 -0.260495
C40   C     C_R   0.509948 0.325991 0.555660 -0.260500
C41   C     C_R   0.964598 0.245913 0.042581 0.436748
C42   C     C_R   0.035405 0.754107 0.957413 0.436743
C43   C     C_R   0.535406 0.745865 0.457407 0.436748
C44   C     C_R   0.464591 0.254156 0.542597 0.436755
H1    H     H_    0.101190 0.091938 0.119211 0.109944
H2    H     H_    0.898811 0.908071 0.880785 0.109940
H3    H     H_    0.398810 0.591925 0.380783 0.109942
H4    H     H_    0.601189 0.408080 0.619218 0.109940
H5    H     H_    0.191450 0.742864 0.070489 0.110668
H6    H     H_    0.808550 0.257124 0.929513 0.110665
H7    H     H_    0.308549 0.242884 0.429511 0.110667
H8    H     H_    0.691450 0.757109 0.570487 0.110666
H9    H     H_    0.873680 0.343047 0.013571 0.167218
H10   H     H_    0.126322 0.656946 0.986430 0.167224
H11   H     H_    0.626323 0.843015 0.486424 0.167221
H12   H     H_    0.373675 0.156983 0.513575 0.167227
H13   H     H_    0.037518 0.236025 0.090561 0.148791
H14   H     H_    0.962486 0.764007 0.909430 0.148778
H15   H     H_    0.462487 0.735960 0.409421 0.148782
H16   H     H_    0.537510 0.264063 0.590585 0.148776
C45   C     C_R   0.091465 0.927624 0.479972 0.573642
C46   C     C_R   0.908537 0.072374 0.520030 0.573635
C47   C     C_R   0.408552 0.427452 0.020046 0.573621
C48   C     C_R   0.591449 0.572543 0.979955 0.573620
N1    N     N_R   0.074227 0.977700 0.425153 -0.546271
N2    N     N_R   0.925775 0.022301 0.574850 -0.546269
N3    N     N_R   0.425775 0.477701 0.074851 -0.546255
N4    N     N_R   0.574226 0.522297 0.925150 -0.546256
C49   C     C_R   0.028282 0.037091 0.399383 0.585300
C50   C     C_R   0.971721 0.962914 0.600620 0.585295
C51   C     C_R   0.471706 0.537269 0.100605 0.585288
C52   C     C_R   0.528295 0.462732 0.899396 0.585289
C53   C     C_R   0.997856 0.047835 0.428743 -0.035093
C54   C     C_R   0.002147 0.952171 0.571260 -0.035091
C55   C     C_R   0.502131 0.548016 0.071243 -0.035093
C56   C     C_R   0.497870 0.451984 0.928758 -0.035094
C57   C     C_R   0.015033 0.995706 0.484875 -0.015528
C58   C     C_R   0.984969 0.004299 0.515128 -0.015528
C59   C     C_R   0.484968 0.495703 0.015128 -0.015512
C60   C     C_R   0.515033 0.504294 0.984874 -0.015511
C61   C     C_R   0.062200 0.934935 0.510821 -0.029106
C62   C     C_R   0.937802 0.065068 0.489182 -0.029104
C63   C     C_R   0.437818 0.434752 0.989199 -0.029102
C64   C     C_R   0.562184 0.565244 0.010803 -0.029102
C65   C     C_R   0.950685 0.108290 0.403273 -0.137699
C66   C     C_R   0.049317 0.891716 0.596730 -0.137700
C67   C     C_R   0.549284 0.608663 0.096693 -0.137710
C68   C     C_R   0.450716 0.391336 0.903308 -0.137711
C69   C     C_R   0.921034 0.116784 0.433112 -0.139915
C70   C     C_R   0.078968 0.883219 0.566891 -0.139914
C71   C     C_R   0.578935 0.617153 0.066854 -0.139931
C72   C     C_R   0.421066 0.382844 0.933147 -0.139929
O21   O     O_2   0.136918 0.872284 0.504769 -0.528191
O22   O     O_2   0.863083 0.127709 0.495233 -0.528195
O23   O     O_2   0.363112 0.371932 0.995263 -0.528214
O24   O     O_2   0.636890 0.628058 0.004738 -0.528213
O25   O     O_2   0.011835 0.083539 0.345332 -0.515033
O26   O     O_2   0.988167 0.916471 0.654672 -0.515037
O27   O     O_2   0.488140 0.583903 0.154642 -0.515048
O28   O     O_2   0.511860 0.416103 0.845359 -0.515046
H17   H     H_    0.936480 0.149210 0.360165 0.174441
H18   H     H_    0.063522 0.850798 0.639838 0.174442
H19   H     H_    0.563474 0.649749 0.139785 0.174447
H20   H     H_    0.436527 0.350251 0.860216 0.174448
H21   H     H_    0.884928 0.164094 0.412060 0.172363
H22   H     H_    0.115074 0.835909 0.587943 0.172363
H23   H     H_    0.615027 0.664628 0.087888 0.172370
H24   H     H_    0.384974 0.335368 0.912113 0.172370
C73   C     C_R   0.883722 0.876317 0.629108 -0.081694
C74   C     C_R   0.116284 0.123689 0.370901 -0.081672
C75   C     C_R   0.616297 0.376302 0.870913 -0.081694
C76   C     C_R   0.383704 0.623697 0.129088 -0.081693
H25   H     H_    0.897415 0.742814 0.623647 0.151208
H26   H     H_    0.102596 0.257196 0.376367 0.151208
H27   H     H_    0.602622 0.242785 0.876395 0.151235
H28   H     H_    0.397380 0.757213 0.123607 0.151236
C77   C     C_R   0.854527 0.888875 0.659478 -0.270498
C78   C     C_R   0.145479 0.111130 0.340531 -0.270482
C79   C     C_R   0.645490 0.388864 0.840541 -0.270552
C80   C     C_R   0.354511 0.611135 0.159460 -0.270548
H29   H     H_    0.846967 0.763835 0.677356 0.200803
H30   H     H_    0.153043 0.236174 0.322657 0.200811
H31   H     H_    0.653062 0.263815 0.822677 0.200830
H32   H     H_    0.346939 0.736184 0.177324 0.200830
C81   C     C_R   0.835622 0.059875 0.667021 -0.160093
C82   C     C_R   0.164379 0.940125 0.332981 -0.160112
C83   C     C_R   0.664378 0.559876 0.832979 -0.160098
C84   C     C_R   0.335622 0.440124 0.167021 -0.160101
C85   C     C_R   0.846620 0.219631 0.642565 0.429482
C86   C     C_R   0.153376 0.780365 0.357431 0.429479
C87   C     C_R   0.653365 0.719643 0.857417 0.429494
C88   C     C_R   0.346635 0.280357 0.142584 0.429492
C89   C     C_R   0.876997 0.205781 0.613362 -0.166362
C90   C     C_R   0.123000 0.794215 0.386634 -0.166347
C91   C     C_R   0.622984 0.705794 0.886613 -0.166340
C92   C     C_R   0.377016 0.294205 0.113387 -0.166338
H33   H     H_    0.886294 0.329277 0.596262 0.138765
H34   H     H_    0.113701 0.670715 0.403731 0.138779
H35   H     H_    0.613672 0.829300 0.903694 0.138796
H36   H     H_    0.386328 0.170698 0.096306 0.138798
C93   C     C_R   0.895316 0.034658 0.605939 0.310847
C94   C     C_R   0.104686 0.965343 0.394064 0.310838
C95   C     C_R   0.604683 0.534656 0.894059 0.310818
C96   C     C_R   0.395317 0.465342 0.105942 0.310815
O29   O     O_3   0.957919 0.386104 0.074979 -0.545038
C97   C     C_3   0.968751 0.555925 0.055837 -0.226592
H37   H     H_    0.962206 0.669306 0.080669 0.185104
H38   H     H_    0.945615 0.580878 0.011763 0.128891
H39   H     H_    0.006736 0.562942 0.061140 0.132034
O30   O     O_3   0.042086 0.613924 0.925014 -0.545042
C98   C     C_3   0.031228 0.444105 0.944132 -0.226596
H40   H     H_    0.054333 0.419133 0.988216 0.128876
H41   H     H_    0.037795 0.330726 0.919315 0.185104
H42   H     H_    0.993232 0.437106 0.938783 0.132056
O31   O     O_3   0.542090 0.886007 0.424997 -0.545042
C99   C     C_3   0.531234 0.055860 0.444100 -0.226577
H43   H     H_    0.537780 0.169197 0.419255 0.185100
H44   H     H_    0.554356 0.080906 0.488174 0.128891
H45   H     H_    0.493244 0.062856 0.438778 0.132031
O32   O     O_3   0.457907 0.114007 0.575003 -0.545046
C100  C     C_3   0.468776 0.944171 0.555906 -0.226609
H46   H     H_    0.445677 0.919148 0.511822 0.128875
H47   H     H_    0.462209 0.830825 0.580732 0.185111
H48   H     H_    0.506774 0.937181 0.561262 0.132063
O33   O     O_3   0.829884 0.391670 0.649367 -0.551491
C101  C     C_3   0.790663 0.436090 0.600947 -0.223422
H49   H     H_    0.762179 0.330116 0.591582 0.126624
H50   H     H_    0.801469 0.454231 0.564997 0.148969
H51   H     H_    0.775586 0.569220 0.607655 0.145736
O34   O     O_3   0.170109 0.608321 0.350628 -0.551495
C102  C     C_3   0.209352 0.563963 0.399031 -0.223391
H52   H     H_    0.198582 0.545974 0.435012 0.148955
H53   H     H_    0.237840 0.669896 0.408340 0.126620
H54   H     H_    0.224409 0.430772 0.392334 0.145723
O35   O     O_3   0.670093 0.891688 0.850604 -0.551489
C103  C     C_3   0.709304 0.936163 0.899027 -0.223477
H55   H     H_    0.737793 0.830196 0.908414 0.126637
H56   H     H_    0.698488 0.954357 0.934967 0.148983
H57   H     H_    0.724382 0.069279 0.892310 0.145718
O36   O     O_3   0.329906 0.108313 0.149395 -0.551489
C104  C     C_3   0.290694 0.063844 0.100972 -0.223471
H58   H     H_    0.301510 0.045647 0.065032 0.148985
H59   H     H_    0.262207 0.169817 0.091586 0.126635
H60   H     H_    0.275615 0.930732 0.107689 0.145718

loop_
_geom_bond_atom_site_label_1
_geom_bond_atom_site_label_2
_ccdc_geom_bond_type
O17   V3    S    
C55   C59   A    
C25   C29   A    
C1    C84   S    
O1    C5    A    
C101  H49   S    
C54   C66   A    
C47   N3    A    
O19   V1    S    
O13   V1    S    
O29   C97   S    
C78   H30   S    
O3    C7    A    
C10   C18   A    
C56   C60   A    
C80   H32   S    
C11   C23   A    
C100  H46   S    
C77   C81   A    
C33   C38   A    
C98   H41   S    
C5    C12   S    
C85   O33   S    
C104  H58   S    
C73   H25   S    
C6    C11   S    
C35   C40   A    
C57   C58   A    
C69   H21   S    
C36   C39   A    
C92   H36   S    
C64   C71   A    
O9    V1    S    
C49   O25   S    
C86   C90   A    
C73   C93   A    
C13   C17   A    
C48   C64   A    
C51   C55   A    
C100  H47   S    
C97   H37   S    
C50   C54   A    
C60   C64   A    
O1    V3    S    
C9    C21   A    
O32   C100  S    
O2    V4    S    
C89   H33   S    
O3    V1    S    
C81   C85   A    
O30   C98   S    
C40   H16   S    
C22   H1    S    
C28   C36   A    
C101  H51   S    
C17   H6    S    
C76   H28   S    
C1    O15   A    
C15   C31   A    
C48   N4    A    
C2    O16   A    
C103  H55   S    
C16   C32   A    
C72   H24   S    
O2    C6    A    
C74   C94   A    
C58   C62   A    
C10   C22   A    
C83   C87   A    
C48   O24   S    
C11   C19   A    
C66   C70   A    
C99   H45   S    
C77   H29   S    
C102  H54   S    
C13   C29   A    
C34   C37   A    
O11   C7    A    
O34   C102  S    
C38   H14   S    
O15   V3    S    
O35   C103  S    
O12   C8    A    
N1    C49   A    
C70   H22   S    
C47   O23   S    
C46   C62   A    
O10   V2    S    
C45   C61   A    
C99   H44   S    
N2    C50   A    
C98   H42   S    
O5    V1    S    
C104  H59   S    
N4    C52   A    
C57   C61   A    
N1    C94   S    
C39   C43   A    
O7    V3    S    
C38   C42   A    
C62   C69   A    
C87   C91   A    
O8    V4    S    
C84   C88   A    
C61   C70   A    
C88   C92   A    
C46   N2    A    
C89   C93   A    
C45   N1    A    
O18   V4    S    
C100  H48   S    
C15   C19   A    
C76   C96   A    
C32   C44   A    
C13   H9    S    
C102  H52   S    
C39   H15   S    
C26   C34   A    
C20   H7    S    
C79   H31   S    
C35   C36   A    
O5    C1    A    
C54   C58   A    
C2    C83   S    
C74   C78   A    
C53   C65   A    
N3    C96   S    
C49   C53   A    
O7    C3    A    
C98   H40   S    
C14   C30   A    
C24   C28   A    
O8    C4    A    
C7    C10   S    
C55   C67   A    
C16   H12   S    
C21   C25   A    
O9    C5    A    
C46   O22   S    
C26   C30   A    
O36   C104  S    
C45   O21   S    
C66   H18   S    
O14   V2    S    
C50   O26   S    
C52   O28   S    
C65   H17   S    
O6    V2    S    
C56   C68   A    
N2    C93   S    
C67   H19   S    
C91   H35   S    
C12   C20   A    
C27   C35   A    
C24   H3    S    
C41   O29   S    
C88   O36   S    
C40   C44   A    
C68   C72   A    
C29   C41   A    
C99   H43   S    
C90   C94   A    
C59   C63   A    
O16   V4    S    
C104  H60   S    
C51   O27   S    
C19   H8    S    
C44   O32   S    
C18   H5    S    
C101  H50   S    
C21   H2    S    
C4    C81   S    
C47   C63   A    
C3    O13   A    
O6    C2    A    
C25   C33   A    
C23   C27   A    
O11   V3    S    
C30   C42   A    
C65   C69   A    
C74   H26   S    
O12   V4    S    
C14   H10   S    
C22   C26   A    
C73   C77   A    
C8    C9    S    
C75   H27   S    
C9    C17   A    
O10   C6    A    
O20   V2    S    
C31   C43   A    
C80   C84   A    
C43   O31   S    
C67   C71   A    
N4    C95   S    
C78   C82   A    
C33   C34   A    
C3    C82   S    
C97   H38   S    
C103  H57   S    
O4    C8    A    
C52   C56   A    
C79   C83   A    
C75   C79   A    
C91   C95   A    
C12   C24   A    
C27   C31   A    
C92   C96   A    
C85   C89   A    
O33   C101  S    
C87   O35   S    
O4    V2    S    
C63   C72   A    
C68   H20   S    
C90   H34   S    
N3    C51   A    
O31   C99   S    
C86   O34   S    
C14   C18   A    
C37   C41   A    
C16   C20   A    
C71   H23   S    
C23   H4    S    
C76   C80   A    
C82   C86   A    
C4    O14   A    
C59   C60   A    
C75   C95   A    
C42   O30   S    
C37   H13   S    
C103  H56   S    
C53   C57   A    
C28   C32   A    
C15   H11   S    
C102  H53   S    
C97   H39   S    
