data_mof_unit_42848.cif
_audit_creation_date              2012-12-10T16:50:58-0500
_audit_creation_method            fapswitch 2.2
_symmetry_space_group_name_H-M    P1
_symmetry_Int_Tables_number       1
_space_group_crystal_system       triclinic
_cell_length_a                    8.040719
_cell_length_b                    8.542066
_cell_length_c                    10.532776
_cell_angle_alpha                 91.033632
_cell_angle_beta                  88.19729
_cell_angle_gamma                 92.500905
_cell_volume                      722.289511753

loop_
_atom_site_label
_atom_site_type_symbol
_atom_type_description
_atom_site_fract_x
_atom_site_fract_y
_atom_site_fract_z
_atom_type_partial_charge
C1    C     C_R   0.543297 0.793004 0.493657 0.896833
C2    C     C_R   0.936812 0.507873 0.076727 -0.073951
C3    C     C_R   0.069149 0.599166 0.027056 -0.141046
C4    C     C_R   0.930847 0.400765 0.972922 -0.141058
C5    C     C_R   0.210092 0.612872 0.100919 -0.209504
C6    C     C_R   0.789902 0.387062 0.899062 -0.209494
C7    C     C_R   0.351751 0.536780 0.060832 0.093103
C8    C     C_R   0.648242 0.463150 0.939156 0.093113
C9    C     C_R   0.352633 0.457066 0.943881 0.095037
C10   C     C_R   0.647362 0.542861 0.056107 0.095027
C11   C     C_R   0.498298 0.554668 0.125348 -0.232283
C12   C     C_R   0.456705 0.206995 0.506346 0.896797
C13   C     C_R   0.501697 0.445273 0.874639 -0.232281
C14   C     C_3   0.823281 0.005893 0.389134 -0.255754
C15   C     C_3   0.176739 0.994132 0.610912 -0.255651
C16   C     C_2   0.558227 0.955897 0.471598 0.199828
C17   C     C_2   0.441787 0.044102 0.528414 0.199816
C18   C     C_R   0.501197 0.478943 0.738611 0.884937
C19   C     C_R   0.498800 0.521040 0.261384 0.884929
C20   C     C_R   0.202630 0.409406 0.891638 -0.191079
C21   C     C_R   0.797369 0.590524 0.108342 -0.191080
C22   C     C_R   0.063186 0.492057 0.923251 -0.073955
H1    H     H_    0.961913 0.281842 0.996611 0.154020
H2    H     H_    0.991055 0.618628 0.595054 0.180562
H3    H     H_    0.890522 0.092660 0.326966 0.173832
H4    H     H_    0.871202 0.889322 0.363311 0.167341
H5    H     H_    0.853166 0.038780 0.488991 0.139616
H6    H     H_    0.146820 0.961314 0.511026 0.139559
H7    H     H_    0.128824 0.110709 0.636801 0.167298
H8    H     H_    0.109523 0.907319 0.673059 0.173848
H9    H     H_    0.038082 0.718088 0.003366 0.154016
H10   H     H_    0.197300 0.325437 0.813004 0.162368
H11   H     H_    0.802708 0.674506 0.186966 0.162390
H12   H     H_    0.033056 0.549769 0.835571 0.166508
H13   H     H_    0.966943 0.450158 0.164407 0.166507
H14   H     H_    0.212552 0.694766 0.180836 0.155653
H15   H     H_    0.787441 0.305177 0.819138 0.155643
H16   H     H_    0.008945 0.381372 0.404946 0.180567
N1    N     N_2   0.950330 0.457950 0.466250 -0.198504
N2    N     N_2   0.049670 0.542050 0.533750 -0.198507
O1    O     O_R   0.389250 0.738570 0.508280 -0.590454
O2    O     O_3   0.348542 0.990601 0.634004 -0.627362
O3    O     O_R   0.610750 0.261430 0.491720 -0.590451
O4    O     O_R   0.678390 0.711630 0.486650 -0.645230
O5    O     O_R   0.321610 0.288370 0.513350 -0.645235
O6    O     O_R   0.355430 0.513480 0.694040 -0.604992
O7    O     O_R   0.644570 0.486520 0.305960 -0.604988
O8    O     O_R   0.644570 0.486540 0.672410 -0.625447
O9    O     O_R   0.355430 0.513460 0.327590 -0.625444
O10   O     O_3   0.651489 0.009398 0.366017 -0.627346
Zn1   Zn    Zn3+2 0.306940 0.517990 0.514440 0.925970
Zn2   Zn    Zn3+2 0.693060 0.482010 0.485560 0.925975

loop_
_geom_bond_atom_site_label_1
_geom_bond_atom_site_label_2
_ccdc_geom_bond_type
C2    H13   S    
C12   C17   S    
C2    C4    A    
C5    C7    A    
O7    Zn2   S    
C14   H5    S    
N2    Zn1   S    
C4    C22   A    
C19   O9    A    
C1    O4    A    
C3    H9    S    
O4    Zn2   S    
C2    C21   A    
N1    Zn2   S    
C6    H15   S    
C14   H3    S    
C1    C16   S    
C14   O10   S    
C14   H4    S    
C7    C11   A    
C11   C19   S    
C15   H6    S    
C8    C13   A    
C13   C18   S    
C18   O6    A    
C4    C6    A    
H2    N2    S    
C20   C22   A    
C15   H7    S    
C12   O3    A    
C2    C3    A    
C10   C21   A    
H16   N1    S    
C22   H12   S    
C19   O7    A    
O3    Zn2   S    
C21   H11   S    
C10   C11   A    
O5    Zn1   S    
C5    H14   S    
O8    Zn2   S    
C15   H8    S    
C8    C10   A    
C20   H10   S    
C1    O1    A    
N1    N2    D    
C7    C9    A    
C4    H1    S    
C9    C13   A    
C17   O2    S    
C12   O5    A    
C3    C22   A    
C6    C8    A    
C9    C20   A    
C3    C5    A    
O6    Zn1   S    
O1    Zn1   S    
C15   O2    S    
C16   O10   S    
C16   C17   D    
O9    Zn1   S    
C18   O8    A    
