data_mof_unit_41280.cif
_audit_creation_date              2012-10-26T20:21:18-0400
_audit_creation_method            fapswitch 2.2
_symmetry_space_group_name_H-M    P1
_symmetry_Int_Tables_number       1
_space_group_crystal_system       triclinic
_cell_length_a                    9.554688
_cell_length_b                    10.830863
_cell_length_c                    15.250326
_cell_angle_alpha                 88.59202
_cell_angle_beta                  75.436356
_cell_angle_gamma                 89.798837
_cell_volume                      1527.01200421

loop_
_atom_site_label
_atom_site_type_symbol
_atom_type_description
_atom_site_fract_x
_atom_site_fract_y
_atom_site_fract_z
_atom_type_partial_charge
C1    C     C_R   0.999199 0.262238 0.501652 0.599843
C2    C     C_R   0.127173 0.066795 0.463862 -0.138216
C3    C     C_R   0.001744 0.871736 0.497548 0.048709
C4    C     C_R   0.998248 0.128270 0.502299 0.046504
C5    C     C_R   0.557637 0.410973 0.546387 0.051372
C6    C     C_R   0.442411 0.588904 0.453490 0.079879
C7    C     C_R   0.409555 0.410505 0.547413 0.345882
C8    C     C_R   0.590533 0.589264 0.452348 0.362639
C9    C     C_R   0.919753 0.505844 0.672651 0.567585
C10   C     C_R   0.080232 0.494745 0.327239 0.570995
C11   C     C_R   0.877362 0.521814 0.772036 -0.006479
C12   C     C_R   0.000811 0.737763 0.498297 0.595437
C13   C     C_R   0.122594 0.480919 0.227534 -0.005983
C14   C     C_R   0.910310 0.598382 0.913581 -0.051912
C15   C     C_R   0.088500 0.410109 0.084695 -0.051655
C16   C     C_R   0.964444 0.582745 0.820467 0.248724
C17   C     C_R   0.033875 0.424737 0.177879 0.251186
C18   C     C_R   0.737554 0.483516 0.818042 -0.159676
C19   C     C_R   0.263432 0.517511 0.182207 -0.156508
C20   C     C_R   0.676117 0.511964 0.909402 -0.012597
C21   C     C_R   0.324225 0.492105 0.090198 -0.012127
C22   C     C_R   0.767279 0.566134 0.958156 0.043102
C23   C     C_R   0.570764 0.562192 0.093851 -0.064381
C24   C     C_R   0.232405 0.440459 0.040759 0.043043
C25   C     C_R   0.527012 0.489302 0.952986 0.006242
C26   C     C_R   0.473302 0.515318 0.046562 0.006887
C27   C     C_R   0.429320 0.444192 0.905266 -0.074353
C28   C     C_R   0.714669 0.590285 0.050377 0.272192
C29   C     C_R   0.284954 0.417363 0.948344 0.271323
C30   C     C_R   0.869718 0.061762 0.539148 0.229760
C31   C     C_R   0.130245 0.938247 0.460625 0.240973
C32   C     C_R   0.872802 0.933216 0.535939 -0.142786
Cu1   Cu    Cu3+1 0.140660 0.500020 0.500000 1.053515
Cu2   Cu    Cu3+1 0.859340 0.499980 0.500000 1.031392
H1    H     H_    0.323864 0.565116 0.221661 0.139435
H2    H     H_    0.400632 0.659069 0.415309 0.184984
H3    H     H_    0.750464 0.661282 0.159387 0.361349
H4    H     H_    0.248850 0.348017 0.838919 0.365803
H5    H     H_    0.770862 0.243971 0.346088 0.376006
H6    H     H_    0.349353 0.585967 0.705810 0.356776
H7    H     H_    0.664739 0.062734 0.601638 0.339119
H8    H     H_    0.335153 0.937276 0.397974 0.336941
H9    H     H_    0.227886 0.348037 0.619297 0.388079
H10   H     H_    0.772328 0.651944 0.380744 0.385185
H11   H     H_    0.678410 0.431942 0.779782 0.137180
H12   H     H_    0.978748 0.641503 0.950861 0.215832
H13   H     H_    0.019305 0.369791 0.046681 0.216044
H14   H     H_    0.539223 0.578407 0.165302 0.122757
H15   H     H_    0.460904 0.429827 0.833519 0.112538
H16   H     H_    0.774920 0.880947 0.565098 0.147128
H17   H     H_    0.225053 0.119069 0.434705 0.146903
H18   H     H_    0.599411 0.340799 0.584561 0.187647
N1    N     N_R   0.352080 0.500030 0.499980 -0.270600
N2    N     N_R   0.647920 0.499970 0.500020 -0.274890
O1    O     O_R   0.118740 0.319660 0.500000 -0.523725
O2    O     O_3   0.193258 0.367667 0.901095 -0.680544
O3    O     O_2   0.756230 0.463223 0.264787 -0.302018
O4    O     O_2   0.803943 0.290953 0.161025 -0.268518
O5    O     O_3   0.872246 0.264349 0.314367 -0.503578
O6    O     O_2   0.119253 0.733692 0.689978 -0.258833
O7    O     O_2   0.187088 0.727677 0.834317 -0.274115
O8    O     O_3   0.256784 0.541173 0.729339 -0.531502
O9    O     O_3   0.744083 0.123412 0.579714 -0.687340
O10   O     O_3   0.255840 0.876593 0.419983 -0.680909
O11   O     O_3   0.327211 0.317714 0.598046 -0.683146
O12   O     O_R   0.881260 0.680340 0.500000 -0.529013
O13   O     O_3   0.672856 0.682015 0.401647 -0.686615
O14   O     O_R   0.881170 0.319630 0.500010 -0.442588
O15   O     O_R   0.118830 0.680370 0.499990 -0.428938
O16   O     O_R   0.055570 0.500030 0.629830 -0.454659
O17   O     O_R   0.944430 0.499970 0.370170 -0.459316
O18   O     O_R   0.818000 0.500000 0.629840 -0.526857
O19   O     O_R   0.182000 0.500000 0.370160 -0.522483
O20   O     O_3   0.805825 0.642265 0.097032 -0.684342
S1    S     S_3+6 0.860299 0.361339 0.228797 0.029449
S2    S     S_3+6 0.134383 0.651506 0.767875 0.034864

loop_
_geom_bond_atom_site_label_1
_geom_bond_atom_site_label_2
_ccdc_geom_bond_type
Cu1   O1    S    
H3    O20   S    
C11   C18   A    
O5    S1    S    
C27   C29   A    
C9    O18   A    
C15   H13   S    
C12   O15   A    
C28   O20   S    
Cu2   O12   S    
C14   H12   S    
C19   C21   A    
C10   O19   A    
C20   C25   A    
C1    O14   A    
H6    O8    S    
C23   C26   A    
C24   C29   A    
C3    C12   S    
C5    H18   S    
Cu1   O15   S    
C10   O17   A    
C22   C28   A    
C30   O9    S    
O8    S2    S    
C21   C26   A    
O4    S1    D    
O7    S2    D    
Cu1   N1    S    
C13   C19   A    
C5    N2    A    
C9    O16   A    
C8    N2    A    
C5    C7    A    
C6    C8    A    
C25   C26   A    
C12   O12   A    
O6    S2    D    
C2    C31   A    
C2    C4    A    
C7    O11   S    
C11   C16   A    
H9    O11   S    
H5    O5    S    
Cu1   Cu2   S    
C23   C28   A    
C3    C31   A    
C9    C11   S    
C32   H16   S    
Cu1   O16   S    
Cu1   O19   S    
C15   C24   A    
C20   C22   A    
Cu2   N2    S    
C14   C16   A    
C7    N1    A    
C6    N1    A    
Cu2   O14   S    
C18   H11   S    
H8    O10   S    
C15   C17   A    
C23   H14   S    
C16   S2    S    
C31   O10   S    
C10   C13   S    
C29   O2    S    
C25   C27   A    
C13   C17   A    
C1    C4    S    
O3    S1    D    
C1    O1    A    
C19   H1    S    
C30   C32   A    
C14   C22   A    
C6    H2    S    
C18   C20   A    
C3    C32   A    
C2    H17   S    
Cu2   O18   S    
H4    O2    S    
C8    O13   S    
C21   C24   A    
C17   S1    S    
H7    O9    S    
H10   O13   S    
Cu2   O17   S    
C4    C30   A    
C27   H15   S    
