data_mof_unit_60675.cif
_audit_creation_date              2012-12-10T16:48:46-0500
_audit_creation_method            fapswitch 2.2
_symmetry_space_group_name_H-M    P1
_symmetry_Int_Tables_number       1
_space_group_crystal_system       triclinic
_cell_length_a                    18.417624
_cell_length_b                    18.41871
_cell_length_c                    18.423465
_cell_angle_alpha                 119.763257
_cell_angle_beta                  119.618074
_cell_angle_gamma                 90.554756
_cell_volume                      4438.99075167

loop_
_atom_site_label
_atom_site_type_symbol
_atom_type_description
_atom_site_fract_x
_atom_site_fract_y
_atom_site_fract_z
_atom_type_partial_charge
C1    C     C_R   0.138429 0.361404 0.999597 0.853951
C2    C     C_2   0.809017 0.696738 0.004511 -0.291965
C3    C     C_2   0.725954 0.280016 0.444373 -0.127678
C4    C     C_R   0.861804 0.638796 0.000406 0.849574
C5    C     C_2   0.684048 0.192555 0.386972 -0.222509
C6    C     C_2   0.772625 0.333449 0.555643 -0.274391
C7    C     C_2   0.821169 0.305438 0.613407 0.274342
C8    C     C_2   0.337338 0.281218 0.057286 -0.162788
C9    C     C_2   0.304653 0.192310 0.001358 -0.289924
C10   C     C_2   0.281095 0.337364 0.059754 -0.163639
C11   C     C_2   0.192261 0.304487 0.995518 -0.286147
C12   C     C_3   0.779739 0.358738 0.079112 -0.379222
C13   C     C_2   0.217280 0.775342 0.936959 -0.166400
C14   C     C_2   0.304913 0.811931 0.007351 -0.284811
C15   C     C_2   0.161571 0.724160 0.941462 -0.165426
C16   C     C_R   0.138514 0.638137 0.276983 0.850824
C17   C     C_2   0.195452 0.687930 0.992884 -0.284223
C18   C     C_2   0.218974 0.776246 0.556302 -0.157821
C19   C     C_2   0.307801 0.809020 0.612276 -0.294955
C20   C     C_2   0.162702 0.722588 0.443929 -0.160458
C21   C     C_2   0.195362 0.690891 0.387697 -0.294637
C22   C     C_R   0.637202 0.138419 0.276882 0.838979
C23   C     C_3   0.800848 0.301209 0.000401 0.193246
C24   C     C_R   0.361656 0.861807 0.723010 0.851599
C25   C     C_R   0.638251 0.861180 0.999737 0.853078
C26   C     C_R   0.361487 0.138414 0.000260 0.851140
C27   C     C_R   0.359469 0.860413 0.000922 0.858228
C28   C     C_R   0.863161 0.361353 0.722994 0.782922
C29   C     C_R   0.641453 0.141467 0.000122 0.748645
C30   C     C_R   0.140495 0.639516 0.998981 0.865657
C31   C     C_R   0.858596 0.358662 0.000070 0.740548
C32   C     C_3   0.711817 0.241082 0.893268 -0.391500
C33   C     C_3   0.652108 0.181366 0.893294 -0.393352
C34   C     C_3   0.699209 0.199562 0.000446 0.191448
C35   C     C_3   0.847900 0.241098 0.029242 -0.393153
C36   C     C_3   0.788193 0.181389 0.029278 -0.391862
C37   C     C_3   0.720412 0.299410 0.079131 -0.381267
C38   C     C_2   0.724076 0.780078 0.942808 -0.163735
C39   C     C_2   0.690998 0.803219 0.998591 -0.288248
C40   C     C_2   0.777690 0.721323 0.940304 -0.162500
Cl1   Cl    Cl    0.849626 0.208485 0.566376 -0.604451
H1    H     H_    0.724523 0.198475 0.834994 0.185706
H2    H     H_    0.681986 0.159334 0.421131 0.195634
H3    H     H_    0.766627 0.398775 0.591227 0.151948
H4    H     H_    0.676623 0.282860 0.871124 0.155210
H5    H     H_    0.408448 0.315108 0.104607 0.174807
H6    H     H_    0.234629 0.156144 0.955493 0.152441
H7    H     H_    0.314876 0.408606 0.116168 0.176750
H8    H     H_    0.156163 0.234327 0.936419 0.156267
H9    H     H_    0.184993 0.783811 0.875224 0.180396
H10   H     H_    0.338348 0.809127 0.073072 0.149923
H11   H     H_    0.091288 0.715426 0.900407 0.179982
H12   H     H_    0.754782 0.314862 0.157174 0.178490
H13   H     H_    0.264065 0.690964 0.029398 0.149491
H14   H     H_    0.185220 0.789855 0.593738 0.177068
H15   H     H_    0.588165 0.194387 0.871155 0.156359
H16   H     H_    0.343864 0.799201 0.578243 0.150111
H17   H     H_    0.091602 0.708070 0.406733 0.177088
H18   H     H_    0.265372 0.701642 0.421535 0.150770
H19   H     H_    0.636414 0.110353 0.835034 0.182851
H20   H     H_    0.863511 0.198485 0.973874 0.183703
H21   H     H_    0.775415 0.110374 0.973940 0.181955
H22   H     H_    0.842387 0.402465 0.157150 0.178043
H23   H     H_    0.911885 0.282888 0.106189 0.155965
H24   H     H_    0.745403 0.402460 0.060247 0.178057
H25   H     H_    0.657803 0.314848 0.060263 0.177326
H26   H     H_    0.823425 0.194437 0.106244 0.158514
H27   H     H_    0.710769 0.803968 0.895636 0.175313
H28   H     H_    0.700555 0.778932 0.044275 0.152981
H29   H     H_    0.792506 0.698660 0.883905 0.175184
H30   H     H_    0.798002 0.719801 0.063623 0.152847
H31   H     H_    0.722000 0.314218 0.409248 0.171030
O1    O     O_3   1.000000 0.500000 0.000000 -0.489749
O2    O     O_R   0.324760 0.053850 0.939900 -0.643977
O3    O     O_R   0.443270 0.883090 0.060070 -0.646563
O4    O     O_R   0.053940 0.324750 0.939940 -0.632958
O5    O     O_R   0.616890 0.176890 0.060090 -0.649697
O6    O     O_R   0.323100 0.883090 0.939900 -0.647710
O7    O     O_R   0.616910 0.056740 0.939940 -0.647015
O8    O     O_R   0.615250 0.885990 0.939940 -0.644400
O9    O     O_R   0.446110 0.175200 0.060060 -0.644854
O10   O     O_R   0.614030 0.053850 0.229160 -0.628741
O11   O     O_R   0.324790 0.884790 0.770830 -0.641989
O12   O     O_R   0.053880 0.613970 0.229150 -0.642684
O13   O     O_R   0.884790 0.613970 0.060060 -0.645096
O14   O     O_R   0.175250 0.615170 0.229170 -0.645659
O15   O     O_R   0.886020 0.446110 0.770840 -0.665644
O16   O     O_R   0.176940 0.616860 0.060100 -0.646937
O17   O     O_R   0.883150 0.323060 0.939910 -0.645324
O18   O     O_R   0.056770 0.616860 0.939930 -0.644250
O19   O     O_R   0.883130 0.443210 0.060060 -0.651060
O20   O     O_R   0.884840 0.324750 0.770840 -0.595921
O21   O     O_R   0.175280 0.446110 0.060100 -0.644963
O22   O     O_R   0.885990 0.615170 0.939900 -0.644510
O23   O     O_3   0.500040 0.999960 0.000000 -0.488169
O24   O     O_R   0.615200 0.175200 0.229160 -0.649047
O25   O     O_R   0.446160 0.885990 0.770850 -0.646268
O26   O     O_R   0.614060 0.884790 0.060100 -0.637356
Zn1   Zn    Zn3+2 0.956210 0.542060 0.085830 0.957649
Zn2   Zn    Zn3+2 0.129620 0.543770 0.085850 0.971186
Zn3   Zn    Zn3+2 0.957930 0.543770 0.914160 0.965425
Zn4   Zn    Zn3+2 0.956240 0.370390 0.914160 0.996975
Zn5   Zn    Zn3+2 0.543830 0.957900 0.914170 0.961664
Zn6   Zn    Zn3+2 0.542120 0.956180 0.085840 0.985567
Zn7   Zn    Zn3+2 0.370430 0.956180 0.914150 0.965252
Zn8   Zn    Zn3+2 0.543800 0.129560 0.085840 0.957500

loop_
_geom_bond_atom_site_label_1
_geom_bond_atom_site_label_2
_ccdc_geom_bond_type
O1    Zn2   S    
C16   C21   S    
O17   Zn4   S    
C25   O8    A    
C32   H4    S    
C35   C36   S    
C1    C11   S    
C30   O18   A    
C27   O6    A    
C36   H26   S    
C19   H16   S    
C12   C23   S    
C40   H29   S    
O6    Zn7   S    
C11   H8    S    
C22   O10   A    
O5    Zn8   S    
C24   O11   A    
C21   H18   S    
C38   C39   D    
C36   H21   S    
C34   C37   S    
C16   O12   A    
C15   C17   D    
C18   C19   D    
C12   C37   S    
O23   Zn7   S    
O15   Zn3   S    
C5    C22   S    
O22   Zn3   S    
C8    C9    D    
C31   O17   A    
C35   H23   S    
C14   C27   S    
O14   Zn2   S    
C18   C20   S    
O20   Zn4   S    
C37   H12   S    
C3    C6    S    
C33   H15   S    
O1    Zn3   S    
C5    H2    S    
C6    H3    S    
C13   C14   D    
C16   O14   A    
C17   C30   S    
C1    O4    A    
O7    Zn5   S    
C27   O3    A    
O23   Zn5   S    
C9    C26   S    
O4    Zn4   S    
O8    Zn5   S    
C24   O25   A    
C35   H20   S    
C12   H22   S    
C4    O13   A    
C29   C34   S    
C7    C28   S    
O11   Zn7   S    
C23   C31   S    
C2    C4    S    
O18   Zn3   S    
O13   Zn1   S    
O23   Zn8   S    
C14   H10   S    
C29   O7    A    
C37   H25   S    
C28   O15   A    
C33   C34   S    
C39   H28   S    
C28   O20   A    
O16   Zn2   S    
C15   H11   S    
O21   Zn2   S    
O25   Zn5   S    
C18   H14   S    
C4    O22   A    
C8    C10   S    
O1    Zn4   S    
C38   H27   S    
C9    H6    S    
C26   O9    A    
C31   O19   A    
C13   C15   S    
C10   H7    S    
O3    Zn6   S    
C30   O16   A    
C2    H30   S    
O23   Zn6   S    
O1    Zn1   S    
O24   Zn8   S    
O9    Zn8   S    
C32   H1    S    
O12   Zn1   S    
C22   O24   A    
C3    C5    D    
C6    C7    D    
C33   H19   S    
C12   H24   S    
C23   C35   S    
C23   C32   S    
C19   C24   S    
C32   C33   S    
O2    Zn7   S    
C38   C40   S    
O26   Zn6   S    
C26   O2    A    
C3    H31   S    
C34   C36   S    
C7    Cl1   S    
C8    H5    S    
C10   C11   D    
C13   H9    S    
C2    C40   D    
C25   O26   A    
C29   O5    A    
C20   C21   D    
C1    O21   A    
O10   Zn6   S    
O19   Zn1   S    
C20   H17   S    
C17   H13   S    
C25   C39   S    
