data_mof_unit_57463.cif
_audit_creation_date              2012-12-10T17:02:29-0500
_audit_creation_method            fapswitch 2.2
_symmetry_space_group_name_H-M    P1
_symmetry_Int_Tables_number       1
_space_group_crystal_system       triclinic
_cell_length_a                    10.885585
_cell_length_b                    11.024992
_cell_length_c                    9.88931
_cell_angle_alpha                 108.508603
_cell_angle_beta                  100.152437
_cell_angle_gamma                 93.791248
_cell_volume                      1098.32443839

loop_
_atom_site_label
_atom_site_type_symbol
_atom_type_description
_atom_site_fract_x
_atom_site_fract_y
_atom_site_fract_z
_atom_type_partial_charge
C1    C     C_R   0.496099 0.255654 0.442951 0.831755
C2    C     C_R   0.500863 0.743980 0.556186 0.824035
C3    C     C_2   0.496697 0.118225 0.412366 0.459048
C4    C     C_2   0.493045 0.880338 0.582574 0.437270
C5    C     C_2   0.457414 0.061158 0.500131 0.507567
C6    C     C_2   0.461744 0.924526 0.471346 0.500299
C7    C     C_2   0.517328 0.511653 0.084478 0.526292
C8    C     C_2   0.530921 0.470832 0.927083 0.483293
C9    C     C_R   0.262113 0.501462 0.497658 0.851293
C10   C     C_R   0.737770 0.499162 0.502556 0.877082
C11   C     C_R   0.115340 0.285327 0.531310 0.250014
C12   C     C_R   0.884980 0.717766 0.474408 0.259651
C13   C     C_R   0.067884 0.209039 0.604599 0.321653
C14   C     C_R   0.932066 0.795013 0.402180 0.322379
C15   C     C_R   0.954524 0.230344 0.648600 0.294683
C16   C     C_R   0.044529 0.773100 0.355893 0.291744
C17   C     C_R   0.885691 0.321250 0.611302 0.486495
C18   C     C_R   0.112852 0.680128 0.389651 0.477059
C19   C     C_R   0.938969 0.409235 0.551050 -0.145945
C20   C     C_R   0.060484 0.592433 0.450791 -0.145753
C21   C     C_R   0.062076 0.398334 0.525545 -0.135223
C22   C     C_R   0.937904 0.603977 0.477908 -0.135084
C23   C     C_R   0.874050 0.505838 0.514129 0.030843
C24   C     C_R   0.125593 0.495387 0.486989 0.038854
Cu1   Cu    Cu3+1 0.521920 0.521810 0.644910 1.247056
Cu2   Cu    Cu3+1 0.478080 0.478190 0.355090 1.253148
N1    N     N_2   0.445130 0.445420 0.137360 0.078553
N2    N     N_2   0.554870 0.554580 0.862640 0.065346
O1    O     O_R   0.511700 0.332340 0.577400 -0.527305
O2    O     O_R   0.488300 0.667660 0.422600 -0.512701
O3    O     O_R   0.474680 0.295500 0.332650 -0.494993
O4    O     O_R   0.525320 0.704500 0.667350 -0.466519
O5    O     O_R   0.338170 0.518410 0.622370 -0.585049
O6    O     O_R   0.661830 0.481590 0.377630 -0.591373
O7    O     O_R   0.301150 0.481570 0.377630 -0.484682
O8    O     O_R   0.698850 0.518430 0.622370 -0.503770
Cl1   Cl    Cl    0.107004 0.868019 0.263995 -0.273583
Cl2   Cl    Cl    0.890618 0.135894 0.740242 -0.265800
Cl3   Cl    Cl    0.208225 0.214012 0.407039 -0.459758
Cl4   Cl    Cl    0.787852 0.786487 0.594862 -0.451785
Cl5   Cl    Cl    0.145309 0.080926 0.633037 -0.317527
Cl6   Cl    Cl    0.852367 0.922419 0.374485 -0.323336
F1    F     F_    0.768664 0.321550 0.639063 -0.614927
F2    F     F_    0.227699 0.676206 0.355892 -0.603181
F3    F     F_    0.435505 0.844950 0.329772 -0.515331
F4    F     F_    0.409234 0.127964 0.615059 -0.546588
F5    F     F_    0.519901 0.962432 0.722971 -0.500891
F6    F     F_    0.536925 0.049117 0.291289 -0.517355
Cl7   Cl    Cl    0.565690 0.312990 0.857704 -0.293531
Cl8   Cl    Cl    0.623273 0.646238 0.202651 -0.409074
F7    F     F_    0.535478 0.674891 0.933139 -0.437916
F8    F     F_    0.375744 0.337009 0.043519 -0.456429

loop_
_geom_bond_atom_site_label_1
_geom_bond_atom_site_label_2
_ccdc_geom_bond_type
C12   Cl4   S    
C19   C23   A    
C17   F1    S    
C15   Cl2   S    
C15   C17   A    
C6    F3    S    
C18   F2    S    
C10   C23   S    
C5    F4    S    
Cu2   O7    S    
C2    C4    S    
C14   Cl6   S    
C16   Cl1   S    
C2    O2    A    
C3    C5    D    
Cu1   O4    S    
C13   Cl5   S    
Cu2   O3    S    
C10   O6    A    
C16   C18   A    
Cu1   N2    S    
C11   Cl3   S    
C11   C13   A    
Cu2   N1    S    
C9    O5    A    
C4    C6    D    
C17   C19   A    
C12   C14   A    
Cu2   O2    S    
C18   C20   A    
C13   C15   A    
C1    O3    A    
Cu1   O1    S    
C5    C6    S    
C8    N2    D    
N2    F7    S    
C14   C16   A    
C1    O1    A    
Cu1   O8    S    
C11   C21   A    
C12   C22   A    
C3    F6    S    
C7    C8    S    
C7    N1    D    
N1    F8    S    
C2    O4    A    
C21   C24   A    
Cu1   O5    S    
C9    O7    A    
C22   C23   A    
C10   O8    A    
C19   C21   A    
Cu1   Cu2   S    
C8    Cl7   S    
Cu2   O6    S    
C9    C24   S    
C20   C24   A    
C7    Cl8   S    
C20   C22   A    
C1    C3    S    
C4    F5    S    
