data_mof_unit_68555.cif
_audit_creation_date              2012-12-11T17:08:31-0500
_audit_creation_method            fapswitch 2.2
_symmetry_space_group_name_H-M    P1
_symmetry_Int_Tables_number       1
_space_group_crystal_system       triclinic
_cell_length_a                    7.125275
_cell_length_b                    14.739534
_cell_length_c                    16.011066
_cell_angle_alpha                 90.313191
_cell_angle_beta                  89.196143
_cell_angle_gamma                 89.930114
_cell_volume                      1681.34189117

loop_
_atom_site_label
_atom_site_type_symbol
_atom_type_description
_atom_site_fract_x
_atom_site_fract_y
_atom_site_fract_z
_atom_type_partial_charge
O1    O     O_R   0.505700 0.583890 0.413310 -0.548786
O2    O     O_R   0.175960 0.594920 0.586080 -0.549591
O3    O     O_R   0.005660 0.416110 0.586690 -0.538331
C1    C     C_R   0.342792 0.611799 0.617536 0.749351
O4    O     O_R   0.175980 0.594920 0.413930 -0.541828
O5    O     O_R   0.005680 0.416110 0.413310 -0.537153
C2    C     C_R   0.345756 0.617030 0.385867 0.740128
O6    O     O_R   0.505680 0.583890 0.586690 -0.519054
O7    O     O_3   0.339200 0.441330 0.500000 -0.352036
V1    V     V_3+5 0.064350 0.510880 0.500000 1.492300
O8    O     O_R   0.675960 0.405080 0.413920 -0.534654
C3    C     C_R   0.845222 0.383363 0.385638 0.682437
O9    O     O_R   0.675940 0.405080 0.586070 -0.505098
C4    C     C_R   0.843380 0.386562 0.616229 0.727894
V2    V     V_3+5 0.564340 0.489120 0.500000 1.566236
O10   O     O_3   0.839360 0.558670 0.500000 -0.375151
C5    C     C_R   0.019922 0.275940 0.702336 -0.221523
C6    C     C_R   0.853854 0.317674 0.682775 -0.230182
C7    C     C_R   0.703392 0.292080 0.735270 0.438202
C8    C     C_R   0.716505 0.206862 0.778251 0.404249
C9    C     C_R   0.886433 0.185498 0.816279 -0.220053
C10   C     C_R   0.039131 0.217450 0.768624 -0.197559
C11   C     C_3   0.244663 0.212747 0.758276 0.299278
C12   C     C_3   0.223145 0.289807 0.687822 0.843662
C13   C     C_R   0.788626 0.169161 0.254194 -0.063375
C14   C     C_R   0.880456 0.188450 0.179190 -0.177571
C15   C     C_R   0.968025 0.274513 0.172054 0.440282
C16   C     C_R   0.955162 0.338561 0.239242 -0.136653
C17   C     C_R   0.857957 0.317187 0.314861 -0.176302
C18   C     C_R   0.781867 0.229539 0.321356 -0.008460
C19   C     C_3   0.591460 0.194741 0.347917 -0.140175
C20   C     C_3   0.598453 0.130962 0.270807 -0.165417
C21   C     C_R   0.506214 0.676017 0.742971 -0.067227
C22   C     C_R   0.346919 0.669144 0.693804 -0.150351
C23   C     C_R   0.194957 0.724357 0.716597 -0.300616
H1    H     H_    0.073568 0.725699 0.677643 0.195847
C24   C     C_R   0.209161 0.789350 0.781182 0.528887
C25   C     C_R   0.370257 0.797534 0.830796 -0.229840
C26   C     C_R   0.516129 0.736906 0.811123 -0.145622
C27   C     C_3   0.714312 0.759889 0.790544 0.358836
C28   C     C_3   0.707128 0.691013 0.717622 0.219939
H2    H     H_    0.787348 0.627650 0.727284 0.074592
C29   C     C_R   0.507370 0.688625 0.261040 -0.021883
C30   C     C_R   0.360175 0.688651 0.320187 -0.077100
C31   C     C_R   0.231708 0.761591 0.316809 -0.289692
H3    H     H_    0.119588 0.765126 0.362990 0.132929
C32   C     C_R   0.243709 0.828883 0.252677 0.459272
C33   C     C_R   0.379587 0.819640 0.187211 -0.163573
C34   C     C_R   0.516535 0.752212 0.196615 -0.089598
C35   C     C_3   0.584369 0.681205 0.135242 0.237534
C36   C     C_3   0.580786 0.612886 0.206868 0.262641
H4    H     H_    0.477115 0.666904 0.087052 0.103630
H5    H     H_    0.719435 0.588156 0.228664 0.082225
O11   O     O_R   0.229000 0.916070 0.913330 -0.507614
O12   O     O_R   0.558770 0.905070 0.086080 -0.543067
O13   O     O_R   0.729000 0.083900 0.086690 -0.555401
C37   C     C_R   0.389380 0.884056 0.115124 0.701697
O14   O     O_R   0.558720 0.905070 0.913930 -0.525076
O15   O     O_R   0.728960 0.083900 0.913310 -0.517046
C38   C     C_R   0.388846 0.876533 0.891479 0.725665
O16   O     O_R   0.229050 0.916070 0.086710 -0.534571
O17   O     O_3   0.395460 0.058650 0.000020 -0.362080
V3    V     V_3+5 0.670340 0.989120 0.000000 1.578653
O18   O     O_R   0.058670 0.094960 0.913900 -0.535739
C39   C     C_R   0.892287 0.115933 0.884538 0.746255
O19   O     O_R   0.058720 0.094960 0.086050 -0.508637
C40   C     C_R   0.889367 0.118636 0.112227 0.730351
V4    V     V_3+5 0.170330 0.010930 0.999970 1.603454
O20   O     O_3   0.895340 0.941350 0.999980 -0.369835
O21   O     O_3   0.593734 0.359779 0.770018 -0.533710
C41   C     C_3   0.693969 0.409405 0.830399 -0.254075
H6    H     H_    0.591584 0.444802 0.872006 0.165071
H7    H     H_    0.780386 0.462220 0.799542 0.110591
H8    H     H_    0.781656 0.365649 0.870687 0.104275
C42   C     C_1   0.598199 0.146375 0.427466 0.285067
N1    N     N_1   0.603631 0.105144 0.488357 -0.446864
C43   C     C_1   0.466233 0.154175 0.204396 0.292812
N2    N     N_1   0.365499 0.174462 0.151854 -0.265960
C44   C     C_1   0.608436 0.032401 0.285866 0.304335
N3    N     N_1   0.617945 0.955251 0.298072 -0.374940
O22   O     O_3   0.074526 0.854681 0.787239 -0.537281
C45   C     C_3   0.131391 0.928385 0.738613 -0.196483
H9    H     H_    0.281271 0.945119 0.748736 0.146843
H10   H     H_    0.051088 0.988430 0.759928 0.200023
H11   H     H_    0.102568 0.914998 0.671570 0.111353
O23   O     O_3   0.837606 0.743932 0.858510 -0.521970
C46   C     C_3   0.853076 0.652270 0.883272 -0.210225
H12   H     H_    0.954860 0.615560 0.842265 0.099461
H13   H     H_    0.715963 0.616595 0.886200 0.118052
H14   H     H_    0.911747 0.650813 0.946978 0.202618
C47   C     C_1   0.718090 0.855220 0.764826 0.441667
N4    N     N_1   0.713254 0.930486 0.745993 -0.402687
O24   O     O_3   0.750001 0.724906 0.635576 -0.553966
C48   C     C_3   0.622935 0.787008 0.599235 -0.196616
H15   H     H_    0.704338 0.845611 0.575066 0.148997
H16   H     H_    0.512554 0.814562 0.641554 0.098132
H17   H     H_    0.555140 0.754537 0.544826 0.142819
O25   O     O_3   0.632672 0.132387 0.741974 -0.526570
C49   C     C_3   0.733638 0.105585 0.668793 -0.162298
H18   H     H_    0.662667 0.047736 0.638654 0.181676
H19   H     H_    0.874199 0.080455 0.683933 0.132478
H20   H     H_    0.742539 0.160811 0.622321 0.132049
O26   O     O_3   0.115300 0.899711 0.248790 -0.559486
C50   C     C_3   0.099835 0.945630 0.326236 -0.232337
H21   H     H_    0.044447 0.014781 0.314878 0.165280
H22   H     H_    0.237521 0.953782 0.357521 0.139265
H23   H     H_    0.997955 0.910632 0.368093 0.154092
O27   O     O_3   0.765042 0.692368 0.097383 -0.571324
C51   C     C_3   0.892193 0.742767 0.145953 -0.098753
H24   H     H_    0.032787 0.738254 0.115627 0.140794
H25   H     H_    0.904976 0.715407 0.210092 0.119759
H26   H     H_    0.851788 0.815508 0.148070 0.186370
O28   O     O_3   0.444107 0.544909 0.195781 -0.541620
C52   C     C_3   0.524788 0.470813 0.152403 -0.177506
H27   H     H_    0.626561 0.434980 0.192410 0.116980
H28   H     H_    0.592626 0.492213 0.092651 0.115441
H29   H     H_    0.412249 0.421870 0.136863 0.202905
O29   O     O_3   0.291984 0.120411 0.739116 -0.537101
C53   C     C_3   0.290421 0.094911 0.653782 -0.140231
H30   H     H_    0.399014 0.129418 0.617469 0.220489
H31   H     H_    0.148959 0.098218 0.627396 0.098558
H32   H     H_    0.339776 0.024826 0.644873 0.107723
C54   C     C_1   0.323849 0.240137 0.839079 0.399725
N5    N     N_1   0.383603 0.260933 0.903281 -0.356666
O30   O     O_3   0.300551 0.268661 0.606999 -0.554078
C55   C     C_3   0.175095 0.246562 0.541393 -0.220057
H33   H     H_    0.155561 0.304509 0.500104 0.213859
H34   H     H_    0.036907 0.219023 0.560396 0.081084
H35   H     H_    0.241439 0.193679 0.501394 0.129713
O31   O     O_3   0.287880 0.378584 0.709985 -0.515940
C56   C     C_3   0.182780 0.429190 0.769973 -0.212211
H36   H     H_    0.277827 0.479069 0.799518 0.166202
H37   H     H_    0.121561 0.387764 0.820983 0.088789
H38   H     H_    0.072940 0.469031 0.738537 0.121312
O32   O     O_3   0.067101 0.296498 0.099974 -0.534553
C57   C     C_3   0.940980 0.330220 0.040550 -0.249287
H39   H     H_    0.873787 0.394233 0.062661 0.122851
H40   H     H_    0.832047 0.279360 0.024181 0.112522
H41   H     H_    0.021220 0.345889 0.982555 0.162603
C58   C     C_1   0.021148 0.430000 0.226053 0.360596
N6    N     N_1   0.069835 0.503912 0.215598 -0.318257
C59   C     C_1   0.443188 0.264564 0.347361 0.297779
N7    N     N_1   0.327577 0.319548 0.345782 -0.332862

loop_
_geom_bond_atom_site_label_1
_geom_bond_atom_site_label_2
_ccdc_geom_bond_type
O19   V4    S    
C46   H12   S    
O24   C48   S    
C3    C17   S    
C28   H2    S    
C4    C6    S    
C7    C8    A    
C16   C58   S    
C1    O6    A    
C56   H38   S    
C11   O29   S    
C50   H22   S    
O22   C45   S    
C54   N5    T    
O11   C38   A    
C31   H3    S    
C14   C15   A    
O17   V3    S    
O30   C55   S    
C14   C40   S    
O18   V4    S    
C16   C17   A    
C23   C24   A    
C24   C25   A    
C22   C23   A    
C51   H25   S    
O5    C3    A    
C25   C26   A    
O11   V4    S    
O14   C38   A    
V2    O10   S    
C13   C18   A    
O27   C51   S    
C5    C6    A    
C6    C7    A    
C31   C32   A    
C27   O23   S    
O29   C53   S    
C20   C43   S    
O8    V2    S    
C28   O24   S    
V3    O20   S    
V4    O20   S    
O12   V3    S    
C35   H4    S    
C11   C12   S    
O21   C41   S    
O1    V2    S    
O7    V1    S    
C13   C20   S    
O32   C57   S    
O19   C40   A    
O9    C4    A    
C35   O27   S    
C24   O22   S    
C57   H41   S    
C10   C11   S    
C50   H21   S    
C35   C36   S    
C53   H31   S    
C1    C22   S    
C5    C12   S    
C32   O26   S    
C33   C37   S    
C58   N6    T    
C57   H40   S    
C51   H26   S    
C47   N4    T    
C41   H7    S    
O23   C46   S    
C29   C34   A    
C11   C54   S    
C55   H35   S    
C13   C14   A    
C43   N2    T    
C45   H9    S    
C36   H5    S    
C23   H1    S    
O2    C1    A    
C42   N1    T    
C17   C18   A    
C19   C42   S    
C32   C33   A    
O8    C3    A    
C21   C22   A    
O13   V3    S    
C21   C26   A    
C2    C30   S    
C48   H16   S    
O3    C4    A    
C25   C38   S    
C33   C34   A    
C49   H19   S    
O25   C49   S    
O6    V2    S    
C45   H10   S    
O9    V2    S    
C29   C30   A    
C12   O30   S    
C56   H36   S    
O13   C40   A    
C26   C27   S    
C30   C31   A    
O4    C2    A    
O28   C52   S    
C53   H32   S    
O14   V3    S    
C27   C28   S    
C55   H34   S    
C9    C39   S    
O1    C2    A    
C36   O28   S    
C19   C20   S    
C57   H39   S    
C56   H37   S    
O5    V1    S    
C41   H8    S    
C52   H28   S    
C53   H30   S    
C37   O16   A    
C45   H11   S    
O15   V3    S    
C5    C10   A    
C48   H17   S    
C49   H18   S    
O17   V4    S    
C15   O32   S    
O18   C39   A    
C19   C59   S    
O12   C37   A    
O31   C56   S    
O7    V2    S    
C21   C28   S    
O4    V1    S    
O3    V1    S    
V1    O10   S    
C51   H24   S    
O15   C39   A    
C20   C44   S    
O16   V4    S    
C29   C36   S    
C18   C19   S    
C55   H33   S    
C52   H27   S    
C27   C47   S    
C48   H15   S    
C52   H29   S    
C44   N3    T    
C12   O31   S    
C41   H6    S    
C49   H20   S    
C8    O25   S    
C8    C9    A    
C34   C35   S    
C46   H14   S    
O26   C50   S    
C46   H13   S    
C59   N7    T    
C7    O21   S    
C9    C10   A    
C50   H23   S    
C15   C16   A    
O2    V1    S    
