data_mof_unit_11798.cif
_audit_creation_date              2012-12-10T17:55:30-0500
_audit_creation_method            fapswitch 2.2
_symmetry_space_group_name_H-M    P1
_symmetry_Int_Tables_number       1
_space_group_crystal_system       triclinic
_cell_length_a                    10.789274
_cell_length_b                    9.608457
_cell_length_c                    10.900346
_cell_angle_alpha                 92.77791
_cell_angle_beta                  91.672892
_cell_angle_gamma                 90.54455
_cell_volume                      1128.14364131

loop_
_atom_site_label
_atom_site_type_symbol
_atom_type_description
_atom_site_fract_x
_atom_site_fract_y
_atom_site_fract_z
_atom_type_partial_charge
C1    C     C_R   0.262472 0.499290 0.496663 0.869908
C2    C     C_R   0.737426 0.500142 0.498206 0.852420
C3    C     C_R   0.505300 0.496750 0.265786 0.728258
C4    C     C_R   0.492881 0.504083 0.734960 0.687643
C5    C     C_2   0.446896 0.404550 0.930024 -0.204764
C6    C     C_2   0.436353 0.417979 0.063732 -0.180726
C7    C     C_2   0.469908 0.518109 0.867505 0.394951
C8    C     C_2   0.523734 0.486671 0.133671 0.421129
C9    C     C_R   0.060805 0.409162 0.408229 0.362833
C10   C     C_R   0.931338 0.408130 0.409643 0.319849
C11   C     C_R   0.871159 0.499760 0.492782 -0.182353
C12   C     C_R   0.128392 0.498608 0.492196 -0.164749
C13   C     C_R   0.939380 0.591510 0.572485 -0.165118
C14   C     C_R   0.067467 0.590764 0.572403 -0.195165
C15   C     C_R   0.430278 0.068656 0.415216 0.449657
C16   C     C_R   0.576287 0.080667 0.580072 0.468557
C17   C     C_R   0.421630 0.921272 0.423077 0.303968
C18   C     C_R   0.580385 0.931467 0.575454 0.291603
Cu1   Cu    Cu3+1 0.500000 0.640660 0.500000 1.049133
Cu2   Cu    Cu3+1 0.500000 0.359340 0.500000 1.073807
H1    H     H_    0.437564 0.301839 0.884908 0.110670
H2    H     H_    0.354855 0.374279 0.104266 0.157206
H3    H     H_    0.893665 0.661062 0.637259 0.221168
H4    H     H_    0.119284 0.660562 0.636490 0.183040
N1    N     N_R   0.500000 0.852070 0.500000 -0.266366
N2    N     N_R   0.500000 0.147940 0.500000 -0.279706
O1    O     O_R   0.319640 0.618740 0.499990 -0.532436
O2    O     O_R   0.680360 0.618740 0.500010 -0.539162
O3    O     O_R   0.319620 0.381170 0.499990 -0.530814
O4    O     O_R   0.680380 0.381170 0.500010 -0.496274
O5    O     O_R   0.500000 0.618750 0.321940 -0.552776
O6    O     O_R   0.500000 0.618750 0.678060 -0.546614
O7    O     O_R   0.499970 0.381180 0.321940 -0.558349
O8    O     O_R   0.500030 0.381180 0.678060 -0.583527
O9    O     O_3   0.447023 0.647829 0.925797 -0.563134
C19   C     C_3   0.542237 0.746227 0.909222 -0.138999
H5    H     H_    0.512153 0.817995 0.837766 0.186839
H6    H     H_    0.633236 0.698668 0.887081 0.186788
H7    H     H_    0.555967 0.810638 0.995834 0.153748
O10   O     O_3   0.633876 0.527131 0.079687 -0.588797
C20   C     C_3   0.709632 0.616205 0.157110 -0.220286
H8    H     H_    0.793032 0.644486 0.106248 0.200513
H9    H     H_    0.742185 0.563381 0.240156 0.171116
H10   H     H_    0.661177 0.714657 0.182113 0.162995
Cl1   Cl    Cl    0.136468 0.306297 0.295175 -0.479295
Cl2   Cl    Cl    0.846015 0.296090 0.303664 -0.543020
O11   O     O_3   0.367670 0.132603 0.321606 -0.469733
C21   C     C_3   0.428161 0.101739 0.209962 -0.169676
H11   H     H_    0.370842 0.140560 0.133286 0.185144
H12   H     H_    0.439546 0.988483 0.188944 0.156142
H13   H     H_    0.521069 0.152604 0.210071 0.157820
O12   O     O_3   0.660580 0.159560 0.653165 -0.504564
C22   C     C_3   0.639708 0.144139 0.779404 -0.178655
H14   H     H_    0.545095 0.104774 0.799146 0.093169
H15   H     H_    0.653078 0.247156 0.828540 0.180650
H16   H     H_    0.710550 0.075196 0.819105 0.208887
Cl3   Cl    Cl    0.307055 0.830475 0.331343 -0.506213
Cl4   Cl    Cl    0.695964 0.850568 0.662506 -0.648340

loop_
_geom_bond_atom_site_label_1
_geom_bond_atom_site_label_2
_ccdc_geom_bond_type
C10   Cl2   S    
C6    C8    D    
C9    Cl1   S    
Cu1   O1    S    
C20   H8    S    
O9    C19   S    
C15   O11   S    
C2    O4    A    
C17   N1    A    
C19   H6    S    
Cu1   O5    S    
C16   C18   A    
Cu2   O4    S    
C13   C14   A    
C3    O5    A    
Cu1   O2    S    
C20   H9    S    
C4    O6    A    
C18   N1    A    
Cu2   N2    S    
C4    C7    S    
C2    C11   S    
C1    O3    A    
C21   H11   S    
C20   H10   S    
C12   C14   A    
C21   H12   S    
Cu2   O3    S    
C22   H15   S    
C16   N2    A    
C5    C6    S    
Cu1   N1    S    
C9    C12   A    
C4    O8    A    
C21   H13   S    
C10   C11   A    
Cu2   O7    S    
Cu2   O8    S    
C6    H2    S    
O11   C21   S    
C16   O12   S    
C11   C13   A    
C5    H1    S    
O12   C22   S    
C13   H3    S    
C5    C7    D    
C3    C8    S    
C9    C10   A    
C22   H16   S    
C14   H4    S    
C1    O1    A    
O10   C20   S    
C3    O7    A    
C19   H5    S    
C15   N2    A    
C2    O2    A    
C8    O10   S    
C15   C17   A    
C7    O9    S    
Cu1   O6    S    
C18   Cl4   S    
C19   H7    S    
C1    C12   S    
Cu1   Cu2   S    
C22   H14   S    
C17   Cl3   S    
