data_mof_unit_61480.cif
_audit_creation_date              2013-03-05T16:52:08-0500
_audit_creation_method            fapswitch 2.2
_symmetry_space_group_name_H-M    P1
_symmetry_Int_Tables_number       1
_space_group_crystal_system       triclinic
_cell_length_a                    15.870967
_cell_length_b                    15.049568
_cell_length_c                    23.523589
_cell_angle_alpha                 89.985386
_cell_angle_beta                  90.010363
_cell_angle_gamma                 90.01005
_cell_volume                      5618.6370315

loop_
_atom_site_label
_atom_site_type_symbol
_atom_site_description
_atom_site_fract_x
_atom_site_fract_y
_atom_site_fract_z
_atom_type_partial_charge
O1    O     O_R   0.378020 0.573650 0.500020 -0.608226
O2    O     O_R   0.621980 0.426350 0.499980 -0.604176
O3    O     O_R   0.621980 0.573650 0.499980 -0.601227
O4    O     O_R   0.378020 0.426350 0.500020 -0.597537
C1    C     C_R   0.338931 0.499990 0.500013 0.928974
C2    C     C_R   0.661061 0.500007 0.499977 0.930430
O5    O     O_R   0.499980 0.573680 0.416160 -0.585354
O6    O     O_R   0.500020 0.426320 0.583840 -0.585659
O7    O     O_R   0.500020 0.573680 0.583840 -0.586069
O8    O     O_R   0.499980 0.426320 0.416160 -0.585960
C3    C     C_R   0.500709 0.499956 0.388998 0.995357
C4    C     C_R   0.499415 0.499933 0.611013 0.993137
Zn1   Zn    Zn3+2 0.500000 0.598370 0.500000 1.084779
Zn2   Zn    Zn3+2 0.500000 0.401630 0.500000 1.088586
C5    C     C_R   0.572846 0.483176 0.880177 0.661848
C6    C     C_R   0.429021 0.482368 0.119876 0.661235
N1    N     N_R   0.497372 0.491895 0.852923 -0.321330
N2    N     N_R   0.504415 0.491765 0.147139 -0.321340
C7    C     C_R   0.422818 0.496494 0.881847 0.663534
C8    C     C_R   0.578945 0.496997 0.118227 0.664231
C9    C     C_R   0.421492 0.486022 0.941211 -0.138441
C10   C     C_R   0.580359 0.486615 0.058857 -0.138709
C11   C     C_R   0.499748 0.483872 0.970147 -0.027750
C12   C     C_R   0.502124 0.483826 0.029916 -0.027777
C13   C     C_R   0.575811 0.482832 0.939387 -0.068493
C14   C     C_R   0.426070 0.482057 0.060671 -0.068284
C15   C     C_R   0.345519 0.480245 0.972734 0.314238
C16   C     C_R   0.656373 0.481571 0.027328 0.314342
C17   C     C_R   0.348841 0.479069 0.031980 -0.148784
C18   C     C_R   0.653060 0.480478 0.968078 -0.148796
O9    O     O_2   0.644697 0.475678 0.849825 -0.493694
O10   O     O_2   0.357221 0.474202 0.150219 -0.494186
O11   O     O_2   0.351141 0.513279 0.852968 -0.448747
O12   O     O_2   0.650490 0.514348 0.147119 -0.448014
H1    H     H_    0.290314 0.474820 0.055547 0.231070
H2    H     H_    0.711616 0.476788 0.944509 0.231061
C19   C     C_R   0.541118 0.424559 0.238516 0.234874
C20   C     C_R   0.460908 0.424142 0.761696 0.235306
C21   C     C_R   0.542452 0.427718 0.297941 0.173376
C22   C     C_R   0.459069 0.427267 0.702277 0.171501
C23   C     C_R   0.503380 0.499376 0.326646 -0.371194
C24   C     C_R   0.497295 0.499297 0.673390 -0.371880
C25   C     C_R   0.466782 0.569877 0.295444 0.170478
C26   C     C_R   0.533739 0.570053 0.704444 0.170487
C27   C     C_R   0.469939 0.568875 0.235919 0.245344
C28   C     C_R   0.531045 0.569053 0.763980 0.245158
C29   C     C_R   0.505425 0.495325 0.207831 -0.019307
C30   C     C_R   0.496243 0.495258 0.792226 -0.019235
C31   C     C_R   0.955709 0.547191 0.542198 0.106563
C32   C     C_R   0.044239 0.452737 0.457689 0.112501
C33   C     C_R   0.043627 0.547384 0.542444 0.015314
C34   C     C_R   0.956316 0.452536 0.457447 0.007818
C35   C     C_R   0.912891 0.499875 0.499803 0.046656
C36   C     C_R   0.087065 0.500055 0.500085 0.052728
C37   C     C_1   0.823897 0.499977 0.499877 0.009265
C38   C     C_1   0.176073 0.499968 0.500024 0.015282
C39   C     C_1   0.250759 0.499963 0.500010 -0.100801
C40   C     C_1   0.749219 0.500015 0.499929 -0.100617
H3    H     H_    0.498118 0.082036 0.408475 0.183040
H4    H     H_    0.501942 0.917967 0.591528 0.183406
H5    H     H_    0.501888 0.081965 0.591528 0.183535
H6    H     H_    0.498062 0.918039 0.408475 0.183496
C41   C     C_R   0.498922 0.953109 0.448677 -0.113211
C42   C     C_R   0.501065 0.046894 0.551326 -0.112397
C43   C     C_R   0.501083 0.953069 0.551326 -0.114530
C44   C     C_R   0.498941 0.046934 0.448677 -0.113730
C45   C     C_R   0.500002 0.905048 0.500001 0.029817
C46   C     C_R   0.500003 0.094954 0.500001 0.029492
C47   C     C_1   0.500000 0.807212 0.500001 0.151615
C48   C     C_1   0.500002 0.192789 0.500001 0.154904
N3    N     N_1   0.500000 0.270550 0.500000 -0.061100
N4    N     N_1   0.500000 0.729450 0.500000 -0.062550
N5    N     N_R   0.264932 0.469879 0.945862 0.253228
O13   O     O_R   0.251975 0.402766 0.912090 -0.244383
O14   O     O_R   0.200586 0.515223 0.964096 -0.286149
N6    N     N_R   0.737036 0.471878 0.054197 0.253315
O15   O     O_R   0.750503 0.404836 0.087954 -0.244970
O16   O     O_R   0.801036 0.517810 0.035974 -0.286002
N7    N     N_R   0.577246 0.350075 0.209009 0.258389
O17   O     O_R   0.534872 0.309526 0.169390 -0.326447
O18   O     O_R   0.653461 0.323891 0.220634 -0.235700
N8    N     N_R   0.425602 0.349341 0.791369 0.258115
O19   O     O_R   0.468562 0.309279 0.830910 -0.326383
O20   O     O_R   0.349532 0.322407 0.779999 -0.233372
N9    N     N_R   0.583962 0.358087 0.328888 0.259972
O21   O     O_R   0.649114 0.376116 0.360443 -0.368500
O22   O     O_R   0.559224 0.276088 0.323486 -0.314860
N10   N     N_R   0.417928 0.357194 0.671530 0.259987
O23   O     O_R   0.352275 0.374509 0.640290 -0.355532
O24   O     O_R   0.443494 0.275469 0.676844 -0.314035
N11   N     N_R   0.425761 0.642279 0.323900 0.259458
O25   O     O_R   0.358371 0.627957 0.354045 -0.346554
O26   O     O_R   0.452767 0.723206 0.317029 -0.311906
N12   N     N_R   0.574157 0.642713 0.675828 0.259150
O27   O     O_R   0.641588 0.628869 0.645640 -0.346662
O28   O     O_R   0.546629 0.723439 0.682651 -0.313695
N13   N     N_R   0.435241 0.641390 0.203681 0.256686
O29   O     O_R   0.477664 0.676175 0.161900 -0.325082
O30   O     O_R   0.359971 0.671005 0.214699 -0.248111
N14   N     N_R   0.565459 0.641877 0.796058 0.256824
O31   O     O_R   0.523041 0.676428 0.837905 -0.325348
O32   O     O_R   0.640461 0.672059 0.784802 -0.249926
N15   N     N_3   0.087718 0.595768 0.585817 -0.433637
H7    H     H_    0.126167 0.551374 0.608100 0.226947
H8    H     H_    0.126229 0.643076 0.566189 0.213481
N16   N     N_3   0.912208 0.404130 0.414086 -0.422755
H9    H     H_    0.873743 0.448505 0.391800 0.232575
H10   H     H_    0.873697 0.356831 0.433723 0.225187
N17   N     N_3   0.909337 0.594827 0.584802 -0.396678
H11   H     H_    0.926694 0.570198 0.624689 0.237992
H12   H     H_    0.926761 0.661763 0.582803 0.228789
N18   N     N_3   0.090603 0.405107 0.415082 -0.411682
H13   H     H_    0.073229 0.429739 0.375199 0.236991
H14   H     H_    0.073174 0.338172 0.417082 0.225613

loop_
_geom_bond_atom_site_label_1
_geom_bond_atom_site_label_2
_geom_bond_distance
_ccdc_geom_bond_type
C44   C46   1.407355 A    
C15   C17   1.394774 A    
N5    O14   1.301203 A    
N5    O13   1.301478 A    
C2    C40   1.399147 S    
N1    C30   1.428816 S    
O3    C2    1.270154 A    
N2    C29   1.428797 S    
N18   H14   1.045636 S    
N13   O29   1.301230 A    
C21   C23   1.415703 A    
N9    O21   1.301352 A    
O5    C3    1.280541 A    
C19   N7    1.438009 S    
C32   C36   1.401312 A    
O1    C1    1.270238 A    
C42   C46   1.407349 A    
C7    C9    1.405438 A    
C12   C14   1.407617 A    
N17   H12   1.045631 S    
H3    C44   1.083202 S    
C5    C13   1.393631 A    
N16   H9    1.045634 S    
C33   N15   1.435570 S    
C38   C39   1.185338 T    
Zn2   N3    1.972699 S    
C27   C29   1.407024 A    
O7    Zn1   2.006822 S    
C4    C24   1.467754 S    
C31   C33   1.395365 A    
C32   C34   1.395440 A    
C11   C12   1.406485 A    
C48   N3    1.170266 T    
C19   C29   1.405645 A    
C20   C30   1.405627 A    
O3    Zn1   1.971425 S    
C8    O12   1.348744 S    
N9    O22   1.301182 A    
C9    C15   1.418300 A    
C41   C44   1.412029 A    
C34   N16   1.435662 S    
C10   C16   1.418324 A    
C20   N8    1.438047 S    
C23   C25   1.414754 A    
O2    C2    1.270141 A    
C24   C26   1.414955 A    
N14   O32   1.301246 A    
N18   H13   1.045663 S    
N13   O30   1.301250 A    
C26   C28   1.401254 A    
C36   C38   1.412642 S    
C35   C37   1.412430 S    
C6    C14   1.393514 A    
C41   C45   1.407352 A    
N6    O15   1.301483 A    
O8    Zn2   2.006822 S    
N11   O25   1.301290 A    
N7    O18   1.301232 A    
C43   C45   1.407366 A    
C25   N11   1.435262 S    
C45   C47   1.472394 S    
C47   N4    1.170280 T    
H6    C41   1.083205 S    
N11   O26   1.301118 A    
O6    C4    1.279204 A    
C32   N18   1.435486 S    
N15   H8    1.045661 S    
N12   O28   1.301115 A    
C25   C27   1.401222 A    
C6    N2    1.364840 A    
C8    C10   1.405553 A    
H4    C43   1.083201 S    
N8    O20   1.301234 A    
C9    C11   1.416556 A    
C7    O11   1.348761 S    
C10   C12   1.416572 A    
O1    Zn1   1.971298 S    
C21   N9    1.435889 S    
C16   N6    1.435061 S    
C34   C35   1.405739 A    
C31   N17   1.435550 S    
C13   C18   1.399856 A    
C5    N1    1.364850 A    
C28   N14   1.438366 S    
O6    Zn2   2.007008 S    
N6    O16   1.301194 A    
O4    C1    1.270174 A    
C5    O9    1.350283 S    
Zn1   N4    1.972699 S    
C1    C39   1.399376 S    
C6    O10   1.350304 S    
C17   H1    1.083688 S    
C18   H2    1.083681 S    
C33   C36   1.405789 A    
C42   C43   1.412033 A    
C22   N10   1.435814 S    
C16   C18   1.394853 A    
N10   O24   1.301183 A    
C19   C21   1.398878 A    
C27   N13   1.438385 S    
N17   H11   1.045658 S    
H5    C42   1.083203 S    
C20   C22   1.398834 A    
N16   H10   1.045672 S    
C31   C35   1.401215 A    
C22   C24   1.415780 A    
N14   O31   1.301244 A    
N1    C7    1.366792 A    
C3    C23   1.467394 S    
N2    C8    1.366798 A    
C11   C13   1.407636 A    
O4    Zn2   1.971426 S    
N12   O27   1.301317 A    
O2    Zn2   1.971297 S    
O7    C4    1.280659 A    
C26   N12   1.435240 S    
O8    C3    1.279111 A    
N7    O17   1.301224 A    
C28   C30   1.406936 A    
O5    Zn1   2.007008 S    
N10   O23   1.301308 A    
C14   C17   1.399833 A    
C46   C48   1.472370 S    
N8    O19   1.301215 A    
C37   C40   1.185205 T    
N15   H7    1.045632 S    
C15   N5    1.435067 S    
