data_mof_unit_26223.cif
_audit_creation_date              2012-12-10T17:50:14-0500
_audit_creation_method            fapswitch 2.2
_symmetry_space_group_name_H-M    P1
_symmetry_Int_Tables_number       1
_space_group_crystal_system       triclinic
_cell_length_a                    10.718623
_cell_length_b                    14.739411
_cell_length_c                    14.652628
_cell_angle_alpha                 64.381752
_cell_angle_beta                  105.673473
_cell_angle_gamma                 103.182615
_cell_volume                      1993.16282197

loop_
_atom_site_label
_atom_site_type_symbol
_atom_type_description
_atom_site_fract_x
_atom_site_fract_y
_atom_site_fract_z
_atom_type_partial_charge
C1    C     C_R   0.479930 0.119950 0.311073 0.753824
C2    C     C_R   0.521673 0.880189 0.688822 0.920931
C3    C     C_R   0.449810 0.288350 0.164812 -0.056723
C4    C     C_R   0.576761 0.716041 0.832985 -0.053445
C5    C     C_R   0.485438 0.360374 0.071080 -0.001414
C6    C     C_R   0.553022 0.641784 0.929346 -0.060389
C7    C     C_R   0.486097 0.326017 0.994849 0.018146
C8    C     C_R   0.561120 0.674923 0.008759 0.035080
C9    C     C_R   0.520303 0.465229 0.051070 0.089758
C10   C     C_R   0.524436 0.536542 0.949370 0.025814
C11   C     C_R   0.490737 0.501083 0.869638 -0.286666
C12   C     C_R   0.562543 0.499277 0.131708 -0.170696
C13   C     C_R   0.477633 0.397637 0.891167 0.282041
C14   C     C_R   0.580382 0.602612 0.112232 0.234018
C15   C     C_R   0.755043 0.299484 0.642942 0.100626
C16   C     C_R   0.275697 0.708017 0.333766 0.108421
C17   C     C_R   0.701105 0.209133 0.628086 0.439520
C18   C     C_R   0.326465 0.798031 0.350550 0.380019
C19   C     C_R   0.511277 0.281618 0.518913 -0.069086
C20   C     C_R   0.473615 0.710287 0.500771 -0.053694
C21   C     C_R   0.549586 0.368722 0.544437 -0.056636
C22   C     C_R   0.438258 0.620556 0.480162 -0.097355
C23   C     C_R   0.258739 0.003489 0.494582 0.851669
C24   C     C_R   0.740409 0.998160 0.502882 0.845258
C25   C     C_R   0.676284 0.378985 0.605678 -0.012728
C26   C     C_R   0.324899 0.616521 0.404786 0.046635
C27   C     C_R   0.468324 0.447782 0.506424 0.097789
C28   C     C_R   0.513954 0.537060 0.527657 0.061314
C29   C     C_R   0.637703 0.543420 0.589621 -0.287384
C30   C     C_R   0.342194 0.440479 0.447131 -0.325380
C31   C     C_R   0.717383 0.466948 0.629067 0.041146
C32   C     C_R   0.270973 0.522463 0.397208 0.047746
C33   C     C_3   0.004432 0.024571 0.397933 -0.096489
C34   C     C_3   0.991838 0.980772 0.595496 -0.076742
C35   C     C_3   0.956643 0.091446 0.435101 0.203773
C36   C     C_3   0.039368 0.913061 0.559081 0.228391
C37   C     C_3   0.875863 0.998006 0.502424 -0.275556
C38   C     C_3   0.121675 0.006450 0.491479 -0.211371
C39   C     C_3   0.924496 0.930658 0.466219 0.193214
C40   C     C_3   0.072025 0.074335 0.527354 0.259480
C41   C     C_R   0.476247 0.187815 0.200495 -0.246901
C42   C     C_R   0.538084 0.812474 0.799731 -0.154041
C43   C     C_R   0.497684 0.222356 0.025412 0.235046
C44   C     C_R   0.549263 0.778709 0.980006 0.192874
C45   C     C_R   0.505421 0.155501 0.130938 -0.060057
C46   C     C_R   0.516467 0.841542 0.874263 -0.096663
Cu1   Cu    Cu3+1 0.465750 0.918270 0.475680 0.979876
Cu2   Cu    Cu3+1 0.534250 0.081730 0.524320 0.975742
H1    H     H_    0.548530 0.714009 0.565220 0.185126
H2    H     H_    0.423128 0.273267 0.465277 0.146289
H3    H     H_    0.677334 0.609629 0.606919 0.164313
H4    H     H_    0.295256 0.371011 0.438488 0.143748
H5    H     H_    0.475913 0.553392 0.789472 0.146750
H6    H     H_    0.581657 0.445088 0.210913 0.150968
N1    N     N_R   0.585750 0.204560 0.560800 -0.207059
N2    N     N_R   0.414250 0.795440 0.439200 -0.201110
O1    O     O_R   0.454850 0.022100 0.338110 -0.553111
O2    O     O_R   0.545150 0.977900 0.661890 -0.539857
O3    O     O_R   0.512700 0.160150 0.379180 -0.598764
O4    O     O_R   0.487300 0.839850 0.620820 -0.562768
O5    O     O_R   0.287930 0.931000 0.479440 -0.579806
O6    O     O_R   0.712070 0.069000 0.520560 -0.567877
O7    O     O_R   0.345780 0.069050 0.520520 -0.573415
O8    O     O_R   0.654220 0.930950 0.479480 -0.568348
N3    N     N_2   0.899935 0.184892 0.370579 -0.422880
H7    H     H_    0.808956 0.174680 0.326812 0.231542
C47   C     C_3   0.983701 0.271462 0.314230 -0.583100
H8    H     H_    0.985441 0.269537 0.239851 0.261307
H9    H     H_    0.084611 0.274669 0.359725 0.243890
H10   H     H_    0.943047 0.341268 0.296604 0.217296
N4    N     N_2   0.090077 0.817578 0.625646 -0.431535
H11   H     H_    0.180756 0.826322 0.670405 0.276350
C48   C     C_3   0.000643 0.737549 0.683602 -0.563099
H12   H     H_    0.043700 0.665297 0.720028 0.221515
H13   H     H_    0.906093 0.727131 0.632469 0.262626
H14   H     H_    0.983640 0.754808 0.745504 0.248530
N5    N     N_2   0.297356 0.892576 0.269832 -0.387161
H15   H     H_    0.303031 0.900903 0.197478 0.271134
C49   C     C_3   0.185924 0.931499 0.270263 -0.576868
H16   H     H_    0.111578 0.940811 0.198612 0.184450
H17   H     H_    0.218881 0.007313 0.271988 0.273012
H18   H     H_    0.140440 0.881591 0.337900 0.213988
N6    N     N_2   0.770853 0.123556 0.678925 -0.372298
H19   H     H_    0.865144 0.137689 0.667874 0.248068
C50   C     C_3   0.758910 0.061602 0.785275 -0.666118
H20   H     H_    0.847495 0.076911 0.839044 0.207805
H21   H     H_    0.750008 0.980447 0.799609 0.227369
H22   H     H_    0.672092 0.074645 0.803231 0.207852
N7    N     N_2   0.892809 0.314111 0.678620 -0.461887
H23   H     H_    0.946578 0.374736 0.630910 0.252522
C51   C     C_3   0.945425 0.276448 0.788471 -0.647272
H24   H     H_    0.006102 0.338921 0.809563 0.238714
H25   H     H_    0.009750 0.218546 0.808776 0.223203
H26   H     H_    0.866747 0.243227 0.834042 0.240350
N8    N     N_2   0.196847 0.712910 0.236449 -0.435396
H27   H     H_    0.244921 0.745855 0.175294 0.246987
C52   C     C_3   0.063829 0.734781 0.212235 -0.598334
H28   H     H_    0.996565 0.677177 0.186693 0.243890
H29   H     H_    0.052644 0.809708 0.147292 0.198456
H30   H     H_    0.034651 0.733157 0.280215 0.238039
C53   C     C_2   0.000933 0.055281 0.285917 0.300059
H31   H     H_    0.929857 0.015232 0.243326 0.073158
O9    O     O_2   0.074347 0.128007 0.240896 -0.576596
C54   C     C_2   0.982475 0.956103 0.703893 0.382871
H32   H     H_    0.887734 0.935191 0.725383 0.099029
O10   O     O_2   0.081299 0.956238 0.769034 -0.517648
N9    N     N_2   0.838814 0.853223 0.434558 -0.403116
H33   H     H_    0.757641 0.879759 0.379684 0.260827
C55   C     C_3   0.899395 0.791320 0.409138 -0.720785
H34   H     H_    0.832313 0.720625 0.413447 0.239616
H35   H     H_    0.992552 0.769954 0.463706 0.267005
H36   H     H_    0.916961 0.832298 0.329150 0.195707
N10   N     N_2   0.155365 0.153215 0.557749 -0.420073
H37   H     H_    0.238907 0.129389 0.610817 0.311105
C56   C     C_3   0.092077 0.212557 0.584453 -0.682725
H38   H     H_    0.151750 0.287353 0.572610 0.229704
H39   H     H_    0.084151 0.173448 0.666943 0.237767
H40   H     H_    0.993914 0.226380 0.535234 0.265343
N11   N     N_2   0.452594 0.367200 0.807335 -0.389160
H41   H     H_    0.494392 0.418612 0.745750 0.267896
C57   C     C_3   0.316792 0.333449 0.775245 -0.646580
H42   H     H_    0.308648 0.303288 0.716162 0.234782
H43   H     H_    0.258326 0.397833 0.741418 0.216397
H44   H     H_    0.277009 0.271870 0.841555 0.237523
N12   N     N_2   0.630694 0.632923 0.196454 -0.446562
H45   H     H_    0.727629 0.623074 0.227503 0.260600
C58   C     C_3   0.551847 0.594517 0.274571 -0.663078
H46   H     H_    0.588766 0.635968 0.326247 0.232718
H47   H     H_    0.558092 0.512528 0.321407 0.231373
H48   H     H_    0.448203 0.606394 0.238624 0.240783
C59   C     C_2   0.667161 0.698479 0.781757 0.287274
H49   H     H_    0.698118 0.624378 0.809814 0.129938
O11   O     O_2   0.716636 0.767731 0.713082 -0.596558
C60   C     C_2   0.363505 0.312702 0.214346 0.395076
H50   H     H_    0.336351 0.258760 0.286638 0.098908
O12   O     O_2   0.312999 0.390933 0.170963 -0.550207
C61   C     C_2   0.455379 0.933847 0.845342 0.406225
H51   H     H_    0.480719 0.974607 0.895596 0.111376
O13   O     O_2   0.370422 0.961977 0.768183 -0.533134
C62   C     C_2   0.552609 0.055506 0.169899 0.383781
H52   H     H_    0.622172 0.030016 0.242279 0.054783
O14   O     O_2   0.512561 0.999756 0.123502 -0.591360
N13   N     N_2   0.515910 0.189134 0.952430 -0.384734
H53   H     H_    0.460972 0.122196 0.951830 0.295406
C63   C     C_3   0.649775 0.200341 0.942591 -0.625555
H54   H     H_    0.650809 0.185257 0.875022 0.212685
H55   H     H_    0.705416 0.145813 0.012867 0.215970
H56   H     H_    0.697755 0.278972 0.929769 0.257135
N14   N     N_2   0.556264 0.818986 0.054064 -0.414343
H57   H     H_    0.504874 0.776243 0.112225 0.291042
C64   C     C_3   0.684386 0.868043 0.084088 -0.624836
H58   H     H_    0.684222 0.890604 0.147113 0.248802
H59   H     H_    0.711245 0.937040 0.017243 0.211537
H60   H     H_    0.759380 0.815973 0.112241 0.218417
C65   C     C_2   0.841182 0.483462 0.697592 0.358062
H61   H     H_    0.933140 0.502472 0.671967 0.067492
O15   O     O_2   0.840169 0.480551 0.781937 -0.561966
C66   C     C_2   0.136687 0.503582 0.342986 0.395986
H62   H     H_    0.119741 0.471528 0.285995 0.075140
O16   O     O_2   0.044244 0.519583 0.365165 -0.567045

loop_
_geom_bond_atom_site_label_1
_geom_bond_atom_site_label_2
_ccdc_geom_bond_type
C25   C31   A    
Cu2   N1    S    
C38   C40   S    
C26   C32   A    
C53   H31   S    
C65   O15   D    
C34   C37   S    
C48   H13   S    
C48   H12   S    
C43   N13   S    
N8    H27   S    
C20   N2    A    
C63   H56   S    
C54   O10   D    
C52   H28   S    
N5    H15   S    
C39   N9    S    
C61   O13   D    
C33   C39   S    
C14   N12   S    
N6    H19   S    
C33   C53   S    
C28   C29   A    
C35   C37   S    
C62   O14   D    
N14   C64   S    
C2    O4    A    
C15   C25   A    
C51   H25   S    
C35   N3    S    
N13   H53   S    
N13   C63   S    
C42   C46   A    
C64   H60   S    
C57   H44   S    
C30   H4    S    
C55   H35   S    
C63   H55   S    
Cu1   O4    S    
Cu1   Cu2   S    
N3    C47   S    
C24   O6    A    
C64   H58   S    
C7    C43   A    
N7    C51   S    
C9    C10   A    
C17   N1    A    
C11   H5    S    
C36   N4    S    
C18   N2    A    
C23   O7    A    
C21   C27   A    
C24   O8    A    
C22   C28   A    
C27   C30   A    
C66   O16   D    
N9    C55   S    
C54   H32   S    
C52   H29   S    
C44   C46   A    
C63   H54   S    
C4    C59   S    
C32   C66   S    
C50   H21   S    
C16   C26   A    
C65   H61   S    
C47   H8    S    
C62   H52   S    
C4    C6    A    
C10   C11   A    
C55   H36   S    
C51   H24   S    
C49   H17   S    
Cu2   O7    S    
C60   O12   D    
C56   H39   S    
C50   H20   S    
C45   C62   S    
C34   C54   S    
N10   C56   S    
C17   N6    S    
C58   H47   S    
C5    C9    A    
C20   H1    S    
C44   N14   S    
C1    O1    A    
C15   N7    S    
Cu2   O6    S    
C40   N10   S    
C7    C13   A    
N9    H33   S    
C56   H40   S    
N8    C52   S    
C24   C37   S    
N5    C49   S    
C43   C45   A    
C57   H42   S    
N11   C57   S    
C46   C61   S    
C1    C41   S    
N6    C50   S    
C12   C14   A    
C66   H62   S    
C48   H14   S    
C34   C40   S    
C31   C65   S    
C58   H46   S    
C3    C5    A    
Cu1   O8    S    
C52   H30   S    
Cu2   O3    S    
C5    C7    A    
N10   H37   S    
C29   H3    S    
C50   H22   S    
C19   N1    A    
C15   C17   A    
C21   C25   A    
C3    C41   A    
C16   N8    S    
C8    C14   A    
C19   C21   A    
C29   C31   A    
C36   C39   S    
C8    C44   A    
C20   C22   A    
C59   O11   D    
Cu1   O5    S    
C49   H18   S    
C6    C8    A    
N11   H41   S    
C2    O2    A    
Cu2   O2    S    
C60   H50   S    
C23   C38   S    
C13   N11   S    
C61   H51   S    
C33   C38   S    
C53   O9    D    
C3    C60   S    
C47   H10   S    
C1    O3    A    
C35   C40   S    
C58   H48   S    
N4    H11   S    
C37   C39   S    
C55   H34   S    
C51   H26   S    
C30   C32   A    
C11   C13   A    
C19   H2    S    
N12   H45   S    
C4    C42   A    
C2    C42   S    
C18   N5    S    
C36   C38   S    
C33   C35   S    
C34   C36   S    
C64   H59   S    
C59   H49   S    
C9    C12   A    
C57   H43   S    
C6    C10   A    
C49   H16   S    
C23   O5    A    
C16   C18   A    
N3    H7    S    
C22   C26   A    
N4    C48   S    
Cu1   O1    S    
N12   C58   S    
C41   C45   A    
C47   H9    S    
N7    H23   S    
N14   H57   S    
C12   H6    S    
C56   H38   S    
Cu1   N2    S    
C27   C28   A    
