data_mof_unit_51719.cif
_audit_creation_date              2012-12-10T20:30:14-0500
_audit_creation_method            fapswitch 2.2
_symmetry_space_group_name_H-M    P1
_symmetry_Int_Tables_number       1
_space_group_crystal_system       triclinic
_cell_length_a                    9.878428
_cell_length_b                    10.685122
_cell_length_c                    13.084428
_cell_angle_alpha                 90.309194
_cell_angle_beta                  69.736558
_cell_angle_gamma                 89.532744
_cell_volume                      1295.52191037

loop_
_atom_site_label
_atom_site_type_symbol
_atom_type_description
_atom_site_fract_x
_atom_site_fract_y
_atom_site_fract_z
_atom_type_partial_charge
C1    C     C_R   0.501843 0.739629 0.494567 0.924107
C2    C     C_R   0.365641 0.489739 0.822844 -0.099740
C3    C     C_R   0.379676 0.937830 0.498152 -0.012635
C4    C     C_R   0.419515 0.495299 0.704330 0.862405
C5    C     C_R   0.508073 0.870376 0.474622 -0.169690
C6    C     C_R   0.641164 0.931656 0.427573 0.094866
C7    C     C_R   0.643062 0.062503 0.429047 0.022352
C8    C     C_R   0.510817 0.128450 0.477706 -0.160231
C9    C     C_R   0.381582 0.064885 0.502059 0.017427
C10   C     C_3   0.239400 0.076426 0.593885 -0.118836
C11   C     C_3   0.234845 0.932241 0.588625 0.184135
C12   C     C_R   0.427487 0.474445 0.985850 0.099972
C13   C     C_R   0.885786 0.490503 0.595217 0.208793
C14   C     C_R   0.971447 0.502954 0.405117 -0.128155
C15   C     C_R   0.114965 0.503326 0.405064 -0.133876
C16   C     C_R   0.503047 0.260122 0.495134 0.913511
C17   C     C_R   0.028388 0.486666 0.594889 0.168885
C18   C     C_3   0.993733 0.568977 0.692783 -0.517473
C19   C     C_3   0.841466 0.580025 0.690298 -0.148281
C20   C     C_R   0.580615 0.497457 0.295204 0.877149
C21   C     C_R   0.764960 0.350678 0.019310 -0.223804
C22   C     C_R   0.629704 0.474816 0.177712 -0.071580
C23   C     C_R   0.452147 0.437156 0.877757 0.049128
C24   C     C_R   0.237668 0.553935 0.881307 -0.197322
C25   C     C_R   0.199832 0.571951 0.992840 -0.166115
C26   C     C_R   0.294989 0.535527 0.044775 -0.185196
C27   C     C_R   0.537233 0.451120 0.029798 0.041930
C28   C     C_R   0.657460 0.373017 0.973446 0.119744
C29   C     C_R   0.667250 0.318645 0.872928 0.066000
C30   C     C_R   0.564485 0.351176 0.826113 -0.275221
C31   C     C_R   0.532172 0.507472 0.127180 -0.291605
C32   C     C_R   0.751147 0.399871 0.122101 0.087382
H1    H     H_    0.920330 0.450819 0.163367 0.179285
H2    H     H_    0.121877 0.936060 0.481412 0.164223
H3    H     H_    0.141427 0.793646 0.526982 0.227215
H4    H     H_    0.952530 0.507625 0.328804 0.146060
H5    H     H_    0.202777 0.508002 0.328187 0.149318
H6    H     H_    0.998125 0.516201 0.764513 0.174221
H7    H     H_    0.055819 0.657220 0.676990 0.233892
H8    H     H_    0.757515 0.544393 0.764679 0.170844
H9    H     H_    0.766921 0.193025 0.749762 0.182693
H10   H     H_    0.877342 0.288660 0.784876 0.172480
H11   H     H_    0.813342 0.767518 0.721123 0.189663
H12   H     H_    0.926617 0.299739 0.127299 0.179035
H13   H     H_    0.703251 0.706770 0.662562 0.223902
H14   H     H_    0.858060 0.292557 0.976971 0.154339
H15   H     H_    0.448805 0.574775 0.168359 0.149755
H16   H     H_    0.169945 0.594421 0.840244 0.152874
H17   H     H_    0.261119 0.554369 0.131071 0.116779
H18   H     H_    0.099985 0.620042 0.038233 0.137512
H19   H     H_    0.574058 0.310036 0.748087 0.166851
H20   H     H_    0.822426 0.887273 0.300754 0.187950
H21   H     H_    0.842207 0.886197 0.424418 0.205322
H22   H     H_    0.770327 0.193143 0.329949 0.220123
H23   H     H_    0.807133 0.164380 0.446349 0.209712
H24   H     H_    0.159936 0.110666 0.758915 0.188023
H25   H     H_    0.342311 0.093449 0.708484 0.181601
H26   H     H_    0.156193 0.125733 0.569116 0.165036
H27   H     H_    0.145934 0.889455 0.751471 0.184805
H28   H     H_    0.329015 0.886084 0.703987 0.163355
N1    N     N_R   0.856940 0.500860 0.500710 -0.097097
N2    N     N_3   0.773536 0.861724 0.382237 -0.423701
N3    N     N_R   0.142580 0.500820 0.500710 -0.100066
N4    N     N_3   0.857178 0.371109 0.170910 -0.460525
N5    N     N_3   0.779204 0.124093 0.383562 -0.473977
N6    N     N_3   0.253165 0.130695 0.693075 -0.453184
N7    N     N_3   0.237376 0.864150 0.685183 -0.448366
N8    N     N_3   0.119995 0.887235 0.551022 -0.450189
N9    N     N_3   0.784396 0.234829 0.816513 -0.468387
N10   N     N_3   0.810095 0.705502 0.659927 -0.410921
O1    O     O_R   0.385310 0.683210 0.499990 -0.615428
O2    O     O_R   0.614650 0.683240 0.500000 -0.596513
O3    O     O_R   0.328390 0.499940 0.653610 -0.599751
O4    O     O_R   0.557730 0.499980 0.653620 -0.629281
O5    O     O_R   0.385350 0.316760 0.500000 -0.594479
O6    O     O_R   0.614690 0.316790 0.500010 -0.641565
O7    O     O_R   0.442270 0.500020 0.346380 -0.629971
O8    O     O_R   0.671610 0.500060 0.346390 -0.603402
Zn1   Zn    Zn3+2 0.346870 0.499980 0.499990 0.945047
Zn2   Zn    Zn3+2 0.653130 0.500020 0.500010 0.936863

loop_
_geom_bond_atom_site_label_1
_geom_bond_atom_site_label_2
_ccdc_geom_bond_type
C30   H19   S    
C16   O5    A    
H25   N6    S    
O1    Zn1   S    
C7    C8    A    
H22   N5    S    
N3    Zn1   S    
H12   N4    S    
C12   C23   A    
C1    O1    A    
C22   C32   A    
C20   O7    A    
C1    C5    S    
C28   C29   A    
C10   H26   S    
C14   H4    S    
C5    C6    A    
O8    Zn2   S    
N1    Zn2   S    
C18   C19   S    
C25   H18   S    
C15   H5    S    
H27   N7    S    
H28   N7    S    
C8    C9    A    
C9    C10   S    
C4    O4    A    
C10   N6    S    
C8    C16   S    
O4    Zn2   S    
H23   N5    S    
C11   N7    S    
C29   N9    S    
O7    Zn1   S    
C21   C32   A    
C1    O2    A    
C22   C31   A    
C13   C19   S    
C12   C27   A    
C27   C31   A    
C24   H16   S    
C23   C30   A    
C24   C25   A    
C32   N4    S    
C19   H8    S    
C26   H17   S    
H2    N8    S    
C25   C26   A    
C14   N1    A    
H10   N9    S    
C12   C26   A    
C2    C4    S    
C18   H7    S    
C29   C30   A    
C3    C9    A    
C7    N5    S    
H21   N2    S    
C17   C18   S    
O3    Zn1   S    
C4    O3    A    
C21   C28   A    
C20   C22   S    
H11   N10   S    
C2    C24   A    
C27   C28   A    
C11   N8    S    
H9    N9    S    
C21   H14   S    
H13   N10   S    
C16   O6    A    
O6    Zn2   S    
C3    C5    A    
C6    C7    A    
C20   O8    A    
C13   C17   A    
C6    N2    S    
C18   H6    S    
O2    Zn2   S    
H20   N2    S    
C17   N3    A    
H3    N8    S    
H1    N4    S    
H24   N6    S    
C3    C11   S    
C10   C11   S    
C13   N1    A    
C2    C23   A    
C15   N3    A    
C14   C15   A    
C19   N10   S    
C31   H15   S    
O5    Zn1   S    
