data_mof_unit_63238.cif
_audit_creation_date              2012-12-10T19:26:59-0500
_audit_creation_method            fapswitch 2.2
_symmetry_space_group_name_H-M    P1
_symmetry_Int_Tables_number       1
_space_group_crystal_system       triclinic
_cell_length_a                    17.770734
_cell_length_b                    16.479046
_cell_length_c                    14.361001
_cell_angle_alpha                 89.994544
_cell_angle_beta                  90.968245
_cell_angle_gamma                 90.16921
_cell_volume                      4204.92481418

loop_
_atom_site_label
_atom_site_type_symbol
_atom_type_description
_atom_site_fract_x
_atom_site_fract_y
_atom_site_fract_z
_atom_type_partial_charge
C1    C     C_R   0.355226 0.499982 0.500577 0.934344
C2    C     C_R   0.455771 0.257080 0.437009 0.432375
C3    C     C_R   0.451048 0.742480 0.442550 0.447142
C4    C     C_R   0.543490 0.257501 0.563944 0.440494
C5    C     C_R   0.498975 0.872950 0.501634 -0.044182
C6    C     C_R   0.499135 0.126856 0.501345 -0.041108
C7    C     C_1   0.499299 0.962689 0.501361 0.216670
C8    C     C_1   0.499355 0.037114 0.501275 0.216872
C9    C     C_R   0.499871 0.500003 0.330729 0.815240
C10   C     C_R   0.500135 0.499997 0.669270 0.814986
C11   C     C_1   0.499885 0.500003 0.228516 -0.132812
C12   C     C_R   0.644696 0.500190 0.500204 0.937188
C13   C     C_1   0.500142 0.499988 0.771479 -0.144806
C14   C     C_1   0.499923 0.499997 0.143199 0.017298
C15   C     C_1   0.500117 0.499985 0.856795 0.012162
C16   C     C_1   0.499992 0.499990 0.042656 0.028506
C17   C     C_1   0.500055 0.499986 0.957336 0.027904
C18   C     C_R   0.846595 0.564055 0.457218 0.275223
C19   C     C_R   0.150488 0.439323 0.461980 0.271693
C20   C     C_R   0.155283 0.565606 0.550752 0.273097
C21   C     C_R   0.847222 0.441561 0.552969 0.266466
C22   C     C_R   0.766878 0.563714 0.455791 0.238512
C23   C     C_1   0.966195 0.504590 0.508947 0.211307
C24   C     C_R   0.230104 0.437102 0.461143 0.242588
C25   C     C_R   0.234971 0.563593 0.550514 0.235793
C26   C     C_R   0.767541 0.441081 0.552203 0.239435
C27   C     C_R   0.727774 0.500846 0.501308 -0.198237
C28   C     C_R   0.272048 0.500590 0.503031 -0.199997
C29   C     C_R   0.885471 0.504338 0.507890 -0.059997
C30   C     C_R   0.114364 0.502322 0.508766 -0.062014
C31   C     C_1   0.033677 0.504049 0.509279 0.211211
C32   C     C_R   0.549289 0.829585 0.559354 0.160906
C33   C     C_R   0.456130 0.170049 0.435133 0.153547
C34   C     C_R   0.450963 0.829455 0.440817 0.162935
C35   C     C_R   0.545048 0.170532 0.564307 0.157265
C36   C     C_R   0.547667 0.742606 0.559241 0.443643
Cu1   Cu    Cu3+1 0.500000 0.580420 0.500000 1.082078
Cu2   Cu    Cu3+1 0.500000 0.419580 0.500000 1.068982
H1    H     H_    0.858161 0.638117 0.352969 0.345496
H2    H     H_    0.415317 0.157775 0.309856 0.338463
H3    H     H_    0.396687 0.839869 0.322883 0.342919
H4    H     H_    0.637161 0.160347 0.638062 0.346559
H5    H     H_    0.601290 0.729688 0.676985 0.318373
H6    H     H_    0.367115 0.267795 0.356962 0.337700
H7    H     H_    0.354554 0.729045 0.379460 0.325463
H8    H     H_    0.588783 0.270691 0.686761 0.317793
H9    H     H_    0.134537 0.361255 0.361950 0.346540
H10   H     H_    0.146919 0.678974 0.586278 0.348984
H11   H     H_    0.859443 0.330087 0.594643 0.347294
H12   H     H_    0.754834 0.675067 0.414043 0.346203
H13   H     H_    0.238062 0.323722 0.426591 0.339529
H14   H     H_    0.248989 0.639454 0.653157 0.340704
H15   H     H_    0.757918 0.369266 0.658849 0.341560
H16   H     H_    0.646104 0.840239 0.623026 0.344214
N1    N     N_R   0.500000 0.701220 0.500000 -0.205990
N2    N     N_R   0.500000 0.298780 0.500000 -0.215723
O1    O     O_R   0.391260 0.567930 0.500000 -0.504433
O2    O     O_3   0.106409 0.382504 0.415600 -0.703428
O3    O     O_3   0.115832 0.629104 0.589324 -0.702211
O4    O     O_3   0.889234 0.380970 0.595203 -0.702366
O5    O     O_3   0.725971 0.623615 0.410762 -0.703970
O6    O     O_3   0.268063 0.374077 0.419906 -0.691178
O7    O     O_3   0.277894 0.619887 0.599297 -0.706854
O8    O     O_3   0.727225 0.385808 0.603914 -0.672988
O9    O     O_3   0.600405 0.873471 0.612716 -0.686326
O10   O     O_3   0.416952 0.125969 0.368345 -0.686828
O11   O     O_3   0.406547 0.873232 0.379110 -0.684754
O12   O     O_R   0.608740 0.432070 0.500000 -0.516997
O13   O     O_3   0.592177 0.126955 0.623048 -0.686811
O14   O     O_3   0.592607 0.698017 0.619195 -0.683556
O15   O     O_3   0.410627 0.301433 0.377083 -0.652051
O16   O     O_3   0.401675 0.697799 0.388008 -0.682801
O17   O     O_3   0.584578 0.302083 0.628121 -0.645870
O18   O     O_R   0.608740 0.567930 0.500000 -0.504968
O19   O     O_R   0.391260 0.432070 0.500000 -0.519086
O20   O     O_R   0.500000 0.567920 0.376050 -0.527759
O21   O     O_R   0.500000 0.432080 0.623950 -0.532288
O22   O     O_R   0.500000 0.567920 0.623950 -0.529981
O23   O     O_R   0.500000 0.432080 0.376050 -0.527824
O24   O     O_3   0.888094 0.620075 0.407888 -0.703462

loop_
_geom_bond_atom_site_label_1
_geom_bond_atom_site_label_2
_ccdc_geom_bond_type
Cu1   O18   S    
C12   O18   A    
C21   C26   A    
C10   O22   A    
C7    C8    T    
H3    O11   S    
H16   O9    S    
C20   C30   A    
C25   C28   A    
C12   O12   A    
C26   C27   A    
H11   O4    S    
C23   C29   S    
C25   O7    S    
C30   C31   S    
C11   C14   T    
Cu2   O23   S    
C6    C35   A    
H6    O15   S    
C9    O23   A    
C26   O8    S    
C3    N1    A    
C16   C17   T    
C1    C28   S    
C9    O20   A    
C5    C32   A    
C4    C35   A    
H2    O10   S    
C4    N2    A    
H7    O16   S    
H13   O6    S    
C10   O21   A    
C36   O14   S    
C33   O10   S    
Cu2   O19   S    
C19   O2    S    
C12   C27   S    
C1    O19   A    
C21   O4    S    
C5    C7    S    
C6    C8    S    
C3    C34   A    
C21   C29   A    
H14   O7    S    
H4    O13   S    
C23   C31   T    
Cu1   Cu2   S    
C1    O1    A    
C5    C34   A    
C18   C29   A    
C20   O3    S    
C9    C11   S    
C4    O17   S    
C2    C33   A    
Cu1   O20   S    
Cu2   O12   S    
H5    O14   S    
C22   C27   A    
C13   C15   T    
C14   C16   S    
C2    O15   S    
C32   C36   A    
H10   O3    S    
C15   C17   S    
C24   O6    S    
C18   C22   A    
C24   C28   A    
C10   C13   S    
C34   O11   S    
Cu2   O21   S    
Cu1   O22   S    
C6    C33   A    
H1    O24   S    
C19   C24   A    
C36   N1    A    
C2    N2    A    
C22   O5    S    
H15   O8    S    
C3    O16   S    
Cu1   N1    S    
Cu2   N2    S    
C35   O13   S    
C18   O24   S    
C20   C25   A    
H12   O5    S    
C19   C30   A    
H8    O17   S    
Cu1   O1    S    
C32   O9    S    
H9    O2    S    
