data_mof_unit_53862.cif
_audit_creation_date              2012-10-26T19:02:35-0400
_audit_creation_method            fapswitch 2.2
_symmetry_space_group_name_H-M    P1
_symmetry_Int_Tables_number       1
_space_group_crystal_system       triclinic
_cell_length_a                    17.296947
_cell_length_b                    8.688687
_cell_length_c                    7.44024
_cell_angle_alpha                 102.914558
_cell_angle_beta                  90.220077
_cell_angle_gamma                 93.001416
_cell_volume                      1088.25822664

loop_
_atom_site_label
_atom_site_type_symbol
_atom_type_description
_atom_site_fract_x
_atom_site_fract_y
_atom_site_fract_z
_atom_type_partial_charge
C1    C     C_R   0.497633 0.199748 0.453658 0.551405
C2    C     C_R   0.775352 0.455774 0.605070 -0.128222
C3    C     C_R   0.145083 0.552307 0.405937 -0.108297
C4    C     C_R   0.854917 0.447693 0.594063 -0.108297
C5    C     C_R   0.107089 0.531629 0.565637 0.044549
C6    C     C_R   0.892911 0.468371 0.434363 0.044549
C7    C     C_R   0.150162 0.512400 0.718275 -0.113899
C8    C     C_R   0.849838 0.487600 0.281725 -0.113899
C9    C     C_R   0.230355 0.505224 0.707720 -0.129087
C10   C     C_R   0.769645 0.494776 0.292280 -0.129087
C11   C     C_2   0.022537 0.528200 0.575002 -0.133381
C12   C     C_R   0.502367 0.800251 0.546342 0.551405
C13   C     C_2   0.977463 0.471799 0.424997 -0.133381
C14   C     C_2   0.496507 0.031915 0.427502 -0.154854
C15   C     C_2   0.503493 0.968085 0.572498 -0.154854
C16   C     C_R   0.351291 0.505388 0.526590 0.545743
C17   C     C_R   0.648709 0.494612 0.473410 0.545743
C18   C     C_R   0.267731 0.517940 0.544298 0.017005
C19   C     C_R   0.732268 0.482060 0.455702 0.017005
C20   C     C_R   0.224648 0.544226 0.394930 -0.128222
Cu1   Cu    Cu3+1 0.508700 0.517250 0.683000 0.955327
Cu2   Cu    Cu3+1 0.491300 0.482750 0.317000 0.955327
H1    H     H_    0.737266 0.513221 0.174673 0.121744
H2    H     H_    0.560824 0.620751 0.041860 0.237877
H3    H     H_    0.252352 0.558865 0.269010 0.128100
H4    H     H_    0.747648 0.441135 0.730990 0.128100
H5    H     H_    0.489924 0.960508 0.287687 0.134709
H6    H     H_    0.510076 0.039492 0.712313 0.134709
H7    H     H_    0.262734 0.486779 0.825327 0.121744
H8    H     H_    0.002730 0.430745 0.290570 0.113974
H9    H     H_    0.997270 0.569255 0.709430 0.113974
H10   H     H_    0.121539 0.498747 0.843516 0.096478
H11   H     H_    0.878460 0.501253 0.156484 0.096478
H12   H     H_    0.886318 0.424972 0.710694 0.099448
H13   H     H_    0.113681 0.575028 0.289306 0.099448
H14   H     H_    0.439176 0.379249 0.958140 0.237877
N1    N     N_2   0.478180 0.456750 0.041980 -0.259387
N2    N     N_2   0.521820 0.543250 0.958020 -0.259387
O1    O     O_R   0.505650 0.286040 0.618880 -0.505896
O2    O     O_R   0.494350 0.713960 0.381120 -0.505896
O3    O     O_R   0.490960 0.256910 0.309800 -0.496156
O4    O     O_R   0.509040 0.743090 0.690200 -0.496156
O5    O     O_R   0.394600 0.516230 0.672450 -0.509477
O6    O     O_R   0.605400 0.483770 0.327550 -0.509477
O7    O     O_R   0.379910 0.487100 0.363380 -0.507702
O8    O     O_R   0.620090 0.512900 0.636620 -0.507702

loop_
_geom_bond_atom_site_label_1
_geom_bond_atom_site_label_2
_ccdc_geom_bond_type
C16   O7    A    
C12   O2    A    
C2    C4    A    
N1    N2    D    
C7    H10   S    
C9    H7    S    
C14   H5    S    
C13   H8    S    
H2    N2    S    
Cu1   O1    S    
C12   C15   S    
C3    H13   S    
C10   C19   A    
Cu2   O2    S    
C17   O6    A    
C11   H9    S    
C3    C20   A    
C2    H4    S    
Cu1   Cu2   S    
C6    C13   S    
C11   C13   D    
C16   O5    A    
C15   H6    S    
C8    C10   A    
H14   N1    S    
C17   C19   S    
C5    C11   S    
C18   C20   A    
C8    H11   S    
C10   H1    S    
C4    H12   S    
Cu2   O3    S    
C20   H3    S    
C1    O1    A    
C12   O4    A    
Cu1   O4    S    
Cu1   O8    S    
C7    C9    A    
C9    C18   A    
Cu2   O7    S    
C17   O8    A    
C16   C18   S    
C4    C6    A    
C1    O3    A    
C5    C7    A    
C14   C15   D    
C6    C8    A    
C1    C14   S    
C2    C19   A    
Cu1   O5    S    
Cu2   N1    S    
Cu2   O6    S    
Cu1   N2    S    
C3    C5    A    
