data_mof_unit_59438.cif
_audit_creation_date              2012-12-10T18:23:54-0500
_audit_creation_method            fapswitch 2.2
_symmetry_space_group_name_H-M    P1
_symmetry_Int_Tables_number       1
_space_group_crystal_system       triclinic
_cell_length_a                    22.350714
_cell_length_b                    22.565361
_cell_length_c                    14.652112
_cell_angle_alpha                 89.99204
_cell_angle_beta                  89.990485
_cell_angle_gamma                 90.001219
_cell_volume                      7389.82079114

loop_
_atom_site_label
_atom_site_type_symbol
_atom_type_description
_atom_site_fract_x
_atom_site_fract_y
_atom_site_fract_z
_atom_type_partial_charge
C1    C     C_R   0.419573 0.919888 0.499996 0.820835
C2    C     C_R   0.580426 0.080113 0.500004 0.820825
C3    C     C_R   0.580428 0.919888 0.500012 0.820816
C4    C     C_R   0.419575 0.080114 0.499988 0.820802
C5    C     C_R   0.919574 0.419886 0.499996 0.820826
C6    C     C_R   0.080427 0.580112 0.500004 0.820835
C7    C     C_R   0.080425 0.419885 0.500012 0.820801
C8    C     C_R   0.919572 0.580111 0.499988 0.820815
C9    C     C_1   0.336801 0.162420 0.500000 0.007039
C10   C     C_1   0.663211 0.837592 0.499993 0.007038
C11   C     C_1   0.663200 0.162418 0.499984 0.006969
C12   C     C_1   0.336792 0.837589 0.500012 0.006948
C13   C     C_1   0.836789 0.662408 0.500006 0.007039
C14   C     C_1   0.163198 0.337579 0.500002 0.007041
C15   C     C_1   0.163207 0.662411 0.499987 0.006949
C16   C     C_1   0.836800 0.337582 0.500016 0.006968
C17   C     C_1   0.499988 0.000002 0.194380 0.324221
C18   C     C_1   0.500011 0.999998 0.805620 0.324514
C19   C     C_1   0.999989 0.500002 0.194380 0.324515
C20   C     C_1   0.000011 0.499998 0.805620 0.324221
C21   C     C_3   0.534799 0.044484 0.969870 0.257441
C22   C     C_3   0.465198 0.955516 0.030130 0.257377
C23   C     C_3   0.478508 0.052094 0.030096 0.258102
C24   C     C_3   0.521490 0.947906 0.969904 0.258167
C25   C     C_3   0.034495 0.544717 0.969868 0.257373
C26   C     C_3   0.965508 0.455282 0.030131 0.257437
C27   C     C_3   0.978153 0.551948 0.030096 0.258169
C28   C     C_3   0.021850 0.448052 0.969903 0.258103
C29   C     C_3   0.714473 0.743255 0.574354 -0.300775
C30   C     C_3   0.284170 0.255444 0.423927 -0.301733
C31   C     C_3   0.282337 0.746358 0.421824 -0.303169
C32   C     C_3   0.716433 0.254838 0.576796 -0.302494
C33   C     C_3   0.215830 0.244556 0.576076 -0.301708
C34   C     C_3   0.785527 0.756745 0.425645 -0.300745
C35   C     C_3   0.783568 0.245162 0.423204 -0.302516
C36   C     C_3   0.217663 0.753641 0.578175 -0.303191
C37   C     C_3   0.223816 0.197739 0.500387 0.545057
C38   C     C_3   0.776171 0.802233 0.502872 0.545047
C39   C     C_3   0.776173 0.197749 0.498175 0.545358
C40   C     C_3   0.223871 0.802197 0.504699 0.545371
C41   C     C_3   0.723828 0.697767 0.497126 0.545051
C42   C     C_3   0.276184 0.302261 0.499617 0.545060
C43   C     C_3   0.276128 0.697803 0.495300 0.545368
C44   C     C_3   0.723827 0.302251 0.501825 0.545357
C45   C     C_1   0.374572 0.124727 0.499996 -0.161577
C46   C     C_1   0.625436 0.875282 0.500004 -0.161576
C47   C     C_1   0.625429 0.124724 0.499984 -0.161531
C48   C     C_1   0.374566 0.875281 0.500018 -0.161536
C49   C     C_1   0.874564 0.624718 0.499995 -0.161577
C50   C     C_1   0.125427 0.375273 0.500005 -0.161578
C51   C     C_1   0.125434 0.624719 0.499982 -0.161536
C52   C     C_1   0.874571 0.375275 0.500016 -0.161530
C53   C     C_3   0.284476 0.255743 0.575681 -0.303061
C54   C     C_3   0.716902 0.745596 0.422683 -0.303874
C55   C     C_3   0.714931 0.256338 0.425073 -0.302915
C56   C     C_3   0.286248 0.742527 0.573350 -0.302284
C57   C     C_3   0.783097 0.754403 0.577315 -0.303904
C58   C     C_3   0.215524 0.244257 0.424322 -0.303088
C59   C     C_3   0.213752 0.757473 0.426648 -0.302264
C60   C     C_3   0.785069 0.243662 0.574927 -0.302895
C61   C     C_3   0.291359 0.208518 0.500000 0.069218
C62   C     C_3   0.708651 0.791492 0.499968 0.069153
C63   C     C_3   0.708641 0.208517 0.500007 0.069357
C64   C     C_3   0.291353 0.791489 0.499968 0.069362
C65   C     C_3   0.791349 0.708508 0.500031 0.069158
C66   C     C_3   0.208641 0.291482 0.500003 0.069224
C67   C     C_3   0.208647 0.708511 0.500031 0.069368
C68   C     C_3   0.791359 0.291482 0.499993 0.069361
C69   C     C_3   0.556291 0.992392 0.030093 0.258111
C70   C     C_3   0.443706 0.007608 0.969907 0.258156
C71   C     C_3   0.056345 0.492773 0.030092 0.258155
C72   C     C_3   0.943658 0.507227 0.969908 0.258109
C73   C     C_3   0.499999 0.000003 0.092051 -0.227658
C74   C     C_3   0.499999 0.999997 0.907949 -0.227748
C75   C     C_3   0.000002 0.500004 0.092051 -0.227742
C76   C     C_3   0.000000 0.499997 0.907948 -0.227652
Cu1   Cu    Cu3+1 0.500000 0.000000 0.590220 1.005578
Cu2   Cu    Cu3+1 0.500000 0.000000 0.409780 1.005041
Cu3   Cu    Cu3+1 0.000000 0.500000 0.590220 1.005041
Cu4   Cu    Cu3+1 1.000000 0.500000 0.409780 1.005578
H1    H     H_    0.684571 0.738079 0.634323 0.151780
H2    H     H_    0.312957 0.259544 0.362511 0.151631
H3    H     H_    0.309625 0.743747 0.358647 0.151170
H4    H     H_    0.688140 0.258431 0.638819 0.151281
H5    H     H_    0.187043 0.240456 0.637493 0.151635
H6    H     H_    0.815429 0.761921 0.365675 0.151782
H7    H     H_    0.811860 0.241569 0.361181 0.151276
H8    H     H_    0.190375 0.756252 0.641351 0.151162
H9    H     H_    0.688993 0.742353 0.360226 0.149628
H10   H     H_    0.313511 0.260091 0.636768 0.149776
H11   H     H_    0.316739 0.736752 0.632479 0.150110
H12   H     H_    0.685405 0.261179 0.364621 0.149939
H13   H     H_    0.186489 0.239909 0.363235 0.149761
H14   H     H_    0.811007 0.757647 0.639773 0.149610
H15   H     H_    0.814595 0.238821 0.635379 0.149929
H16   H     H_    0.183261 0.763248 0.367520 0.150100
N1    N     N_1   0.499980 0.000000 0.274190 -0.163698
N2    N     N_1   0.500020 0.000000 0.725810 -0.163616
N3    N     N_1   0.999980 0.500000 0.274190 -0.163616
N4    N     N_1   0.000020 0.500000 0.725810 -0.163698
O1    O     O_R   0.439540 0.939530 0.576170 -0.569780
O2    O     O_R   0.560460 0.060470 0.423830 -0.570034
O3    O     O_R   0.560460 0.939530 0.423830 -0.570032
O4    O     O_R   0.439540 0.060470 0.576170 -0.569762
O5    O     O_R   0.939540 0.439530 0.576170 -0.570028
O6    O     O_R   0.060460 0.560470 0.423830 -0.569775
O7    O     O_R   0.060460 0.439530 0.423830 -0.569776
O8    O     O_R   0.939540 0.560470 0.576170 -0.570046
O9    O     O_R   0.439530 0.939530 0.423800 -0.568993
O10   O     O_R   0.560470 0.060470 0.576200 -0.568747
O11   O     O_R   0.560470 0.939530 0.576200 -0.568752
O12   O     O_R   0.439530 0.060470 0.423800 -0.569024
O13   O     O_R   0.939530 0.439530 0.423800 -0.568752
O14   O     O_R   0.060470 0.560470 0.576200 -0.568998
O15   O     O_R   0.060470 0.439530 0.576200 -0.569009
O16   O     O_R   0.939530 0.560470 0.423800 -0.568737
O17   O     O_3   0.385847 0.014939 0.932739 -0.586248
C77   C     C_3   0.343747 0.024663 0.003162 0.083003
H17   H     H_    0.348758 0.069741 0.032176 0.184403
H18   H     H_    0.348014 0.991871 0.059468 0.177437
C78   C     C_3   0.280990 0.019675 0.963869 -0.812428
H19   H     H_    0.273892 0.974679 0.935152 0.247652
H20   H     H_    0.247429 0.027636 0.018400 0.204922
H21   H     H_    0.274639 0.053075 0.909028 0.258506
O18   O     O_3   0.614152 0.985061 0.067255 -0.586383
C79   C     C_3   0.656248 0.975337 0.996825 0.083059
H22   H     H_    0.651977 0.008128 0.940518 0.177545
H23   H     H_    0.651237 0.930257 0.967814 0.184467
C80   C     C_3   0.719008 0.980328 0.036108 -0.812572
H24   H     H_    0.725364 0.946928 0.090949 0.258390
H25   H     H_    0.752565 0.972367 0.981572 0.205020
H26   H     H_    0.726106 0.025324 0.064822 0.247614
O19   O     O_3   0.885747 0.514168 0.932747 -0.586384
C81   C     C_3   0.843588 0.523606 0.003179 0.083061
H27   H     H_    0.848285 0.568719 0.032187 0.184474
H28   H     H_    0.848088 0.490846 0.059489 0.177542
C82   C     C_3   0.780864 0.518185 0.963899 -0.812554
H29   H     H_    0.774080 0.473140 0.935184 0.247599
H30   H     H_    0.747253 0.525915 0.018438 0.205027
H31   H     H_    0.774274 0.551541 0.909059 0.258406
O20   O     O_3   0.114253 0.485832 0.067259 -0.586249
C83   C     C_3   0.156417 0.476395 0.996833 0.083005
H32   H     H_    0.151921 0.509155 0.940525 0.177434
H33   H     H_    0.151720 0.431282 0.967822 0.184411
C84   C     C_3   0.219139 0.481813 0.036124 -0.812410
H34   H     H_    0.225724 0.448455 0.090963 0.258520
H35   H     H_    0.252752 0.474082 0.981590 0.204929
H36   H     H_    0.225922 0.526856 0.064842 0.247637
O21   O     O_3   0.199674 0.139978 0.500778 -0.566932
C85   C     C_3   0.136657 0.143367 0.501121 0.067089
H37   H     H_    0.119912 0.166519 0.439089 0.134514
H38   H     H_    0.120205 0.166687 0.563183 0.135613
C86   C     C_3   0.110913 0.081017 0.501482 -0.777616
H39   H     H_    0.126179 0.056869 0.563266 0.253443
H40   H     H_    0.061273 0.083059 0.501794 0.189461
H41   H     H_    0.125856 0.056708 0.439662 0.251552
O22   O     O_3   0.800314 0.859963 0.505714 -0.566936
C87   C     C_3   0.863291 0.856515 0.508955 0.067016
H42   H     H_    0.881298 0.833376 0.447734 0.135103
H43   H     H_    0.878419 0.833148 0.571749 0.134991
C88   C     C_3   0.889070 0.918839 0.510567 -0.777770
H44   H     H_    0.872532 0.943008 0.571569 0.251812
H45   H     H_    0.938676 0.916751 0.513269 0.189515
H46   H     H_    0.875453 0.943150 0.448044 0.253179
O23   O     O_3   0.800308 0.139999 0.496381 -0.566896
C89   C     C_3   0.863313 0.143413 0.494280 0.067209
H47   H     H_    0.880821 0.166625 0.555766 0.134580
H48   H     H_    0.878976 0.166695 0.431701 0.135697
C90   C     C_3   0.889072 0.081077 0.493335 -0.777400
H49   H     H_    0.873044 0.056844 0.432074 0.252509
H50   H     H_    0.938701 0.083145 0.491589 0.189412
H51   H     H_    0.874909 0.056831 0.555651 0.252563
O24   O     O_3   0.199771 0.859892 0.509368 -0.566916
C91   C     C_3   0.136846 0.856398 0.514471 0.067161
H52   H     H_    0.122555 0.832820 0.577543 0.136113
H53   H     H_    0.118050 0.833440 0.453642 0.134257
C92   C     C_3   0.111064 0.918700 0.517333 -0.777414
H54   H     H_    0.123852 0.943207 0.454573 0.252362
H55   H     H_    0.061502 0.916571 0.521547 0.189424
H56   H     H_    0.128385 0.942702 0.577984 0.252710
O25   O     O_3   0.699686 0.640037 0.494284 -0.566935
C93   C     C_3   0.636709 0.643485 0.491046 0.067016
H57   H     H_    0.621579 0.666851 0.428251 0.134991
H58   H     H_    0.618703 0.666624 0.552266 0.135109
C94   C     C_3   0.610930 0.581161 0.489436 -0.777776
H59   H     H_    0.624548 0.556850 0.551959 0.253179
H60   H     H_    0.561323 0.583248 0.486738 0.189514
H61   H     H_    0.627466 0.556991 0.428434 0.251812
O26   O     O_3   0.300326 0.360022 0.499224 -0.566932
C95   C     C_3   0.363343 0.356634 0.498886 0.067090
H62   H     H_    0.379796 0.333311 0.436828 0.135618
H63   H     H_    0.380086 0.333484 0.560921 0.134513
C96   C     C_3   0.389086 0.418983 0.498521 -0.777620
H64   H     H_    0.374141 0.443296 0.560336 0.251552
H65   H     H_    0.438727 0.416941 0.498214 0.189460
H66   H     H_    0.373823 0.443129 0.436733 0.253439
O27   O     O_3   0.300228 0.640107 0.490630 -0.566912
C97   C     C_3   0.363154 0.643602 0.485530 0.067168
H67   H     H_    0.381949 0.666558 0.546362 0.134259
H68   H     H_    0.377446 0.667182 0.422460 0.136100
C98   C     C_3   0.388936 0.581300 0.482665 -0.777410
H69   H     H_    0.371615 0.557299 0.422011 0.252711
H70   H     H_    0.438498 0.583430 0.478452 0.189422
H71   H     H_    0.376147 0.556791 0.545423 0.252356
O28   O     O_3   0.699692 0.360001 0.503619 -0.566894
C99   C     C_3   0.636687 0.356586 0.505719 0.067210
H72   H     H_    0.621023 0.333304 0.568298 0.135688
H73   H     H_    0.619180 0.333374 0.444233 0.134585
C100  C     C_3   0.610927 0.418922 0.506664 -0.777402
H74   H     H_    0.625091 0.443168 0.444347 0.252560
H75   H     H_    0.561298 0.416854 0.508409 0.189410
H76   H     H_    0.626955 0.443155 0.567924 0.252512
O29   O     O_3   0.455981 0.105390 0.067270 -0.587223
C101  C     C_3   0.443402 0.146359 0.996851 0.083380
H77   H     H_    0.417004 0.126257 0.940445 0.176561
H78   H     H_    0.485315 0.164732 0.967973 0.182726
C102  C     C_3   0.407445 0.197573 0.036098 -0.824805
H79   H     H_    0.433329 0.219786 0.091018 0.254908
H80   H     H_    0.397587 0.230330 0.981567 0.204356
H81   H     H_    0.364570 0.181026 0.064707 0.247669
O30   O     O_3   0.544016 0.894609 0.932735 -0.587090
C103  C     C_3   0.556594 0.853642 0.003159 0.083178
H82   H     H_    0.514682 0.835269 0.032036 0.182684
H83   H     H_    0.582992 0.873746 0.059563 0.176450
C104  C     C_3   0.592554 0.802427 0.963919 -0.824458
H84   H     H_    0.635429 0.818975 0.935310 0.247761
H85   H     H_    0.602412 0.769674 0.018454 0.204144
H86   H     H_    0.566672 0.780211 0.908999 0.255072
O31   O     O_3   0.570128 0.090451 0.932638 -0.587176
C105  C     C_3   0.599708 0.121710 0.003004 0.085772
H87   H     H_    0.636549 0.094834 0.032142 0.184707
H88   H     H_    0.568892 0.134554 0.059234 0.175274
C106  C     C_3   0.626864 0.177948 0.963578 -0.824506
H89   H     H_    0.591142 0.206585 0.934770 0.245003
H90   H     H_    0.650647 0.202752 0.018056 0.205183
H91   H     H_    0.659234 0.166586 0.908776 0.257878
O32   O     O_3   0.429870 0.909550 0.067366 -0.587306
C107  C     C_3   0.400289 0.878289 0.997003 0.085972
H92   H     H_    0.431106 0.865442 0.940774 0.175374
H93   H     H_    0.363449 0.905164 0.967862 0.184745
C108  C     C_3   0.373132 0.822052 0.036435 -0.824846
H94   H     H_    0.340763 0.833417 0.091236 0.257705
H95   H     H_    0.349349 0.797246 0.981960 0.205372
H96   H     H_    0.408854 0.793416 0.065245 0.244924
O33   O     O_3   0.955260 0.605091 0.067265 -0.587083
C109  C     C_3   0.942400 0.645970 0.996841 0.083148
H97   H     H_    0.916135 0.625689 0.940443 0.176472
H98   H     H_    0.984185 0.664621 0.967954 0.182689
C110  C     C_3   0.906097 0.696945 0.036086 -0.824363
H99   H     H_    0.931834 0.719335 0.090997 0.255065
H100  H     H_    0.896011 0.729630 0.981549 0.204142
H101  H     H_    0.863339 0.680112 0.064707 0.247791
O34   O     O_3   0.044743 0.394910 0.932729 -0.587217
C111  C     C_3   0.057603 0.354028 0.003148 0.083350
H102  H     H_    0.015818 0.335377 0.032034 0.182730
H103  H     H_    0.083869 0.374307 0.059548 0.176583
C112  C     C_3   0.093905 0.303055 0.963897 -0.824713
H104  H     H_    0.136663 0.319889 0.935275 0.247699
H105  H     H_    0.103991 0.270367 0.018429 0.204356
H106  H     H_    0.068167 0.280668 0.908983 0.254900
O35   O     O_3   0.069506 0.590920 0.932632 -0.587317
C113  C     C_3   0.098870 0.622381 0.002995 0.085958
H107  H     H_    0.135895 0.595755 0.032134 0.184738
H108  H     H_    0.067966 0.635017 0.059225 0.175369
C114  C     C_3   0.125636 0.678800 0.963562 -0.824936
H109  H     H_    0.089716 0.707192 0.934753 0.244933
H110  H     H_    0.149248 0.703766 0.018037 0.205369
H111  H     H_    0.158082 0.667654 0.908760 0.257671
O36   O     O_3   0.930497 0.409078 0.067364 -0.587186
C115  C     C_3   0.901133 0.377621 0.996998 0.085759
H112  H     H_    0.932037 0.364986 0.940767 0.175268
H113  H     H_    0.864108 0.404247 0.967862 0.184699
C116  C     C_3   0.874366 0.321200 0.036426 -0.824596
H114  H     H_    0.841920 0.332344 0.091228 0.257845
H115  H     H_    0.850755 0.296236 0.981949 0.205179
H116  H     H_    0.910286 0.292807 0.065234 0.245012

loop_
_geom_bond_atom_site_label_1
_geom_bond_atom_site_label_2
_ccdc_geom_bond_type
C89   H48   S    
C9    C45   T    
O23   C89   S    
O19   C81   S    
Cu3   O15   S    
Cu2   O2    S    
O17   C77   S    
C26   C72   S    
C98   H69   S    
Cu1   O1    S    
O35   C113  S    
C23   C70   S    
Cu2   O9    S    
C72   C76   S    
C112  H106  S    
C100  H76   S    
C113  C114  S    
C88   H44   S    
C98   H70   S    
C36   C67   S    
C29   C41   S    
C5    O5    A    
O25   C93   S    
C36   H8    S    
C102  H81   S    
C80   H25   S    
C96   H64   S    
C82   H30   S    
Cu4   O7    S    
C20   C76   S    
C110  H99   S    
O31   C105  S    
O18   C79   S    
C31   C43   S    
C9    C61   S    
C58   H13   S    
C104  H84   S    
C108  H94   S    
C104  H85   S    
C11   C63   S    
C27   O33   S    
C42   C53   S    
C23   O29   S    
C40   O24   S    
C12   C64   S    
C101  H78   S    
C94   H60   S    
C2    O2    A    
C70   O17   S    
C7    O15   A    
C26   O36   S    
Cu4   O6    S    
C104  H86   S    
C31   H3    S    
Cu3   O5    S    
C105  C106  S    
C112  H104  S    
C34   H6    S    
C31   C59   S    
Cu1   O11   S    
C33   H5    S    
C77   H17   S    
C6    O14   A    
C78   H21   S    
C111  H103  S    
C95   C96   S    
C59   C67   S    
C29   C62   S    
C35   H7    S    
C58   C66   S    
C56   H11   S    
C2    O10   A    
C94   H59   S    
Cu4   O16   S    
C3    O11   A    
C96   H65   S    
C85   C86   S    
C55   C63   S    
C70   C74   S    
C79   H23   S    
C24   O30   S    
C56   C64   S    
C5    C52   S    
C69   C73   S    
C97   H67   S    
C25   C71   S    
C15   C51   T    
C6    C51   S    
C86   H40   S    
C106  H89   S    
C109  H97   S    
C113  H107  S    
C37   C58   S    
C87   C88   S    
C12   C48   T    
C71   O20   S    
C22   O32   S    
C1    O9    A    
C96   H66   S    
C11   C47   T    
C4    O12   A    
C69   O18   S    
C18   C74   S    
C40   C59   S    
O24   C91   S    
O36   C115  S    
C17   C73   S    
C90   H50   S    
C83   C84   S    
C41   O25   S    
C109  C110  S    
C10   C62   S    
C53   C61   S    
C23   C73   S    
C14   C50   T    
C27   C75   S    
C8    O8    A    
C34   C65   S    
C8    C49   S    
C88   H45   S    
C24   C69   S    
C84   H34   S    
C107  H93   S    
C4    C45   S    
C33   C53   S    
C32   H4    S    
C82   H31   S    
C109  H98   S    
C110  H100  S    
C83   H32   S    
C84   H35   S    
C35   C55   S    
C90   H49   S    
C15   C67   S    
Cu3   N4    S    
C36   C40   S    
C99   C100  S    
C28   O34   S    
C32   C63   S    
C54   H9    S    
C100  H74   S    
C37   O21   S    
O33   C109  S    
C19   N3    T    
C99   H72   S    
C94   H61   S    
C113  H108  S    
C54   C62   S    
C103  C104  S    
C92   H55   S    
C102  H79   S    
Cu1   Cu2   S    
C21   C74   S    
C105  H87   S    
C33   C37   S    
O22   C87   S    
C21   C69   S    
C108  H95   S    
C77   C78   S    
C34   C38   S    
C87   H42   S    
C39   O23   S    
C35   C39   S    
C95   H62   S    
C29   H1    S    
C55   H12   S    
C36   C56   S    
C85   H38   S    
C38   C57   S    
C25   O35   S    
C43   C56   S    
O30   C103  S    
C107  C108  S    
O29   C101  S    
C92   H56   S    
C21   O31   S    
C33   C66   S    
Cu2   N1    S    
C115  H113  S    
C116  H114  S    
C6    O6    A    
Cu1   N2    S    
C43   O27   S    
C14   C66   S    
C81   C82   S    
C105  H88   S    
C114  H110  S    
C91   C92   S    
C114  H111  S    
C78   H19   S    
C13   C49   T    
C89   C90   S    
C16   C68   S    
C116  H116  S    
C43   C67   S    
C29   C57   S    
C34   C54   S    
C57   H14   S    
C21   C23   S    
Cu4   N3    S    
C89   H47   S    
C98   H71   S    
C22   C24   S    
C44   C68   S    
C28   C71   S    
C102  H80   S    
C59   H16   S    
C32   C60   S    
C28   C76   S    
C1    O1    A    
C10   C46   T    
C53   H10   S    
C88   H46   S    
C22   C70   S    
C84   H36   S    
C42   C66   S    
C80   H24   S    
C114  H109  S    
C3    O3    A    
O26   C95   S    
O28   C99   S    
C107  H92   S    
O27   C97   S    
C110  H101  S    
C95   H63   S    
C30   H2    S    
C93   H58   S    
C5    O13   A    
C103  H83   S    
C101  H77   S    
C31   C64   S    
C16   C52   T    
C38   O22   S    
C57   C65   S    
C97   H68   S    
C101  C102  S    
C40   C64   S    
C37   C61   S    
O32   C107  S    
C1    C48   S    
C81   H27   S    
C2    C47   S    
C25   C27   S    
C39   C63   S    
C82   H29   S    
C3    C46   S    
C26   C28   S    
C79   C80   S    
C108  H96   S    
C80   H26   S    
C111  H102  S    
C19   C75   S    
C20   N4    T    
O21   C85   S    
C71   C75   S    
C87   H43   S    
C44   C55   S    
C24   C74   S    
C72   O19   S    
O34   C111  S    
Cu3   O14   S    
C35   C68   S    
C79   H22   S    
Cu2   O3    S    
C39   C60   S    
C30   C58   S    
C86   H41   S    
C44   O28   S    
C116  H115  S    
C91   H53   S    
C81   H28   S    
Cu3   O8    S    
C4    O4    A    
C97   C98   S    
C7    O7    A    
C41   C65   S    
Cu1   O10   S    
C13   C65   S    
C106  H91   S    
C77   H18   S    
C41   C54   S    
C78   H20   S    
C115  C116  S    
C60   C68   S    
C8    O16   A    
Cu3   Cu4   S    
C60   H15   S    
C111  C112  S    
Cu4   O13   S    
C32   C44   S    
C25   C76   S    
C26   C75   S    
C92   H54   S    
C30   C61   S    
C106  H90   S    
C7    C50   S    
C42   O26   S    
C100  H75   S    
C115  H112  S    
C30   C42   S    
Cu1   O4    S    
Cu2   O12   S    
C90   H51   S    
C18   N2    T    
C22   C73   S    
C112  H105  S    
C86   H39   S    
O20   C83   S    
C99   H73   S    
C17   N1    T    
C103  H82   S    
C93   C94   S    
C83   H33   S    
C27   C72   S    
C93   H57   S    
C85   H37   S    
C38   C62   S    
C91   H52   S    
