data_mof_unit_8619.cif
_audit_creation_date              2012-10-26T21:15:27-0400
_audit_creation_method            fapswitch 2.2
_symmetry_space_group_name_H-M    P1
_symmetry_Int_Tables_number       1
_space_group_crystal_system       triclinic
_cell_length_a                    10.637757
_cell_length_b                    10.941209
_cell_length_c                    9.696479
_cell_angle_alpha                 89.167365
_cell_angle_beta                  90.166327
_cell_angle_gamma                 90.417335
_cell_volume                      1128.41892339

loop_
_atom_site_label
_atom_site_type_symbol
_atom_type_description
_atom_site_fract_x
_atom_site_fract_y
_atom_site_fract_z
_atom_type_partial_charge
C1    C     C_R   0.503843 0.265662 0.501068 0.541552
C2    C     C_2   0.424254 0.432340 0.078658 -0.015764
C3    C     C_R   0.259461 0.497739 0.499770 0.552498
C4    C     C_R   0.497225 0.734609 0.498909 0.576808
C5    C     C_R   0.740627 0.500884 0.500128 0.566531
C6    C     C_3   0.041300 0.430826 0.609122 -0.153145
C7    C     C_3   0.955827 0.381868 0.491779 -0.161440
C8    C     C_3   0.877354 0.499705 0.499823 0.021435
C9    C     C_3   0.961905 0.547733 0.614779 0.279813
C10   C     C_3   0.044286 0.614328 0.507032 -0.160724
C11   C     C_3   0.012774 0.625282 0.827219 0.000109
C12   C     C_3   0.959073 0.565291 0.389769 -0.147998
C13   C     C_3   0.963224 0.698193 0.947263 -0.382030
C14   C     C_3   0.992803 0.368577 0.171151 -0.002387
C15   C     C_3   0.047612 0.300580 0.049779 -0.383193
C16   C     C_3   0.695591 0.955744 0.237279 -0.009360
C17   C     C_3   0.783630 0.879327 0.151464 -0.371523
C18   C     C_3   0.283412 0.876003 0.594485 -0.014653
C19   C     C_3   0.202278 0.952290 0.688677 -0.374546
C20   C     C_3   0.038642 0.448516 0.384221 0.279006
C21   C     C_3   0.122842 0.496832 0.499420 0.021560
C22   C     C_2   0.532130 0.936122 0.395251 0.238722
C23   C     C_2   0.478781 0.866523 0.496057 0.267261
C24   C     C_2   0.508485 0.068671 0.391531 -0.146644
C25   C     C_2   0.520610 0.134980 0.505173 -0.122475
C26   C     C_2   0.422425 0.434371 0.922920 -0.026167
Cu1   Cu    Cu3+1 0.500030 0.500020 0.638630 0.958280
Cu2   Cu    Cu3+1 0.499970 0.499980 0.361370 0.967145
H1    H     H_    0.916769 0.287868 0.483624 0.097925
H2    H     H_    0.487055 0.111805 0.292696 0.133775
H3    H     H_    0.089533 0.679595 0.777299 0.125429
H4    H     H_    0.051556 0.538158 0.868814 0.131870
H5    H     H_    0.884958 0.647651 0.998513 0.147970
H6    H     H_    0.039519 0.713546 0.023634 0.105453
H7    H     H_    0.928637 0.788068 0.909127 0.151796
H8    H     H_    0.949620 0.454337 0.131121 0.132940
H9    H     H_    0.918846 0.309526 0.219381 0.126584
H10   H     H_    0.087020 0.211895 0.085664 0.149781
H11   H     H_    0.972964 0.282967 0.972108 0.103544
H12   H     H_    0.548597 0.093312 0.602780 0.154296
H13   H     H_    0.123582 0.355932 0.000719 0.136825
H14   H     H_    0.751673 0.997444 0.322070 0.123038
H15   H     H_    0.656235 0.028767 0.169244 0.134491
H16   H     H_    0.730935 0.837023 0.065135 0.164784
H17   H     H_    0.860019 0.938087 0.108545 0.087924
H18   H     H_    0.825880 0.806205 0.216706 0.150758
H19   H     H_    0.277796 0.779311 0.631047 0.145843
H20   H     H_    0.244284 0.883601 0.487867 0.115818
H21   H     H_    0.205089 0.049661 0.654635 0.161107
H22   H     H_    0.103500 0.918848 0.685093 0.094434
H23   H     H_    0.352917 0.377389 0.872268 0.131246
H24   H     H_    0.237181 0.944943 0.796527 0.161668
H25   H     H_    0.566495 0.551009 0.893295 0.217657
H26   H     H_    0.358183 0.371581 0.130780 0.165438
H27   H     H_    0.559605 0.558489 0.105290 0.212503
H28   H     H_    0.077743 0.376867 0.698279 0.100357
H29   H     H_    0.081567 0.708847 0.514429 0.084558
H30   H     H_    0.923196 0.618494 0.299934 0.100677
N1    N     N_2   0.498620 0.498660 0.846910 -0.343222
N2    N     N_2   0.498590 0.498630 0.153040 -0.347388
O1    O     O_R   0.500020 0.321960 0.617040 -0.497185
O2    O     O_3   0.089925 0.395191 0.265507 -0.544394
O3    O     O_3   0.598167 0.879914 0.289572 -0.556861
O4    O     O_3   0.408649 0.919493 0.599978 -0.597781
O5    O     O_R   0.499980 0.321920 0.382900 -0.501921
O6    O     O_R   0.316870 0.499990 0.617050 -0.529733
O7    O     O_R   0.316830 0.499950 0.382910 -0.458512
O8    O     O_R   0.500020 0.678080 0.617100 -0.490857
O9    O     O_R   0.499980 0.678040 0.382960 -0.467648
O10   O     O_R   0.683170 0.500050 0.617090 -0.457464
O11   O     O_R   0.683130 0.500010 0.382950 -0.519487
O12   O     O_3   0.913405 0.601763 0.734418 -0.536711

loop_
_geom_bond_atom_site_label_1
_geom_bond_atom_site_label_2
_ccdc_geom_bond_type
C10   C21   S    
C5    C8    S    
C1    O5    A    
C17   H18   S    
C15   H10   S    
C13   H5    S    
C6    C7    S    
C7    H1    S    
C16   O3    S    
C26   N1    D    
C18   H20   S    
C9    C10   S    
C19   H21   S    
Cu2   O9    S    
C16   H15   S    
C9    O12   S    
C8    C12   S    
C12   H30   S    
C18   H19   S    
C12   C20   S    
C6    C9    S    
Cu2   O5    S    
H25   N1    S    
C17   H16   S    
C11   H3    S    
C13   H6    S    
C5    O11   A    
Cu1   O6    S    
Cu1   N1    S    
C26   H23   S    
C20   C21   S    
C14   H9    S    
C1    C25   S    
C11   C13   S    
C19   H22   S    
C18   O4    S    
C5    O10   A    
Cu1   O10   S    
C10   C12   S    
Cu2   O11   S    
C4    O9    A    
C11   O12   S    
C17   H17   S    
C11   H4    S    
C13   H7    S    
C22   C24   S    
C10   H29   S    
Cu2   N2    S    
C25   H12   S    
C20   O2    S    
C14   C15   S    
C2    N2    D    
C3    C21   S    
C24   H2    S    
C16   C17   S    
C3    O6    A    
C16   H14   S    
C7    C8    S    
Cu2   O7    S    
C24   C25   D    
C15   H13   S    
C2    C26   S    
C18   C19   S    
C2    H26   S    
Cu1   Cu2   S    
C4    O8    A    
C4    C23   S    
C22   C23   D    
C23   O4    S    
C14   H8    S    
Cu1   O8    S    
Cu1   O1    S    
C14   O2    S    
C22   O3    S    
H27   N2    S    
C6    C21   S    
C19   H24   S    
C7    C20   S    
C3    O7    A    
C15   H11   S    
C6    H28   S    
C8    C9    S    
C1    O1    A    
