data_mof_unit_5180.cif
_audit_creation_date              2012-12-11T17:07:27-0500
_audit_creation_method            fapswitch 2.2
_symmetry_space_group_name_H-M    P1
_symmetry_Int_Tables_number       1
_space_group_crystal_system       triclinic
_cell_length_a                    6.951486
_cell_length_b                    14.666154
_cell_length_c                    15.97386
_cell_angle_alpha                 90.025919
_cell_angle_beta                  89.92971
_cell_angle_gamma                 90.286278
_cell_volume                      1628.53829733

loop_
_atom_site_label
_atom_site_type_symbol
_atom_type_description
_atom_site_fract_x
_atom_site_fract_y
_atom_site_fract_z
_atom_type_partial_charge
O1    O     O_R   0.505720 0.583900 0.413310 -0.543075
O2    O     O_R   0.175940 0.594920 0.586080 -0.518692
O3    O     O_R   0.005640 0.416100 0.586690 -0.532512
C1    C     C_R   0.345546 0.616887 0.614808 0.744046
O4    O     O_R   0.176000 0.594930 0.413930 -0.548917
O5    O     O_R   0.005700 0.416110 0.413310 -0.549434
C2    C     C_R   0.345057 0.616668 0.384889 0.675213
O6    O     O_R   0.505660 0.583890 0.586690 -0.518576
O7    O     O_3   0.339200 0.441330 0.500000 -0.378738
V1    V     V_3+5 0.064350 0.510880 0.500000 1.506913
O8    O     O_R   0.675980 0.405080 0.413920 -0.544853
C3    C     C_R   0.844957 0.383183 0.384991 0.666856
O9    O     O_R   0.675920 0.405070 0.586070 -0.548734
C4    C     C_R   0.843572 0.384301 0.615654 0.735090
V2    V     V_3+5 0.564340 0.489120 0.500000 1.487390
O10   O     O_3   0.839360 0.558670 0.500000 -0.349548
C5    C     C_R   0.635685 0.405952 0.773511 -0.267248
C6    C     C_R   0.551846 0.423498 0.851087 0.608513
C7    C     C_R   0.583458 0.364853 0.917759 0.590991
C8    C     C_R   0.694198 0.286962 0.906457 -0.334387
C9    C     C_R   0.776281 0.265753 0.827477 -0.028701
C10   C     C_R   0.753524 0.328703 0.760493 -0.006698
C11   C     C_R   0.881697 0.184118 0.815259 -0.098774
C12   C     C_R   0.970328 0.167025 0.736036 -0.039252
C13   C     C_R   0.955250 0.232711 0.670506 -0.084559
C14   C     C_R   0.850220 0.314221 0.683136 -0.058847
C15   C     C_R   0.070465 0.084804 0.718707 0.498467
C16   C     C_R   0.155618 0.069322 0.641050 -0.246211
C17   C     C_R   0.140355 0.133288 0.577735 0.599775
C18   C     C_R   0.039570 0.213431 0.591572 -0.249085
H1    H     H_    0.605702 0.453891 0.724252 0.199764
H2    H     H_    0.715895 0.244353 0.960795 0.155456
H3    H     H_    0.231479 0.006201 0.629578 0.173443
H4    H     H_    0.025621 0.258828 0.538714 0.151938
C19   C     C_R   0.727365 0.183138 0.241744 0.114205
C20   C     C_R   0.882037 0.182702 0.185373 -0.102179
C21   C     C_R   0.033663 0.244558 0.200568 -0.150080
H5    H     H_    0.156266 0.246733 0.158980 0.148733
C22   C     C_R   0.022358 0.308678 0.266120 -0.154500
H6    H     H_    0.137235 0.358048 0.273215 0.125890
C23   C     C_R   0.858750 0.313133 0.318254 -0.100844
C24   C     C_R   0.715757 0.246811 0.306397 0.133966
C25   C     C_3   0.504818 0.258466 0.294397 -0.402110
C26   C     C_3   0.517362 0.188766 0.224243 -0.398752
H7    H     H_    0.468775 0.328071 0.272092 0.169511
H8    H     H_    0.420444 0.234027 0.349202 0.217206
H9    H     H_    0.487913 0.217716 0.161265 0.194242
H10   H     H_    0.440933 0.123865 0.238623 0.180640
C27   C     C_R   0.496552 0.677115 0.747521 0.092695
C28   C     C_R   0.355878 0.682985 0.684820 -0.108266
C29   C     C_R   0.213156 0.749559 0.695025 -0.141434
H11   H     H_    0.101692 0.756617 0.648571 0.209281
C30   C     C_R   0.219379 0.811340 0.762419 -0.168753
H12   H     H_    0.105690 0.860428 0.767558 0.214424
C31   C     C_R   0.373491 0.811241 0.819883 -0.104908
C32   C     C_R   0.504306 0.739341 0.813338 -0.091988
C33   C     C_3   0.718556 0.738333 0.819360 -0.312648
C34   C     C_3   0.711309 0.675587 0.742557 1.063500
H13   H     H_    0.785336 0.805854 0.806397 0.146565
C35   C     C_R   0.506771 0.748624 0.311648 0.123395
C36   C     C_R   0.353408 0.686691 0.317947 -0.104440
C37   C     C_R   0.202270 0.695902 0.259819 -0.172719
H14   H     H_    0.080327 0.650005 0.262296 0.122620
C38   C     C_R   0.213511 0.760122 0.194226 -0.180975
H15   H     H_    0.099318 0.762376 0.148418 0.133989
C39   C     C_R   0.376457 0.816742 0.184657 -0.107648
C40   C     C_R   0.517687 0.812212 0.246993 0.114720
C41   C     C_3   0.729942 0.801619 0.239213 -0.420263
C42   C     C_3   0.717782 0.731719 0.309328 -0.395258
H16   H     H_    0.808958 0.864678 0.257301 0.184081
H17   H     H_    0.771963 0.772081 0.177993 0.170479
H18   H     H_    0.790737 0.754202 0.367729 0.191958
H19   H     H_    0.751220 0.661161 0.288705 0.159907
O11   O     O_R   0.229140 0.916090 0.913340 -0.512654
O12   O     O_R   0.558860 0.905090 0.086080 -0.546625
O13   O     O_R   0.729100 0.083920 0.086690 -0.543991
C43   C     C_R   0.389536 0.882883 0.114687 0.670125
O14   O     O_R   0.558860 0.905090 0.913930 -0.545603
O15   O     O_R   0.729100 0.083920 0.913310 -0.544901
C44   C     C_R   0.389135 0.882191 0.885853 0.761464
O16   O     O_R   0.229140 0.916080 0.086720 -0.545212
O17   O     O_3   0.395570 0.058660 0.000020 -0.368297
V3    V     V_3+5 0.670450 0.989140 0.000000 1.447107
O18   O     O_R   0.058810 0.094980 0.913910 -0.504573
C45   C     C_R   0.890638 0.115928 0.884423 0.820567
O19   O     O_R   0.058810 0.094980 0.086060 -0.547944
C46   C     C_R   0.890074 0.117106 0.114774 0.676746
V4    V     V_3+5 0.170450 0.010950 0.999970 1.500648
O20   O     O_3   0.895460 0.941370 0.999990 -0.374427
F1    F     F_    0.220257 0.116805 0.501746 -0.681174
C47   C     C_R   0.792748 0.693426 0.899073 0.141737
C48   C     C_R   0.677222 0.684400 0.971454 -0.018663
C49   C     C_R   0.749821 0.642912 0.043482 -0.120593
C50   C     C_R   0.939112 0.611661 0.045134 -0.120129
C51   C     C_R   0.056060 0.621495 0.974581 -0.106312
C52   C     C_R   0.983368 0.661863 0.902019 -0.057926
H20   H     H_    0.530801 0.709003 0.972820 0.082404
H21   H     H_    0.659222 0.635358 0.098245 0.119494
H22   H     H_    0.995293 0.580042 0.101164 0.123526
H23   H     H_    0.202926 0.597365 0.975919 0.184487
H24   H     H_    0.075034 0.666892 0.847633 0.165033
F2    F     F_    0.788941 0.590123 0.754531 -0.707048
F3    F     F_    0.775866 0.716881 0.669986 -0.721406
F4    F     F_    0.441120 0.498517 0.861688 -0.676253
F5    F     F_    0.505610 0.383059 0.993830 -0.669508
F6    F     F_    0.084040 0.016943 0.775098 -0.721358

loop_
_geom_bond_atom_site_label_1
_geom_bond_atom_site_label_2
_ccdc_geom_bond_type
C31   C32   A    
C49   C50   A    
C23   C24   A    
C7    C8    A    
C12   C15   A    
C1    O6    A    
C22   C23   A    
C30   H12   S    
C37   H14   S    
C50   H22   S    
C16   C17   A    
C21   H5    S    
O5    C3    A    
O19   V4    S    
C33   H13   S    
V2    O10   S    
C32   C33   S    
C6    C7    A    
C19   C24   A    
C2    C36   S    
C37   C38   A    
O1    C2    A    
C47   C52   A    
O8    V2    S    
O14   V3    S    
C51   C52   A    
C35   C40   A    
C41   C42   S    
C11   C12   A    
C42   H19   S    
C34   F2    S    
O7    V1    S    
C26   H9    S    
V4    O20   S    
C39   C40   A    
O11   C44   A    
O9    C4    A    
C36   C37   A    
O13   V3    S    
C17   F1    S    
C48   H20   S    
C5    C6    A    
C30   C31   A    
C20   C46   S    
V3    O20   S    
C18   H4    S    
C29   H11   S    
C52   H24   S    
C12   C13   A    
C47   C48   A    
O4    C2    A    
C51   H23   S    
C15   F6    S    
C13   C14   A    
C4    C14   S    
C27   C34   S    
C40   C41   S    
C1    C28   S    
C35   C36   A    
C29   C30   A    
C19   C20   A    
C38   C39   A    
C42   H18   S    
O2    C1    A    
C25   C26   S    
C17   C18   A    
O12   C43   A    
C43   O16   A    
C28   C29   A    
C6    F4    S    
O18   C45   A    
C19   C26   S    
C25   H7    S    
O13   C46   A    
O3    C4    A    
O1    V2    S    
C7    F5    S    
C16   H3    S    
O17   V3    S    
O6    V2    S    
C9    C11   A    
C10   C14   A    
C5    H1    S    
C24   C25   S    
O2    V1    S    
O15   C45   A    
C3    C23   S    
C8    H2    S    
C13   C18   A    
C39   C43   S    
C20   C21   A    
C33   C47   S    
O19   C46   A    
O18   V4    S    
O5    V1    S    
O8    C3    A    
C27   C32   A    
C5    C10   A    
C38   H15   S    
O9    V2    S    
O7    V2    S    
O4    V1    S    
C21   C22   A    
O3    V1    S    
V1    O10   S    
O15   V3    S    
C31   C44   S    
O12   V3    S    
C33   C34   S    
C35   C42   S    
C41   H17   S    
O17   V4    S    
C48   C49   A    
O14   C44   A    
C50   C51   A    
C25   H8    S    
O16   V4    S    
C22   H6    S    
C8    C9    A    
C41   H16   S    
C27   C28   A    
C11   C45   S    
C15   C16   A    
C34   F3    S    
O11   V4    S    
C9    C10   A    
C49   H21   S    
C26   H10   S    
