data_mof_unit_41813.cif
_audit_creation_date              2012-10-26T20:23:16-0400
_audit_creation_method            fapswitch 2.2
_symmetry_space_group_name_H-M    P1
_symmetry_Int_Tables_number       1
_space_group_crystal_system       triclinic
_cell_length_a                    10.664275
_cell_length_b                    12.745415
_cell_length_c                    13.894764
_cell_angle_alpha                 97.986696
_cell_angle_beta                  90.221254
_cell_angle_gamma                 92.7231
_cell_volume                      1868.04980553

loop_
_atom_site_label
_atom_site_type_symbol
_atom_type_description
_atom_site_fract_x
_atom_site_fract_y
_atom_site_fract_z
_atom_type_partial_charge
C1    C     C_R   0.498147 0.483551 0.315872 0.582156
C2    C     C_3   0.962084 0.591016 0.552484 -0.189482
C3    C     C_3   0.957930 0.492121 0.408093 -0.018942
C4    C     C_3   0.042184 0.507983 0.591750 -0.021996
C5    C     C_3   0.876805 0.498529 0.499969 0.023869
C6    C     C_3   0.123227 0.501501 0.499857 0.023558
C7    C     C_3   0.956678 0.417271 0.539746 0.239533
C8    C     C_3   0.043479 0.582890 0.460037 0.234138
C9    C     C_1   0.502204 0.525971 0.787398 0.009125
C10   C     C_1   0.495536 0.474124 0.212640 0.006668
C11   C     C_2   0.501849 0.545174 0.979648 0.293416
C12   C     C_R   0.501802 0.516456 0.684138 0.581533
C13   C     C_2   0.488874 0.455460 0.020466 0.292921
C14   C     C_1   0.492709 0.465298 0.125598 -0.005110
C15   C     C_1   0.502236 0.535004 0.874469 -0.002958
C16   C     C_2   0.914481 0.483010 0.304515 0.214147
C17   C     C_2   0.085609 0.516635 0.695307 0.211288
C18   C     C_3   0.998389 0.265898 0.608179 0.018218
C19   C     C_3   0.984880 0.156760 0.546476 -0.264600
C20   C     C_3   0.085228 0.084084 0.573536 -0.485450
C21   C     C_3   0.006159 0.740987 0.404384 0.016745
C22   C     C_3   0.060815 0.823144 0.343860 -0.257553
C23   C     C_2   0.461072 0.028617 0.476081 -0.165551
C24   C     C_3   0.963057 0.901331 0.323752 -0.488842
C25   C     C_3   0.437587 0.271429 0.008660 0.008363
C26   C     C_3   0.550630 0.218361 0.046159 -0.261241
C27   C     C_3   0.508633 0.126751 0.100379 -0.483082
C28   C     C_3   0.509190 0.732520 0.991312 0.007825
C29   C     C_3   0.637878 0.766641 0.953995 -0.264491
C30   C     C_3   0.629236 0.863466 0.901319 -0.483402
C31   C     C_2   0.538411 0.971400 0.523933 -0.162672
C32   C     C_1   0.526629 0.854500 0.518267 0.136748
C33   C     C_1   0.473108 0.145503 0.481720 0.133742
C34   C     C_R   0.259200 0.500639 0.498975 0.605031
C35   C     C_R   0.740814 0.499357 0.500948 0.605037
C36   C     C_3   0.037967 0.409089 0.447428 -0.183310
Cu1   Cu    Cu3+1 0.491940 0.395330 0.493960 1.035105
Cu2   Cu    Cu3+1 0.508060 0.604670 0.506040 1.036086
H1    H     H_    0.070853 0.335189 0.405314 0.110519
H2    H     H_    0.993849 0.165653 0.468341 0.165581
H3    H     H_    0.180326 0.117665 0.559322 0.160888
H4    H     H_    0.071937 0.004859 0.529340 0.145433
H5    H     H_    0.078280 0.074182 0.651539 0.151498
H6    H     H_    0.978921 0.782881 0.476381 0.132997
H7    H     H_    0.921106 0.701009 0.366164 0.159683
H8    H     H_    0.142220 0.867390 0.383315 0.167568
H9    H     H_    0.094391 0.782150 0.273483 0.179106
H10   H     H_    0.884209 0.859175 0.279562 0.161570
H11   H     H_    0.006871 0.962178 0.282850 0.145620
H12   H     H_    0.928989 0.664370 0.595424 0.107343
H13   H     H_    0.925609 0.941797 0.392884 0.146474
H14   H     H_    0.386325 0.212118 0.954599 0.157290
H15   H     H_    0.368753 0.293651 0.067219 0.117003
H16   H     H_    0.609583 0.187659 0.983658 0.171300
H17   H     H_    0.609151 0.276873 0.095901 0.184319
H18   H     H_    0.453328 0.156470 0.165258 0.159408
H19   H     H_    0.592279 0.088487 0.124750 0.152770
H20   H     H_    0.450402 0.066484 0.052095 0.135694
H21   H     H_    0.477434 0.798414 0.045181 0.154189
H22   H     H_    0.436334 0.721135 0.932634 0.133162
H23   H     H_    0.613789 0.012752 0.568924 0.123029
H24   H     H_    0.704366 0.786118 0.016432 0.175017
H25   H     H_    0.675937 0.700986 0.903273 0.161541
H26   H     H_    0.564985 0.845011 0.837447 0.160937
H27   H     H_    0.723701 0.886500 0.875572 0.147878
H28   H     H_    0.594285 0.931366 0.951138 0.144759
H29   H     H_    0.385632 0.987321 0.431111 0.119635
H30   H     H_    0.983151 0.480337 0.246982 0.112438
H31   H     H_    0.016940 0.519599 0.752855 0.111183
H32   H     H_    0.985125 0.256137 0.685763 0.150174
H33   H     H_    0.096280 0.299349 0.602042 0.151285
H34   H     H_    0.890449 0.119863 0.557671 0.172823
N1    N     N_1   0.479830 0.238040 0.484880 -0.189280
N2    N     N_1   0.520170 0.761960 0.515120 -0.189229
O1    O     O_R   0.492210 0.399110 0.356330 -0.505004
O2    O     O_2   0.197254 0.520210 0.715501 -0.518673
O3    O     O_3   0.903592 0.331011 0.581842 -0.554729
O4    O     O_3   0.097973 0.667592 0.416499 -0.555184
O5    O     O_3   0.477602 0.357606 0.960108 -0.588830
O6    O     O_3   0.518316 0.642662 0.040116 -0.590121
O7    O     O_R   0.507790 0.600890 0.643670 -0.504704
O8    O     O_R   0.505820 0.575890 0.366540 -0.475888
O9    O     O_R   0.494180 0.424110 0.633460 -0.475489
O10   O     O_R   0.310050 0.411620 0.494870 -0.522193
O11   O     O_R   0.689950 0.588380 0.505130 -0.520307
O12   O     O_R   0.323660 0.588400 0.505080 -0.449335
O13   O     O_R   0.676340 0.411600 0.494920 -0.449407
O14   O     O_2   0.802811 0.478714 0.284279 -0.518310

loop_
_geom_bond_atom_site_label_1
_geom_bond_atom_site_label_2
_ccdc_geom_bond_type
C18   H32   S    
C13   O5    S    
C17   H31   S    
C30   H26   S    
C35   O11   A    
C7    C36   S    
C31   H23   S    
C19   C20   S    
C26   H17   S    
C29   H25   S    
C20   H3    S    
C26   C27   S    
C29   C30   S    
Cu2   O12   S    
C28   C29   S    
C25   H15   S    
C32   N2    T    
C35   O13   A    
C18   H33   S    
C18   C19   S    
C34   O12   A    
C23   H29   S    
C2    H12   S    
C11   C15   S    
C23   C33   S    
C21   O4    S    
C17   O2    D    
Cu1   O10   S    
C16   H30   S    
C7    O3    S    
C24   H13   S    
C22   H9    S    
Cu1   O1    S    
C13   C14   S    
Cu2   O8    S    
C8    O4    S    
C19   H34   S    
C34   O10   A    
C4    C7    S    
C26   H16   S    
C25   C26   S    
C21   H7    S    
C28   H22   S    
Cu2   O11   S    
C1    O1    A    
C4    C6    S    
C3    C8    S    
C27   H19   S    
C5    C7    S    
C27   H18   S    
C6    C8    S    
C1    O8    A    
C6    C34   S    
C12   O9    A    
C24   H10   S    
C2    C4    S    
Cu1   Cu2   S    
C21   H6    S    
C31   C32   S    
C30   H28   S    
C4    C17   S    
C33   N1    T    
C22   H8    S    
Cu2   O7    S    
C10   C14   T    
C22   C24   S    
C2    C5    S    
C20   H5    S    
Cu2   N2    S    
C28   H21   S    
C24   H11   S    
Cu1   N1    S    
C29   H24   S    
C25   O5    S    
Cu1   O13   S    
C36   H1    S    
C2    C8    S    
C1    C10   S    
C3    C5    S    
C27   H20   S    
C20   H4    S    
C11   O6    S    
C9    C15   T    
C25   H14   S    
C11   C13   D    
C3    C36   S    
C18   O3    S    
C5    C35   S    
C6    C36   S    
C12   O7    A    
C28   O6    S    
C9    C12   S    
C30   H27   S    
C19   H2    S    
C16   O14   D    
Cu1   O9    S    
C21   C22   S    
C3    C16   S    
C23   C31   D    
