data_mof_unit_11215.cif
_audit_creation_date              2012-10-26T19:39:36-0400
_audit_creation_method            fapswitch 2.2
_symmetry_space_group_name_H-M    P1
_symmetry_Int_Tables_number       1
_space_group_crystal_system       triclinic
_cell_length_a                    10.962384
_cell_length_b                    8.746855
_cell_length_c                    7.605938
_cell_angle_alpha                 103.589963
_cell_angle_beta                  95.923818
_cell_angle_gamma                 98.348896
_cell_volume                      694.187023928

loop_
_atom_site_label
_atom_site_type_symbol
_atom_type_description
_atom_site_fract_x
_atom_site_fract_y
_atom_site_fract_z
_atom_type_partial_charge
C1    C     C_R   0.498160 0.199910 0.452405 0.516547
C2    C     C_2   0.496257 0.031057 0.427166 -0.155997
C3    C     C_R   0.361409 0.311684 0.948383 0.211556
C4    C     C_R   0.295365 0.221302 0.057083 -0.068198
C5    C     C_R   0.211946 0.076363 0.992122 -0.162165
C6    C     C_R   0.178849 0.010714 0.808466 -0.101568
C7    C     C_R   0.224975 0.094922 0.692081 -0.170192
C8    C     C_R   0.308696 0.240041 0.759598 -0.075975
C9    C     C_2   0.507634 0.969511 0.572610 -0.147495
C10   C     C_R   0.265807 0.500954 0.499404 0.520032
C11   C     C_R   0.504828 0.800511 0.547512 0.551789
C12   C     C_R   0.734678 0.503238 0.501397 0.556985
C13   C     C_2   0.921010 0.487439 0.353096 -0.160960
C14   C     C_2   0.868089 0.510975 0.506648 -0.118980
C15   C     C_2   0.055661 0.493642 0.352879 -0.165277
C16   C     C_2   0.133334 0.494996 0.501284 -0.122380
Cu1   Cu    Cu3+1 0.513740 0.517380 0.684380 0.944196
Cu2   Cu    Cu3+1 0.486260 0.482620 0.315620 0.929559
H1    H     H_    0.864246 0.464306 0.220728 0.156329
H2    H     H_    0.114321 0.898871 0.756985 0.126062
H3    H     H_    0.194470 0.047796 0.546305 0.103293
H4    H     H_    0.319999 0.275625 0.642379 0.178113
H5    H     H_    0.921768 0.539758 0.641256 0.097477
H6    H     H_    0.090844 0.494400 0.224611 0.153251
H7    H     H_    0.101144 0.488930 0.629575 0.106562
H8    H     H_    0.484936 0.957051 0.288071 0.139314
H9    H     H_    0.518904 0.043538 0.711680 0.144951
H10   H     H_    0.599282 0.631834 0.051170 0.221055
H11   H     H_    0.298697 0.248116 0.198258 0.178363
H12   H     H_    0.171289 0.015585 0.086792 0.104872
N1    N     N_2   0.465540 0.456420 0.038510 -0.156847
N2    N     N_2   0.534460 0.543580 0.961490 -0.241691
O1    O     O_R   0.508930 0.286130 0.619780 -0.516686
O2    O     O_R   0.485720 0.256780 0.308360 -0.527424
O3    O     O_R   0.333540 0.514670 0.655670 -0.519155
O4    O     O_R   0.310330 0.485320 0.344250 -0.533548
O5    O     O_R   0.514280 0.743220 0.691640 -0.491180
O6    O     O_R   0.491070 0.713870 0.380220 -0.505121
O7    O     O_R   0.689670 0.514680 0.655750 -0.497987
O8    O     O_R   0.666460 0.485330 0.344330 -0.501481

loop_
_geom_bond_atom_site_label_1
_geom_bond_atom_site_label_2
_ccdc_geom_bond_type
C14   H5    S    
C12   O8    A    
C11   O6    A    
C8    H4    S    
C6    C7    A    
C6    H2    S    
N1    N2    D    
C12   O7    A    
C13   C15   S    
Cu1   Cu2   S    
Cu2   O6    S    
C1    O1    A    
C7    C8    A    
C2    H8    S    
Cu1   O5    S    
C13   C14   D    
C3    N1    S    
C9    C11   S    
C10   O3    A    
Cu1   O1    S    
C15   H6    S    
C12   C14   S    
C1    O2    A    
C1    C2    S    
Cu2   O2    S    
C5    C6    A    
C13   H1    S    
C15   C16   D    
H10   N2    S    
C9    H9    S    
C3    C8    A    
Cu1   O7    S    
C16   H7    S    
C11   O5    A    
Cu1   N2    S    
Cu2   O8    S    
C4    C5    A    
C10   C16   S    
Cu2   N1    S    
Cu1   O3    S    
C7    H3    S    
C2    C9    D    
Cu2   O4    S    
C3    C4    A    
C5    H12   S    
C4    H11   S    
C10   O4    A    
