data_mof_unit_60052.cif
_audit_creation_date              2012-12-11T20:34:14-0500
_audit_creation_method            fapswitch 2.2
_symmetry_space_group_name_H-M    P1
_symmetry_Int_Tables_number       1
_space_group_crystal_system       triclinic
_cell_length_a                    24.799424
_cell_length_b                    28.073858
_cell_length_c                    8.440921
_cell_angle_alpha                 89.999695
_cell_angle_beta                  94.865801
_cell_angle_gamma                 90.000159
_cell_volume                      5855.52107764

loop_
_atom_site_label
_atom_site_type_symbol
_atom_type_description
_atom_site_fract_x
_atom_site_fract_y
_atom_site_fract_z
_atom_type_partial_charge
Ba1   Ba    Ba6+2 0.999910 0.466800 0.844920 1.657535
Ba2   Ba    Ba6+2 0.999910 0.533200 0.344920 1.657551
Ba3   Ba    Ba6+2 0.499910 0.966800 0.844920 1.657626
Ba4   Ba    Ba6+2 0.499910 0.033200 0.344920 1.657545
C1    C     C_3   0.044811 0.247707 0.662987 -0.236630
C2    C     C_2   0.852268 0.678522 0.865915 -0.103081
C3    C     C_2   0.352233 0.821499 0.365969 -0.103045
C4    C     C_2   0.352266 0.178524 0.865893 -0.102923
C5    C     C_2   0.827827 0.322005 0.207790 -0.080167
C6    C     C_2   0.827835 0.677998 0.707784 -0.080149
C7    C     C_2   0.327804 0.822017 0.207833 -0.080189
C8    C     C_2   0.327831 0.177999 0.707762 -0.080106
C9    C     C_2   0.842273 0.359045 0.104418 -0.132849
C10   C     C_2   0.842275 0.640953 0.604423 -0.132865
C11   C     C_2   0.342254 0.859052 0.104448 -0.132813
C12   C     C_3   0.044809 0.752296 0.163060 -0.236619
C13   C     C_2   0.342270 0.140954 0.604404 -0.132950
C14   C     C_1   0.879542 0.393685 0.157184 0.061685
C15   C     C_1   0.879543 0.606314 0.657188 0.061599
C16   C     C_1   0.379527 0.893690 0.157194 0.061368
C17   C     C_1   0.379543 0.106316 0.657173 0.061752
C18   C     C_R   0.210897 0.719952 0.042102 0.486669
C19   C     C_R   0.210909 0.280058 0.542098 0.486836
C20   C     C_R   0.710906 0.219948 0.042090 0.486738
C21   C     C_R   0.710912 0.780054 0.542074 0.486750
C22   C     C_R   0.786482 0.285728 0.151806 0.469513
C23   C     C_3   0.544787 0.747700 0.662909 -0.236644
C24   C     C_R   0.786491 0.714277 0.651789 0.469514
C25   C     C_R   0.286461 0.785738 0.151852 0.469501
C26   C     C_R   0.286487 0.214277 0.651782 0.469577
C27   C     C_R   0.159208 0.641290 0.079461 -0.155265
C28   C     C_R   0.159223 0.358719 0.579458 -0.155248
C29   C     C_R   0.659214 0.141287 0.079455 -0.155257
C30   C     C_R   0.659212 0.858711 0.579446 -0.155243
C31   C     C_R   0.119679 0.607423 0.028927 0.063686
C32   C     C_R   0.119684 0.392578 0.528933 0.063715
C33   C     C_R   0.619680 0.107424 0.028928 0.063706
C34   C     C_3   0.544802 0.252298 0.163030 -0.236644
C35   C     C_R   0.619680 0.892577 0.528921 0.063683
C36   C     C_R   0.103040 0.652822 0.780968 -0.002170
C37   C     C_R   0.103035 0.347170 0.280998 -0.002158
C38   C     C_R   0.603037 0.152825 0.780977 -0.002169
C39   C     C_R   0.603042 0.847179 0.280959 -0.002167
C40   C     C_3   0.982658 0.290673 0.075303 0.318511
C41   C     C_3   0.982659 0.709323 0.575309 0.318570
C42   C     C_3   0.482651 0.790684 0.075286 0.318543
C43   C     C_3   0.482658 0.209324 0.575301 0.318535
C44   C     C_R   0.143124 0.686930 0.830019 0.102566
C45   C     C_3   0.883287 0.361953 0.425554 0.017555
C46   C     C_R   0.143115 0.313060 0.330071 0.102490
C47   C     C_R   0.643121 0.186934 0.830031 0.102540
C48   C     C_R   0.643129 0.813073 0.330000 0.102551
C49   C     C_R   0.169984 0.683654 0.978299 -0.096475
C50   C     C_R   0.169988 0.316350 0.478321 -0.096449
C51   C     C_R   0.669987 0.183653 0.978300 -0.096471
C52   C     C_R   0.669992 0.816349 0.478279 -0.096493
C53   C     C_R   0.090674 0.613671 0.889360 -0.306955
C54   C     C_R   0.090673 0.386325 0.389377 -0.306955
C55   C     C_R   0.590673 0.113673 0.889366 -0.306951
C56   C     C_3   0.883290 0.638049 0.925554 0.017493
C57   C     C_R   0.590675 0.886329 0.389354 -0.306962
C58   C     C_3   0.953147 0.247317 0.999073 0.000076
C59   C     C_3   0.953146 0.752680 0.499089 -0.000024
C60   C     C_3   0.453135 0.747330 0.999064 0.000015
C61   C     C_3   0.453144 0.252679 0.499073 -0.000033
C62   C     C_3   0.154869 0.469763 0.213679 0.299056
C63   C     C_3   0.154872 0.530237 0.713690 0.299058
C64   C     C_3   0.654877 0.969764 0.213678 0.299056
C65   C     C_3   0.654873 0.030238 0.713675 0.299052
C66   C     C_3   0.205698 0.439179 0.227562 -0.355238
C67   C     C_3   0.383270 0.861966 0.425577 0.018281
C68   C     C_3   0.205703 0.560818 0.727577 -0.355237
C69   C     C_3   0.705709 0.939183 0.227553 -0.355258
C70   C     C_3   0.705707 0.060816 0.727598 -0.355260
C71   C     C_3   0.840794 0.527770 0.961198 0.309702
C72   C     C_3   0.840829 0.472206 0.461301 0.309563
C73   C     C_3   0.340838 0.027806 0.961343 0.309294
C74   C     C_3   0.340708 0.972332 0.460515 0.309808
C75   C     C_3   0.787488 0.554880 0.934628 -0.031876
C76   C     C_3   0.787563 0.445047 0.434930 -0.032349
C77   C     C_3   0.287521 0.054887 0.934486 -0.032432
C78   C     C_3   0.383285 0.138048 0.925537 0.017517
C79   C     C_3   0.287487 0.945070 0.434907 -0.032605
C80   C     C_3   0.017081 0.296810 0.640068 0.323235
C81   C     C_3   0.017087 0.703195 0.140074 0.323252
C82   C     C_3   0.517065 0.796804 0.640043 0.323171
C83   C     C_3   0.517080 0.203196 0.140066 0.323238
C84   C     C_2   0.908603 0.386420 0.301994 -0.285397
C85   C     C_2   0.908604 0.613580 0.801997 -0.285322
C86   C     C_2   0.408587 0.886424 0.302001 -0.285541
C87   C     C_2   0.408604 0.113586 0.801979 -0.285358
C88   C     C_3   0.010712 0.205148 0.600285 -0.271888
C89   C     C_2   0.852258 0.321483 0.365925 -0.103012
C90   C     C_3   0.010724 0.794851 0.100272 -0.271858
C91   C     C_3   0.510675 0.705149 0.600226 -0.271724
C92   C     C_3   0.510712 0.294851 0.100255 -0.271794
C93   C     C_3   0.984131 0.287194 0.255547 -0.322831
C94   C     C_3   0.984141 0.712803 0.755550 -0.322876
C95   C     C_3   0.484120 0.787209 0.255525 -0.322896
C96   C     C_3   0.484138 0.212807 0.755540 -0.322885
H1    H     H_    0.026763 0.318082 0.749044 0.105551
H2    H     H_    0.196755 0.596631 0.773467 0.065762
H3    H     H_    0.990121 0.676815 0.806307 0.028194
H4    H     H_    0.018771 0.735313 0.800824 0.146433
H5    H     H_    0.945897 0.727527 0.794465 0.111617
H6    H     H_    0.518734 0.764687 0.300821 0.146450
H7    H     H_    0.490117 0.823195 0.306284 0.028184
H8    H     H_    0.445866 0.772503 0.294417 0.111570
H9    H     H_    0.490122 0.176820 0.806305 0.028198
H10   H     H_    0.518765 0.235319 0.800812 0.146442
H11   H     H_    0.445893 0.227528 0.794451 0.111627
H12   H     H_    0.696767 0.903372 0.273483 0.065764
H13   H     H_    0.696761 0.096629 0.773493 0.065770
H14   H     H_    0.221456 0.435168 0.108975 0.137862
H15   H     H_    0.221451 0.564847 0.608983 0.137859
H16   H     H_    0.721444 0.935146 0.108938 0.137837
H17   H     H_    0.721461 0.064846 0.609007 0.137842
H18   H     H_    0.856115 0.520854 0.844131 0.007873
H19   H     H_    0.856124 0.479091 0.344178 0.007922
H20   H     H_    0.356284 0.020951 0.844397 0.008147
H21   H     H_    0.026780 0.681907 0.249000 0.105554
H22   H     H_    0.355622 0.979451 0.343098 0.009102
H23   H     H_    0.870654 0.549175 0.036366 0.025568
H24   H     H_    0.870725 0.450842 0.536516 0.025765
H25   H     H_    0.370623 0.049200 0.036837 0.025961
H26   H     H_    0.370849 0.950936 0.534646 0.024672
H27   H     H_    0.791724 0.585430 0.853809 0.031473
H28   H     H_    0.791815 0.414518 0.353926 0.031616
H29   H     H_    0.291731 0.085353 0.853173 0.031813
H30   H     H_    0.291656 0.914657 0.353393 0.031734
H31   H     H_    0.755523 0.531113 0.878564 0.146955
H32   H     H_    0.526750 0.818067 0.749020 0.105537
H33   H     H_    0.755500 0.468812 0.379182 0.147178
H34   H     H_    0.255543 0.031025 0.878800 0.147225
H35   H     H_    0.255216 0.968796 0.380075 0.146892
H36   H     H_    0.035264 0.315723 0.542822 -0.020157
H37   H     H_    0.035267 0.684305 0.042791 -0.020187
H38   H     H_    0.535252 0.815717 0.542821 -0.020153
H39   H     H_    0.535262 0.184302 0.042798 -0.020176
H40   H     H_    0.083164 0.248017 0.603632 0.101005
H41   H     H_    0.083183 0.751983 0.103849 0.100930
H42   H     H_    0.583128 0.748012 0.603541 0.100921
H43   H     H_    0.526771 0.181913 0.249002 0.105558
H44   H     H_    0.583171 0.251984 0.103795 0.100955
H45   H     H_    0.056262 0.241646 0.791264 0.180485
H46   H     H_    0.056209 0.758364 0.291341 0.180523
H47   H     H_    0.556242 0.741626 0.791156 0.180442
H48   H     H_    0.556210 0.258368 0.291305 0.180511
H49   H     H_    0.911548 0.244940 0.038183 0.054697
H50   H     H_    0.911548 0.755056 0.538211 0.054687
H51   H     H_    0.411537 0.744954 0.038185 0.054706
H52   H     H_    0.411546 0.255056 0.538194 0.054798
H53   H     H_    0.841463 0.293979 0.448016 0.116305
H54   H     H_    0.237199 0.456097 0.310525 0.138118
H55   H     H_    0.841482 0.706032 0.947998 0.116304
H56   H     H_    0.341435 0.793999 0.448073 0.116365
H57   H     H_    0.341478 0.206035 0.947969 0.116256
H58   H     H_    0.824014 0.360510 0.983017 0.143145
H59   H     H_    0.824012 0.639482 0.483027 0.143056
H60   H     H_    0.324003 0.860509 0.983040 0.143335
H61   H     H_    0.323999 0.139483 0.483016 0.143025
H62   H     H_    0.182698 0.636132 0.192187 0.123565
H63   H     H_    0.182721 0.363880 0.692168 0.123482
H64   H     H_    0.682707 0.136127 0.192174 0.123538
H65   H     H_    0.237211 0.543888 0.810489 0.138125
H66   H     H_    0.682703 0.863870 0.692169 0.123559
H67   H     H_    0.950193 0.398653 0.320155 0.064038
H68   H     H_    0.950197 0.601354 0.820149 0.064046
H69   H     H_    0.450181 0.898647 0.320146 0.064036
H70   H     H_    0.450198 0.101363 0.820131 0.064012
H71   H     H_    0.060291 0.587765 0.848717 0.069234
H72   H     H_    0.060286 0.412228 0.348738 0.069225
H73   H     H_    0.560288 0.087769 0.848727 0.069230
H74   H     H_    0.560291 0.912234 0.348716 0.069239
H75   H     H_    0.958744 0.322430 0.033547 0.054347
H76   H     H_    0.737225 0.956120 0.310428 0.138137
H77   H     H_    0.958744 0.677567 0.533563 0.054362
H78   H     H_    0.458742 0.822442 0.033519 0.054370
H79   H     H_    0.458743 0.177567 0.533558 0.054365
H80   H     H_    0.948957 0.251595 0.868569 0.112431
H81   H     H_    0.948951 0.748403 0.368587 0.112472
H82   H     H_    0.448940 0.751610 0.868564 0.112424
H83   H     H_    0.448949 0.248400 0.368572 0.112454
H84   H     H_    0.139946 0.473583 0.332827 0.014079
H85   H     H_    0.139951 0.526413 0.832840 0.014080
H86   H     H_    0.639959 0.973585 0.332833 0.014078
H87   H     H_    0.737210 0.043880 0.810519 0.138133
H88   H     H_    0.639941 0.026417 0.832812 0.014075
H89   H     H_    0.123889 0.451916 0.131252 0.058604
H90   H     H_    0.123894 0.548088 0.631269 0.058582
H91   H     H_    0.623898 0.951914 0.131255 0.058580
H92   H     H_    0.623903 0.048089 0.631228 0.058601
H93   H     H_    0.973116 0.202187 0.661860 0.162900
H94   H     H_    0.999805 0.207930 0.470959 0.148396
H95   H     H_    0.034340 0.171882 0.622721 0.156276
H96   H     H_    0.973200 0.797902 0.162202 0.162837
H97   H     H_    0.034424 0.828105 0.122247 0.156224
H98   H     H_    0.196743 0.403358 0.273388 0.065779
H99   H     H_    0.999664 0.791979 0.971012 0.148436
H100  H     H_    0.473192 0.702088 0.662327 0.162794
H101  H     H_    0.499545 0.708036 0.471014 0.148441
H102  H     H_    0.534383 0.671894 0.622048 0.156233
H103  H     H_    0.473193 0.297904 0.162203 0.162825
H104  H     H_    0.534411 0.328106 0.122213 0.156263
H105  H     H_    0.499644 0.291978 0.971002 0.148430
H106  H     H_    0.018761 0.264690 0.300842 0.146429
H107  H     H_    0.990104 0.323183 0.306306 0.028198
H108  H     H_    0.945888 0.272466 0.294447 0.111669
I1    I     I_    0.762492 0.581135 0.154766 -0.339113
I2    I     I_    0.994389 0.818579 0.555348 -0.371734
I3    I     I_    0.494378 0.681430 0.055314 -0.371497
I4    I     I_    0.494386 0.318580 0.555320 -0.371492
I5    I     I_    0.762766 0.418664 0.655238 -0.339456
I6    I     I_    0.262577 0.081406 0.154414 -0.339811
I7    I     I_    0.263246 0.918367 0.655494 -0.339793
I8    I     I_    0.162950 0.739614 0.659011 -0.308766
I9    I     I_    0.162930 0.260341 0.159190 -0.308826
I10   I     I_    0.662941 0.239628 0.659053 -0.308786
I11   I     I_    0.662947 0.760392 0.158969 -0.308722
I12   I     I_    0.994392 0.181418 0.055327 -0.371521
N1    N     N_R   0.251442 0.708073 0.154230 -0.228240
N2    N     N_R   0.745310 0.702144 0.543251 -0.200220
N3    N     N_R   0.245245 0.797883 0.043395 -0.200114
N4    N     N_R   0.245150 0.202089 0.543834 -0.200081
N5    N     N_R   0.208162 0.765900 0.991432 -0.187432
N6    N     N_R   0.208061 0.234072 0.491897 -0.187524
N7    N     N_R   0.708153 0.265902 0.991527 -0.187452
N8    N     N_R   0.708222 0.734123 0.491300 -0.187439
N9    N     N_R   0.251580 0.291984 0.653715 -0.228281
N10   N     N_R   0.751477 0.208058 0.154090 -0.228269
N11   N     N_R   0.751422 0.791920 0.654279 -0.228273
N12   N     N_R   0.788357 0.240259 0.208137 -0.228470
N13   N     N_R   0.788302 0.759719 0.708328 -0.228439
N14   N     N_R   0.288316 0.740277 0.208292 -0.228426
N15   N     N_R   0.288461 0.259782 0.707749 -0.228537
N16   N     N_R   0.745241 0.297883 0.043476 -0.200119
O1    O     O_2   0.893910 0.433590 0.874460 -0.449253
O2    O     O_3   0.035686 0.707398 0.526644 -0.579997
O3    O     O_3   0.535682 0.792602 0.026649 -0.579947
O4    O     O_3   0.535685 0.207399 0.526639 -0.579985
O5    O     O_3   0.061740 0.523180 0.062830 -0.494971
O6    O     O_3   0.061740 0.476820 0.562830 -0.494965
O7    O     O_3   0.561740 0.023180 0.062830 -0.494961
O8    O     O_3   0.561740 0.976820 0.562830 -0.494966
O9    O     O_3   0.938210 0.476710 0.126870 -0.493635
O10   O     O_3   0.938210 0.523290 0.626870 -0.493680
O11   O     O_3   0.438210 0.976710 0.126870 -0.493844
O12   O     O_2   0.893910 0.566410 0.374460 -0.449213
O13   O     O_3   0.438210 0.023290 0.626870 -0.493385
O14   O     O_3   0.981570 0.392580 0.636990 -0.494729
O15   O     O_3   0.981570 0.607420 0.136990 -0.494710
O16   O     O_3   0.481570 0.892580 0.636990 -0.494666
O17   O     O_3   0.481570 0.107420 0.136990 -0.494731
O18   O     O_2   0.899929 0.349164 0.758414 -0.477282
O19   O     O_2   0.899934 0.650833 0.258417 -0.477347
O20   O     O_2   0.399934 0.849165 0.758435 -0.477086
O21   O     O_2   0.399929 0.150833 0.258402 -0.477271
O22   O     O_3   0.830847 0.484954 0.037020 -0.616039
O23   O     O_2   0.393910 0.933590 0.874460 -0.448611
O24   O     O_3   0.830840 0.515053 0.536953 -0.616125
O25   O     O_3   0.330843 0.984950 0.036874 -0.616288
O26   O     O_3   0.330851 0.015037 0.537156 -0.616237
O27   O     O_3   0.960590 0.292792 0.606116 -0.622777
O28   O     O_3   0.960595 0.707211 0.106153 -0.622753
O29   O     O_3   0.460575 0.792795 0.606087 -0.622832
O30   O     O_3   0.460588 0.207210 0.106136 -0.622747
O31   O     O_2   0.105800 0.433150 0.815270 -0.459564
O32   O     O_2   0.105800 0.566850 0.315270 -0.459549
O33   O     O_2   0.605800 0.933150 0.815270 -0.459554
O34   O     O_2   0.393910 0.066410 0.374460 -0.449659
O35   O     O_2   0.605800 0.066850 0.315270 -0.459563
O36   O     O_3   0.018000 0.392500 0.052760 -0.497289
O37   O     O_3   0.018000 0.607500 0.552760 -0.497286
O38   O     O_3   0.518000 0.892500 0.052760 -0.497297
O39   O     O_3   0.518000 0.107500 0.552760 -0.497288
O40   O     O_2   0.107271 0.354576 0.952581 -0.464592
O41   O     O_2   0.107266 0.645420 0.452547 -0.464561
O42   O     O_2   0.607261 0.854578 0.952529 -0.464546
O43   O     O_2   0.607267 0.145421 0.452557 -0.464564
O44   O     O_3   0.168206 0.485522 0.655585 -0.627769
O45   O     O_3   0.168206 0.514478 0.155593 -0.627775
O46   O     O_3   0.668206 0.985520 0.655588 -0.627780
O47   O     O_3   0.668207 0.014481 0.155582 -0.627778
O48   O     O_3   0.035687 0.292598 0.026650 -0.579976
P1    P     P_3+3 0.888690 0.449140 0.046940 1.010926
P2    P     P_3+3 0.066555 0.652609 0.579410 0.973177
P3    P     P_3+3 0.566553 0.847391 0.079403 0.973202
P4    P     P_3+3 0.566554 0.152610 0.579414 0.973174
P5    P     P_3+3 0.930717 0.650397 0.106402 0.952046
P6    P     P_3+3 0.930713 0.349606 0.606398 0.952066
P7    P     P_3+3 0.430713 0.150394 0.106388 0.952025
P8    P     P_3+3 0.430706 0.849611 0.606399 0.952442
P9    P     P_3+3 0.888690 0.550860 0.546940 1.010831
P10   P     P_3+3 0.388690 0.949140 0.046940 1.010767
P11   P     P_3+3 0.388690 0.050860 0.546940 1.010751
P12   P     P_3+3 0.111080 0.448680 0.642780 0.992039
P13   P     P_3+3 0.111080 0.551320 0.142780 0.992035
P14   P     P_3+3 0.611080 0.948680 0.642780 0.992043
P15   P     P_3+3 0.611080 0.051320 0.142780 0.992038
P16   P     P_3+3 0.066554 0.347387 0.079429 0.973139

loop_
_geom_bond_atom_site_label_1
_geom_bond_atom_site_label_2
_ccdc_geom_bond_type
C29   C51   S    
C30   C52   S    
N1    N14   A    
C23   C91   S    
C40   H75   S    
C77   H34   S    
C18   N5    A    
C91   H102  S    
C72   O24   S    
C73   O25   S    
C9    C14   A    
C90   H96   S    
C88   H94   S    
C27   C49   S    
C28   H63   S    
C25   N3    A    
C5    C9    A    
O3    P3    S    
C7    C11   A    
C21   N11   A    
C81   H21   S    
C26   N15   A    
Ba4   O7    S    
C2    H55   S    
C64   O47   S    
C56   P5    S    
C96   H9    S    
O17   P7    S    
C4    H57   S    
C5    C22   S    
C47   I10   S    
C11   C16   A    
C35   C57   D    
C18   N1    A    
O42   P3    D    
O9    P1    S    
Ba1   O36   S    
C13   C17   A    
C76   H33   S    
C23   C82   S    
C77   H29   S    
Ba1   O31   S    
C71   O22   S    
Ba2   O32   S    
C65   C70   S    
N10   N12   A    
C34   H48   S    
C12   C81   S    
O15   P5    S    
C59   I2    S    
C73   H25   S    
C39   C57   S    
Ba3   O38   S    
C70   H87   S    
C22   N16   A    
C36   C44   A    
C75   H27   S    
O4    P4    S    
Ba1   P12   S    
C10   C15   A    
Ba3   P10   S    
C12   C90   S    
C22   N12   A    
C89   H53   S    
C11   H60   S    
Ba2   O15   S    
C82   H32   S    
C62   C66   S    
Ba3   O23   S    
O12   P9    D    
C35   P14   S    
C47   C51   D    
C78   P7    S    
C83   O30   S    
O47   P15   S    
C32   P12   S    
C96   H11   S    
C24   N2    A    
C45   C89   A    
O18   P6    D    
C71   C75   S    
C63   H85   S    
C33   P15   S    
C62   H89   S    
C59   H81   S    
O8    P14   S    
C59   H50   S    
C95   H8    S    
C68   H15   S    
C69   H16   S    
C28   C32   A    
Ba2   O9    S    
C37   C54   S    
C37   P16   S    
C39   C48   A    
C63   C68   S    
C3    H56   S    
O23   P10   D    
C93   H106  S    
C60   H82   S    
C64   H86   S    
C66   H98   S    
C74   O26   S    
Ba2   P9    S    
C45   P6    S    
O33   P14   D    
C92   H104  S    
C44   C49   D    
C1    H45   S    
C30   C35   A    
C72   H24   S    
C6    C10   A    
C1    C80   S    
C76   H28   S    
C64   H91   S    
Ba1   O1    S    
C14   C84   A    
Ba4   O11   S    
C65   O46   S    
C4    C8    A    
C75   H31   S    
C19   N9    A    
C42   O3    S    
Ba2   O6    S    
C33   C55   D    
C13   H61   S    
C67   P8    S    
Ba2   P13   S    
Ba3   Ba4   S    
O21   P7    D    
C69   H12   S    
C95   H6    S    
C48   I11   S    
C15   P9    S    
Ba4   O39   S    
C57   H74   S    
C72   C76   S    
C38   C55   S    
N3    N5    A    
C76   I5    S    
C91   H101  S    
C46   I9    S    
O14   P6    S    
C10   H59   S    
C90   H97   S    
C12   H41   S    
O19   P5    D    
C92   H105  S    
C67   C86   A    
C68   H2    S    
C86   H69   S    
O44   P12   S    
O28   P5    S    
C93   H108  S    
Ba1   O6    S    
O7    P15   S    
Ba4   O8    S    
C42   C95   S    
C96   H10   S    
C16   P10   S    
C17   P11   S    
Ba4   P11   S    
C73   H20   S    
O1    P1    D    
Ba1   P1    S    
C63   H90   S    
N7    N16   A    
O11   P10   S    
C46   C50   D    
C92   H103  S    
O22   P1    S    
C4    C78   A    
C20   N10   A    
C41   C94   S    
C94   H3    S    
C40   O48   S    
Ba2   O12   S    
C61   I4    S    
C74   C79   S    
C91   H100  S    
C8    C13   A    
C20   N7    A    
O36   P16   S    
Ba4   O35   S    
C27   H62   S    
O37   P2    S    
C45   C84   A    
C71   H18   S    
O39   P4    S    
C65   H92   S    
C28   C50   S    
O40   P16   D    
O13   P11   S    
C60   H51   S    
Ba3   O13   S    
C88   H93   S    
O45   P13   S    
O5    P13   S    
C70   H13   S    
O48   P16   S    
C29   C33   A    
O16   P8    S    
C58   I12   S    
N9    N15   A    
C62   O45   S    
C54   H72   S    
C85   H68   S    
N2    N8    A    
C84   H67   S    
N11   N13   A    
C1    H40   S    
C27   C31   A    
C81   O28   S    
C74   H26   S    
C81   H37   S    
C37   C46   A    
C19   N6    A    
C17   C87   A    
C6    C24   S    
C75   I1    S    
C80   H36   S    
C36   C53   S    
C8    C26   S    
C34   H44   S    
C83   H39   S    
Ba3   O33   S    
C2    C6    A    
C79   I7    S    
O6    P12   S    
C95   H7    S    
O10   P9    S    
C34   C83   S    
C31   C53   D    
C69   H76   S    
O35   P15   D    
Ba2   O37   S    
C58   H80   S    
C25   N14   A    
C78   C87   A    
C34   C92   S    
O38   P3    S    
C82   O29   S    
C30   H66   S    
C44   I8    S    
C58   H49   S    
C68   H65   S    
C42   H78   S    
C21   C52   S    
C88   H95   S    
C14   P1    S    
C56   C85   A    
C66   H14   S    
C20   C51   S    
C3    C7    A    
C94   H5    S    
C71   H23   S    
C90   H99   S    
C32   C54   D    
Ba1   O10   S    
C3    C67   A    
C23   H42   S    
C12   H46   S    
Ba1   Ba2   S    
C41   O2    S    
C43   H79   S    
O34   P11   D    
O29   P8    S    
C60   I3    S    
O30   P7    S    
Ba4   P15   S    
C73   C77   S    
C79   H35   S    
O2    P2    S    
C41   H77   S    
C24   N13   A    
Ba3   O8    S    
O25   P10   S    
C80   H1    S    
Ba4   O17   S    
C18   C49   S    
C39   P3    S    
Ba4   O34   S    
C31   P13   S    
C72   H19   S    
C2    C56   A    
C29   H64   S    
Ba3   O16   S    
C79   H30   S    
Ba1   O14   S    
C26   N4    A    
C40   C58   S    
C64   C69   S    
C16   C86   A    
C41   C59   S    
C43   C96   S    
C42   C60   S    
Ba3   P14   S    
O32   P13   D    
C15   C85   A    
C40   C93   S    
C77   I6    S    
C80   O27   S    
Ba3   O7    S    
C93   H107  S    
C65   H88   S    
Ba1   O5    S    
O27   P6    S    
C5    C89   A    
C9    H58   S    
O20   P8    D    
O46   P14   S    
C19   C50   S    
C61   H83   S    
C70   H17   S    
C62   H84   S    
C87   H70   S    
C66   H54   S    
C55   H73   S    
N4    N6    A    
O41   P2    D    
C38   C47   A    
C21   N8    A    
O43   P4    D    
C61   H52   S    
C94   H4    S    
C36   P2    S    
O31   P12   D    
C74   H22   S    
Ba2   O5    S    
C1    C88   S    
C82   H38   S    
C43   O4    S    
O24   P9    S    
C7    C25   S    
C23   H47   S    
O26   P11   S    
C83   H43   S    
C63   O44   S    
C43   C61   S    
C38   P4    S    
C48   C52   D    
C53   H71   S    
