data_mof_unit_67723.cif
_audit_creation_date              2012-10-26T19:56:19-0400
_audit_creation_method            fapswitch 2.2
_symmetry_space_group_name_H-M    P1
_symmetry_Int_Tables_number       1
_space_group_crystal_system       triclinic
_cell_length_a                    11.076188
_cell_length_b                    10.658343
_cell_length_c                    9.436547
_cell_angle_alpha                 89.030739
_cell_angle_beta                  91.841695
_cell_angle_gamma                 92.159818
_cell_volume                      1112.51631514

loop_
_atom_site_label
_atom_site_type_symbol
_atom_type_description
_atom_site_fract_x
_atom_site_fract_y
_atom_site_fract_z
_atom_type_partial_charge
C1    C     C_R   0.502367 0.259633 0.501372 0.545355
C2    C     C_3   0.386272 0.040888 0.486408 -0.126513
C3    C     C_3   0.497183 0.877229 0.495887 0.034082
C4    C     C_3   0.502815 0.122771 0.504113 0.034082
C5    C     C_3   0.433389 0.952864 0.606764 -0.124272
C6    C     C_3   0.566609 0.047136 0.393235 -0.124271
C7    C     C_3   0.510948 0.612776 0.047955 -0.018681
C8    C     C_3   0.489052 0.387224 0.952045 -0.018681
C9    C     C_3   0.411842 0.562942 0.944302 0.001461
C10   C     C_3   0.588158 0.437058 0.055698 0.001461
C11   C     C_3   0.598930 0.550444 0.951633 -0.001269
C12   C     C_R   0.497632 0.740367 0.498628 0.545356
C13   C     C_3   0.401070 0.449556 0.048367 -0.001269
C14   C     C_R   0.262086 0.500715 0.497239 0.537488
C15   C     C_R   0.737914 0.499285 0.502761 0.537488
C16   C     C_R   0.142158 0.523737 0.007757 -0.126432
C17   C     C_R   0.857841 0.476259 0.992243 -0.126432
C18   C     C_R   0.133285 0.535337 0.153399 -0.070721
C19   C     C_R   0.866715 0.464660 0.846601 -0.070721
C20   C     C_R   0.099215 0.431071 0.236859 0.041494
C21   C     C_R   0.900785 0.568926 0.763142 0.041494
C22   C     C_R   0.077255 0.313752 0.172469 -0.122931
C23   C     C_R   0.872052 0.496672 0.507737 -0.015649
C24   C     C_R   0.922745 0.686245 0.827533 -0.122931
C25   C     C_R   0.090113 0.300308 0.025383 0.000639
C26   C     C_R   0.909887 0.699688 0.974619 0.000639
C27   C     C_R   0.126444 0.406512 0.944560 -0.092503
C28   C     C_R   0.873555 0.593483 0.055441 -0.092504
C29   C     C_R   0.928282 0.449377 0.390434 -0.164552
C30   C     C_R   0.071718 0.550621 0.609567 -0.164552
C31   C     C_3   0.050683 0.176535 0.957847 -0.266771
C32   C     C_3   0.071479 0.168740 0.797517 -0.296933
C33   C     C_3   0.035226 0.039255 0.740497 -0.464333
C34   C     C_R   0.127948 0.503327 0.492263 -0.015649
C35   C     C_3   0.949319 0.823459 0.042158 -0.266774
C36   C     C_3   0.928519 0.831255 0.202486 -0.296939
C37   C     C_3   0.964775 0.960738 0.259506 -0.464337
C38   C     C_3   0.604899 0.076386 0.765617 -0.243540
C39   C     C_3   0.649141 0.963923 0.853263 -0.302227
C40   C     C_3   0.677556 0.001808 0.006078 -0.475963
C41   C     C_3   0.395098 0.923614 0.234384 -0.243541
C42   C     C_3   0.350862 0.036077 0.146733 -0.302228
C43   C     C_3   0.322446 0.998189 0.993920 -0.475964
C44   C     C_R   0.945843 0.544931 0.621192 -0.029080
C45   C     C_R   0.054157 0.455067 0.378808 -0.029080
C46   C     C_3   0.549680 0.036154 0.623200 0.010542
C47   C     C_3   0.450318 0.963846 0.376800 0.010543
C48   C     C_3   0.613727 0.959112 0.513592 -0.126512
Cu1   Cu    Cu3+1 0.500030 0.499990 0.643150 0.914398
Cu2   Cu    Cu3+1 0.499970 0.500010 0.356850 0.914397
H1    H     H_    0.137478 0.401348 0.831953 0.127819
H2    H     H_    0.841936 0.392946 0.056347 0.093581
H3    H     H_    0.144130 0.627630 0.199381 0.106857
H4    H     H_    0.855870 0.372367 0.800618 0.106856
H5    H     H_    0.043278 0.235020 0.235446 0.092764
H6    H     H_    0.956722 0.764977 0.764556 0.092764
H7    H     H_    0.872887 0.410637 0.304067 0.119377
H8    H     H_    0.127113 0.589361 0.695935 0.119377
H9    H     H_    0.706599 0.923615 0.524781 0.097279
H10   H     H_    0.293399 0.076385 0.475219 0.097279
H11   H     H_    0.378559 0.911676 0.693510 0.102612
H12   H     H_    0.862521 0.598646 0.168047 0.127820
H13   H     H_    0.621439 0.088324 0.306489 0.102612
H14   H     H_    0.089626 0.966171 0.794419 0.141213
H15   H     H_    0.937703 0.018080 0.756641 0.142863
H16   H     H_    0.051694 0.037260 0.625112 0.137844
H17   H     H_    0.016558 0.238856 0.738819 0.159398
H18   H     H_    0.168319 0.188898 0.775691 0.160240
H19   H     H_    0.098387 0.100052 0.014079 0.147697
H20   H     H_    0.952685 0.160482 0.975409 0.130071
H21   H     H_    0.062297 0.981910 0.243363 0.142865
H22   H     H_    0.910376 0.033826 0.205588 0.141212
H23   H     H_    0.346386 0.624568 0.889791 0.095783
H24   H     H_    0.948308 0.962729 0.374890 0.137846
H25   H     H_    0.831679 0.811099 0.224308 0.160241
H26   H     H_    0.983436 0.761137 0.261185 0.159399
H27   H     H_    0.047318 0.839507 0.024601 0.130073
H28   H     H_    0.901621 0.899945 0.985925 0.147698
H29   H     H_    0.756677 0.068602 0.010995 0.137867
H30   H     H_    0.599695 0.047597 0.050913 0.150029
H31   H     H_    0.696402 0.917172 0.071595 0.147647
H32   H     H_    0.578981 0.886612 0.853118 0.166541
H33   H     H_    0.731351 0.927596 0.806321 0.154589
H34   H     H_    0.653613 0.375432 0.110209 0.095784
H35   H     H_    0.680866 0.145650 0.748971 0.143333
H36   H     H_    0.533140 0.121201 0.822747 0.146675
H37   H     H_    0.400305 0.952393 0.949088 0.150029
H38   H     H_    0.243321 0.931400 0.989003 0.137866
H39   H     H_    0.303606 0.082824 0.928399 0.147645
H40   H     H_    0.268653 0.072409 0.193673 0.154590
H41   H     H_    0.421025 0.113384 0.146877 0.166538
H42   H     H_    0.466854 0.878793 0.177255 0.146678
H43   H     H_    0.319128 0.854354 0.251031 0.143331
H44   H     H_    0.526558 0.707264 0.091785 0.089548
H45   H     H_    0.473443 0.292736 0.908215 0.089549
H46   H     H_    0.672644 0.606086 0.901892 0.135753
H47   H     H_    0.327357 0.393914 0.098108 0.135753
H48   H     H_    0.158063 0.607050 0.943651 0.093581
N1    N     N_3   0.500090 0.499970 0.858290 -0.234828
N2    N     N_3   0.499910 0.500030 0.141710 -0.234828
O1    O     O_R   0.500060 0.316850 0.620870 -0.511747
O2    O     O_R   0.499940 0.683150 0.379130 -0.511747
O3    O     O_R   0.500000 0.316860 0.379090 -0.510726
O4    O     O_R   0.500000 0.683140 0.620910 -0.510726
O5    O     O_R   0.319670 0.500010 0.620890 -0.515179
O6    O     O_R   0.680330 0.499990 0.379110 -0.515178
O7    O     O_R   0.319620 0.500010 0.379110 -0.497986
O8    O     O_R   0.680380 0.499990 0.620890 -0.497986

loop_
_geom_bond_atom_site_label_1
_geom_bond_atom_site_label_2
_ccdc_geom_bond_type
C11   H46   S    
C25   C31   S    
C37   H24   S    
C8    C13   S    
C41   C42   S    
C35   C36   S    
Cu1   O4    S    
C33   H15   S    
C4    C46   S    
C7    C11   S    
C43   H39   S    
C6    C48   S    
C38   H36   S    
C43   H38   S    
C23   C29   A    
C15   O6    A    
C36   C37   S    
C19   C21   A    
C8    N1    S    
C24   C26   A    
C12   O4    A    
Cu1   O1    S    
C38   C39   S    
C2    H10   S    
C3    C48   S    
C11   N1    S    
C42   H41   S    
C10   H34   S    
C9    C13   S    
C3    C12   S    
C36   H26   S    
C18   H3    S    
C14   O5    A    
C41   H43   S    
C22   C25   A    
C40   H30   S    
C1    O3    A    
C20   C45   S    
C32   H18   S    
C16   C27   A    
C15   C23   S    
Cu2   O3    S    
C9    N1    S    
C30   C44   A    
C8    H45   S    
C9    H23   S    
C17   H2    S    
C27   H1    S    
C33   H16   S    
Cu1   O8    S    
C31   H20   S    
C46   C48   S    
C7    N2    S    
C30   C34   A    
C38   H35   S    
C6    H13   S    
C4    C6    S    
C6    C47   S    
C39   C40   S    
Cu1   O5    S    
C35   H27   S    
C23   C44   A    
C29   C45   A    
C42   H40   S    
C15   O8    A    
C2    C4    S    
C12   O2    A    
C36   H25   S    
Cu1   N1    S    
C21   C44   S    
C31   C32   S    
C41   C47   S    
C40   H29   S    
C5    H11   S    
C34   C45   A    
C10   N2    S    
C32   H17   S    
C19   H4    S    
C16   C18   A    
C14   O7    A    
C29   H7    S    
Cu2   O2    S    
C37   H21   S    
Cu2   O7    S    
C21   C24   A    
C2    C5    S    
C24   H6    S    
C42   C43   S    
C1    O1    A    
C48   H9    S    
C7    C9    S    
C7    H44   S    
C17   C28   A    
Cu2   N2    S    
C40   H31   S    
C39   H32   S    
C20   C22   A    
C3    C5    S    
C14   C34   S    
C22   H5    S    
C2    C47   S    
C25   C27   A    
C5    C46   S    
C35   H28   S    
C26   C28   A    
C1    C4    S    
C43   H37   S    
C32   C33   S    
C13   N2    S    
C39   H33   S    
C16   H48   S    
C33   H14   S    
C30   H8    S    
C3    C47   S    
C17   C19   A    
C18   C20   A    
C13   H47   S    
C38   C46   S    
C10   C11   S    
C26   C35   S    
C31   H19   S    
C41   H42   S    
C8    C10   S    
Cu1   Cu2   S    
C37   H22   S    
Cu2   O6    S    
C28   H12   S    
