data_mof_unit_7335.cif
_audit_creation_date              2012-12-10T17:22:08-0500
_audit_creation_method            fapswitch 2.2
_symmetry_space_group_name_H-M    P1
_symmetry_Int_Tables_number       1
_space_group_crystal_system       triclinic
_cell_length_a                    10.168111
_cell_length_b                    10.666268
_cell_length_c                    15.720901
_cell_angle_alpha                 91.678075
_cell_angle_beta                  79.72623
_cell_angle_gamma                 95.733322
_cell_volume                      1669.17897358

loop_
_atom_site_label
_atom_site_type_symbol
_atom_type_description
_atom_site_fract_x
_atom_site_fract_y
_atom_site_fract_z
_atom_type_partial_charge
C1    C     C_R   0.556525 0.734203 0.490919 0.890382
C2    C     C_3   0.360560 0.535276 0.069469 -0.045022
C3    C     C_3   0.501253 0.497330 0.082691 0.125442
C4    C     C_3   0.529208 0.365631 0.040713 0.185553
C5    C     C_3   0.504841 0.363411 0.946135 -0.164158
C6    C     C_1   0.506370 0.493000 0.173683 -0.047970
C7    C     C_1   0.494496 0.502157 0.825985 -0.070265
C8    C     C_1   0.493581 0.500505 0.750794 -0.251418
C9    C     C_2   0.589159 0.868674 0.472847 -0.085183
C10   C     C_2   0.491113 0.929984 0.449502 -0.324728
C11   C     C_2   0.414642 0.131199 0.493596 -0.384692
C12   C     C_R   0.497967 0.499788 0.661765 0.897039
C13   C     C_2   0.500767 0.065749 0.439423 0.464865
C14   C     C_2   0.914458 0.491764 0.523809 -0.239687
C15   C     C_2   0.059467 0.463591 0.526436 0.468944
C16   C     C_R   0.444180 0.266170 0.501984 0.983851
C17   C     C_R   0.501442 0.497914 0.338206 0.910573
C18   C     C_3   0.360246 0.548537 0.969455 0.439943
C19   C     C_3   0.628418 0.594062 0.938455 0.266258
C20   C     C_3   0.613386 0.595963 0.040140 -0.592742
C21   C     C_1   0.505430 0.493971 0.249064 -0.205493
C22   C     C_3   0.498811 0.503050 0.916903 0.130669
H1    H     H_    0.288138 0.456986 0.097239 0.160724
H2    H     H_    0.636068 0.350119 0.041150 0.104189
H3    H     H_    0.394198 0.880944 0.443883 0.154393
H4    H     H_    0.330571 0.084291 0.537189 0.106244
H5    H     H_    0.868260 0.552789 0.574506 0.158042
H6    H     H_    0.593013 0.689976 0.068895 0.181900
H7    H     H_    0.708842 0.578618 0.061432 0.168616
H8    H     H_    0.405243 0.314200 0.949272 0.208228
N1    N     N_2   0.842720 0.448890 0.465540 -0.080167
N2    N     N_2   0.157250 0.551040 0.534500 -0.085688
O1    O     O_R   0.431050 0.692470 0.506940 -0.635954
O2    O     O_R   0.651130 0.659650 0.484820 -0.614431
O3    O     O_R   0.389910 0.516410 0.633920 -0.607700
O4    O     O_R   0.609990 0.483590 0.611800 -0.629151
O5    O     O_R   0.348870 0.340350 0.515180 -0.542152
O6    O     O_R   0.568950 0.307530 0.493060 -0.569512
O7    O     O_R   0.390010 0.516410 0.388200 -0.604848
O8    O     O_R   0.610090 0.483590 0.366080 -0.633282
Zn1   Zn    Zn3+2 0.353060 0.521920 0.514770 0.972085
Zn2   Zn    Zn3+2 0.646940 0.478080 0.485230 0.933011
C23   C     C_3   0.312992 0.652187 0.125437 -0.334959
C24   C     C_3   0.163575 0.669074 0.128365 -0.332830
C25   C     C_3   0.112615 0.761620 0.199814 -0.917138
H9    H     H_    0.119550 0.725078 0.264179 0.260962
H10   H     H_    0.172385 0.854702 0.189918 0.274247
H11   H     H_    0.005805 0.774165 0.198734 0.249437
H12   H     H_    0.148841 0.706303 0.065957 0.253223
H13   H     H_    0.101919 0.577131 0.140356 0.214809
H14   H     H_    0.325735 0.640343 0.193238 0.197164
H15   H     H_    0.374904 0.740327 0.102259 0.232420
C26   C     C_3   0.224937 0.481352 0.943580 -0.491951
C27   C     C_3   0.168512 0.344887 0.971903 -0.373589
C28   C     C_3   0.015305 0.329900 0.993190 -0.918869
H16   H     H_    0.978365 0.397892 0.044645 0.255323
H17   H     H_    0.972865 0.345675 0.934905 0.270170
H18   H     H_    0.979692 0.232808 0.016065 0.256758
H19   H     H_    0.199183 0.278469 0.917801 0.217911
H20   H     H_    0.204333 0.312044 0.028840 0.250777
H21   H     H_    0.145019 0.543888 0.967625 0.229341
H22   H     H_    0.233122 0.483976 0.872279 0.192097
O9    O     O_3   0.598948 0.126224 0.377861 -0.779167
H23   H     H_    0.642728 0.061299 0.339597 0.332752
C29   C     C_3   0.725833 0.932141 0.484287 -0.391989
C30   C     C_3   0.836451 0.900955 0.408639 -0.332474
C31   C     C_3   0.973262 0.964859 0.420376 -0.895656
H24   H     H_    0.972090 0.068772 0.422664 0.267467
H25   H     H_    0.000392 0.933223 0.481015 0.265840
H26   H     H_    0.050987 0.939573 0.365260 0.255278
H27   H     H_    0.843486 0.797737 0.403610 0.240139
H28   H     H_    0.812859 0.932464 0.346854 0.214431
H29   H     H_    0.724827 0.035978 0.490926 0.236036
H30   H     H_    0.749970 0.899247 0.545697 0.184749
O10   O     O_3   0.088693 0.339902 0.523758 -0.748030
H31   H     H_    0.002909 0.285322 0.535810 0.310825
C32   C     C_3   0.131593 0.683673 0.539819 -0.310390
C33   C     C_3   0.143463 0.736925 0.629978 -0.326961
C34   C     C_3   0.098159 0.869280 0.642420 -0.948685
H32   H     H_    0.157031 0.932647 0.591851 0.267466
H33   H     H_    0.989761 0.867014 0.638931 0.264004
H34   H     H_    0.113624 0.907072 0.706833 0.258562
H35   H     H_    0.079867 0.675404 0.679776 0.215480
H36   H     H_    0.249012 0.739450 0.640117 0.248364
H37   H     H_    0.205729 0.736582 0.490311 0.201710
H38   H     H_    0.033266 0.701635 0.524058 0.158845
O11   O     O_3   0.358885 0.677409 0.952288 -0.813814
H39   H     H_    0.337454 0.685991 0.893701 0.323626
C35   C     C_3   0.899992 0.359086 0.400294 -0.219759
C36   C     C_3   0.852221 0.368347 0.314083 -0.293388
C37   C     C_3   0.937796 0.297739 0.242143 -0.962117
H40   H     H_    0.041776 0.344685 0.227982 0.273413
H41   H     H_    0.940696 0.198582 0.261015 0.279355
H42   H     H_    0.893166 0.297115 0.182681 0.258783
H43   H     H_    0.748257 0.323385 0.319999 0.291862
H44   H     H_    0.857232 0.468703 0.295469 0.225120
H45   H     H_    0.011278 0.375827 0.385389 0.201395
H46   H     H_    0.871168 0.261989 0.425099 0.179464
C38   C     C_3   0.771008 0.544347 0.904272 -0.406623
C39   C     C_3   0.826651 0.545354 0.806114 -0.378056
C40   C     C_3   0.945053 0.465896 0.782763 -0.918215
H47   H     H_    0.028188 0.503319 0.816260 0.267509
H48   H     H_    0.914130 0.365897 0.800091 0.261441
H49   H     H_    0.981857 0.468795 0.712044 0.257542
H50   H     H_    0.750247 0.508207 0.767812 0.243174
H51   H     H_    0.863622 0.643263 0.785790 0.232910
H52   H     H_    0.847942 0.604220 0.933445 0.185977
H53   H     H_    0.775553 0.450733 0.931065 0.188778
C41   C     C_3   0.639872 0.737311 0.910734 -0.305345
C42   C     C_3   0.628460 0.769166 0.817076 -0.333664
C43   C     C_3   0.706522 0.895124 0.789618 -0.955779
H54   H     H_    0.671884 0.970286 0.836134 0.281093
H55   H     H_    0.815679 0.889924 0.787294 0.264959
H56   H     H_    0.690505 0.918330 0.724062 0.256539
H57   H     H_    0.666392 0.698738 0.768974 0.221136
H58   H     H_    0.522133 0.775704 0.812065 0.226807
H59   H     H_    0.566890 0.791382 0.954073 0.223572
H60   H     H_    0.738031 0.781933 0.924026 0.179209
C44   C     C_3   0.593424 0.275868 0.883534 -0.425533
C45   C     C_3   0.515307 0.198322 0.820463 -0.341961
C46   C     C_3   0.603515 0.179377 0.732313 -0.884801
H61   H     H_    0.625351 0.269669 0.697015 0.278331
H62   H     H_    0.700572 0.146054 0.739917 0.264837
H63   H     H_    0.550698 0.109595 0.693111 0.247771
H64   H     H_    0.476509 0.104960 0.849180 0.225882
H65   H     H_    0.427136 0.245081 0.809311 0.223456
H66   H     H_    0.678558 0.330581 0.844659 0.246880
H67   H     H_    0.636481 0.208580 0.921148 0.198953
O12   O     O_3   0.444616 0.268371 0.087046 -0.786116
H68   H     H_    0.491894 0.240317 0.132138 0.344790

loop_
_geom_bond_atom_site_label_1
_geom_bond_atom_site_label_2
_ccdc_geom_bond_type
C24   H12   S    
C15   O10   S    
O11   H39   S    
C40   H47   S    
N1    Zn2   S    
C2    C18   S    
O4    Zn2   S    
C19   C20   S    
O2    Zn2   S    
C14   N1    D    
C28   H16   S    
C3    C6    S    
C1    O1    A    
C7    C8    T    
O7    Zn1   S    
C27   H20   S    
C26   C27   S    
C45   C46   S    
C38   H53   S    
C39   H50   S    
C5    C44   S    
O6    Zn2   S    
C4    H2    S    
C45   H65   S    
C23   H15   S    
C29   H29   S    
C17   O7    A    
C25   H10   S    
C42   C43   S    
C46   H63   S    
C18   C26   S    
N2    C32   S    
C26   H21   S    
C33   H35   S    
C30   H28   S    
C5    C22   S    
C30   H27   S    
N1    C35   S    
C1    O2    A    
N2    Zn1   S    
C14   H5    S    
C12   O4    A    
C9    C10   D    
C16   O5    A    
C20   H7    S    
C44   H67   S    
O8    Zn2   S    
C30   C31   S    
C32   H37   S    
C40   H48   S    
C41   H60   S    
C27   H19   S    
C19   C41   S    
C41   H59   S    
C31   H24   S    
C15   N2    D    
C19   C22   S    
C1    C9    S    
C37   H40   S    
C34   H33   S    
C19   C38   S    
C33   C34   S    
C20   H6    S    
C11   H4    S    
C32   C33   S    
C6    C21   T    
C17   C21   S    
C29   H30   S    
C34   H32   S    
C35   H45   S    
C31   H25   S    
C17   O8    A    
O10   H31   S    
C37   H41   S    
C11   C16   S    
C38   C39   S    
C13   O9    S    
C2    C23   S    
C8    C12   S    
C3    C20   S    
C43   H55   S    
C12   O3    A    
C46   H61   S    
C10   H3    S    
C32   H38   S    
C40   H49   S    
C28   H17   S    
C23   C24   S    
C25   H9    S    
C3    C4    S    
C42   H58   S    
C24   C25   S    
O12   H68   S    
C25   H11   S    
C24   H13   S    
C27   C28   S    
C43   H54   S    
C18   C22   S    
C4    C5    S    
C10   C13   S    
C36   H43   S    
C34   H34   S    
C44   C45   S    
C36   H44   S    
C4    O12   S    
C7    C22   S    
C38   H52   S    
C39   H51   S    
C18   O11   S    
C35   H46   S    
C31   H26   S    
O1    Zn1   S    
C2    C3    S    
C41   C42   S    
C37   H42   S    
C11   C13   D    
C23   H14   S    
C36   C37   S    
C39   C40   S    
C45   H64   S    
C43   H56   S    
O5    Zn1   S    
O3    Zn1   S    
C9    C29   S    
C46   H62   S    
O9    H23   S    
C33   H36   S    
C26   H22   S    
C29   C30   S    
C5    H8    S    
C28   H18   S    
C2    H1    S    
C14   C15   S    
C35   C36   S    
C42   H57   S    
C16   O6    A    
C44   H66   S    
