data_mof_unit_50070.cif
_audit_creation_date              2012-12-10T17:42:43-0500
_audit_creation_method            fapswitch 2.2
_symmetry_space_group_name_H-M    P1
_symmetry_Int_Tables_number       1
_space_group_crystal_system       triclinic
_cell_length_a                    9.900425
_cell_length_b                    10.724353
_cell_length_c                    13.103208
_cell_angle_alpha                 91.244145
_cell_angle_beta                  69.8353
_cell_angle_gamma                 89.489951
_cell_volume                      1305.45938335

loop_
_atom_site_label
_atom_site_type_symbol
_atom_type_description
_atom_site_fract_x
_atom_site_fract_y
_atom_site_fract_z
_atom_type_partial_charge
C1    C     C_R   0.501479 0.739980 0.492885 0.871612
C2    C     C_R   0.366973 0.490687 0.822513 -0.120048
C3    C     C_R   0.249794 0.890766 0.476520 -0.147357
C4    C     C_R   0.419799 0.495578 0.704192 0.836574
C5    C     C_R   0.116836 0.952933 0.511172 -0.265032
C6    C     C_R   0.099677 0.066713 0.567970 0.068151
C7    C     C_R   0.220542 0.122159 0.580868 -0.133447
C8    C     C_R   0.358707 0.064871 0.535937 0.049316
C9    C     C_R   0.368995 0.940929 0.499138 0.105141
C10   C     C_R   0.498490 0.873769 0.487198 -0.106237
C11   C     C_R   0.621879 0.935922 0.487243 -0.224594
C12   C     C_R   0.431064 0.483864 0.984687 0.080491
C13   C     C_R   0.618194 0.062836 0.500378 -0.215391
C14   C     C_R   0.488359 0.128128 0.522437 -0.116959
C15   C     C_R   0.795585 0.665819 0.641614 -0.176758
C16   C     C_R   0.495413 0.260879 0.510144 0.867710
C17   C     C_R   0.833853 0.745159 0.712183 -0.254829
C18   C     C_R   0.973063 0.742088 0.713922 0.031724
C19   C     C_R   0.074721 0.659969 0.644078 -0.218995
C20   C     C_R   0.039853 0.579549 0.570809 0.154846
C21   C     C_R   0.895562 0.580871 0.570111 0.194296
C22   C     C_R   0.959879 0.423037 0.432768 -0.088699
C23   C     C_R   0.457323 0.444755 0.876318 0.076422
C24   C     C_R   0.103157 0.423337 0.432566 -0.062835
C25   C     C_R   0.580168 0.499939 0.295898 0.887935
C26   C     C_R   0.756968 0.348274 0.024885 -0.181876
C27   C     C_R   0.630243 0.482760 0.178660 -0.105060
C28   C     C_R   0.233923 0.546867 0.882567 -0.178667
C29   C     C_R   0.194987 0.563429 0.994574 -0.136502
C30   C     C_R   0.293351 0.534248 0.045426 -0.176784
C31   C     C_2   0.956679 0.128870 0.609179 0.341209
C32   C     C_1   0.012842 0.824979 0.786420 0.147013
C33   C     C_1   0.469414 0.648212 0.159572 0.148067
C34   C     C_R   0.541152 0.465080 0.029172 0.031710
C35   C     C_R   0.655904 0.379565 0.976246 0.139275
C36   C     C_R   0.667296 0.325198 0.876103 -0.200544
C37   C     C_R   0.571840 0.360039 0.824992 -0.173999
C38   C     C_R   0.543161 0.528925 0.123467 -0.057799
C39   C     C_R   0.740515 0.395842 0.128049 -0.219732
H1    H     H_    0.808981 0.360356 0.170287 0.158473
H2    H     H_    0.751777 0.257412 0.836490 0.193499
H3    H     H_    0.182636 0.360520 0.377634 0.143395
H4    H     H_    0.843257 0.281553 0.986023 0.153012
H5    H     H_    0.161450 0.579916 0.842821 0.160530
H6    H     H_    0.258221 0.547182 0.132730 0.146063
H7    H     H_    0.090574 0.603298 0.041527 0.154061
H8    H     H_    0.585243 0.316393 0.746763 0.174910
H9    H     H_    0.722438 0.886821 0.475755 0.166740
H10   H     H_    0.862386 0.079277 0.607560 0.055642
H11   H     H_    0.257674 0.806091 0.428655 0.187008
H12   H     H_    0.026884 0.911111 0.494817 0.139047
H13   H     H_    0.205728 0.209278 0.626938 0.190788
H14   H     H_    0.717913 0.109793 0.491313 0.167106
H15   H     H_    0.931565 0.360060 0.378023 0.129880
H16   H     H_    0.686823 0.674950 0.645835 0.215128
H17   H     H_    0.754127 0.809325 0.765608 0.159643
H18   H     H_    0.180068 0.661938 0.648457 0.208418
N1    N     N_R   0.856860 0.501200 0.500990 -0.113347
N2    N     N_R   0.142450 0.501280 0.501020 -0.116300
N3    N     N_1   0.045016 0.891618 0.844505 -0.208563
N4    N     N_1   0.411210 0.743395 0.188543 -0.216870
O1    O     O_R   0.385310 0.683220 0.500000 -0.650571
O2    O     O_R   0.614640 0.683250 0.500010 -0.640456
O3    O     O_R   0.328400 0.499950 0.653610 -0.629508
O4    O     O_R   0.557730 0.499970 0.653620 -0.621237
O5    O     O_R   0.385360 0.316750 0.499990 -0.617074
O6    O     O_R   0.614690 0.316780 0.500000 -0.616144
O7    O     O_R   0.442270 0.500030 0.346380 -0.608482
O8    O     O_R   0.671600 0.500050 0.346390 -0.615813
O9    O     O_2   0.942633 0.236357 0.644310 -0.597933
Zn1   Zn    Zn3+2 0.346880 0.499980 0.499990 0.940083
Zn2   Zn    Zn3+2 0.653120 0.500020 0.500010 0.939523

loop_
_geom_bond_atom_site_label_1
_geom_bond_atom_site_label_2
_ccdc_geom_bond_type
C22   N1    A    
O8    Zn2   S    
C2    C4    S    
C29   C30   A    
C3    C9    A    
C14   C16   S    
C37   H8    S    
O4    Zn2   S    
C24   H3    S    
C9    C10   A    
C4    O3    A    
C30   H6    S    
O5    Zn1   S    
C12   C23   A    
C15   C21   A    
C29   H7    S    
C1    O1    A    
C19   C20   A    
C17   C18   A    
C36   H2    S    
C21   N1    A    
C22   H15   S    
C16   O6    A    
C23   C37   A    
C13   C14   A    
C19   H18   S    
C20   N2    A    
C11   C13   A    
C17   H17   S    
N1    Zn2   S    
C11   H9    S    
C6    C7    A    
C25   O7    A    
C31   H10   S    
O7    Zn1   S    
C33   C38   S    
C1    O2    A    
C36   C37   A    
O2    Zn2   S    
C3    H11   S    
O1    Zn1   S    
C26   H4    S    
C6    C31   S    
C13   H14   S    
C24   N2    A    
C5    C6    A    
C34   C35   A    
C22   C24   A    
C26   C39   A    
C25   O8    A    
C10   C11   A    
C32   N3    T    
C27   C38   A    
C12   C34   A    
C39   H1    S    
C26   C35   A    
C7    C8    A    
C18   C32   S    
C20   C21   A    
C33   N4    T    
O6    Zn2   S    
C1    C10   S    
O3    Zn1   S    
N2    Zn1   S    
C2    C23   A    
C15   C17   A    
C18   C19   A    
C4    O4    A    
C28   C29   A    
C16   O5    A    
C2    C28   A    
C8    C14   A    
C12   C30   A    
C34   C38   A    
C28   H5    S    
C31   O9    D    
C5    H12   S    
C7    H13   S    
C35   C36   A    
C27   C39   A    
C8    C9    A    
C3    C5    A    
C25   C27   S    
C15   H16   S    
