data_mof_unit_58941.cif
_audit_creation_date              2013-03-05T15:52:43-0500
_audit_creation_method            fapswitch 2.2
_symmetry_space_group_name_H-M    P1
_symmetry_Int_Tables_number       1
_space_group_crystal_system       triclinic
_cell_length_a                    10.736376
_cell_length_b                    10.764334
_cell_length_c                    17.028474
_cell_angle_alpha                 99.679607
_cell_angle_beta                  100.004438
_cell_angle_gamma                 61.355129
_cell_volume                      1692.63397003

loop_
_atom_site_label
_atom_site_type_symbol
_atom_site_description
_atom_site_fract_x
_atom_site_fract_y
_atom_site_fract_z
_atom_type_partial_charge
O1    O     O_R   0.749250 0.499990 0.439200 -0.474450
O2    O     O_R   0.477870 0.725740 0.440280 -0.436425
C1    C     C_R   0.353611 0.777399 0.402378 0.590651
O3    O     O_R   0.260770 0.742210 0.412610 -0.482833
O4    O     O_R   0.297990 0.466320 0.394220 -0.493134
C2    C     C_R   0.369379 0.346528 0.357161 0.559137
O5    O     O_R   0.487720 0.253870 0.385870 -0.420729
O6    O     O_R   0.721940 0.304340 0.422320 -0.424876
C3    C     C_R   0.773739 0.377518 0.403548 0.584261
O7    O     O_R   0.750770 0.502570 0.614050 -0.476463
O8    O     O_R   0.479280 0.728140 0.602370 -0.479842
C4    C     C_R   0.381142 0.715547 0.631613 0.533258
O9    O     O_R   0.262290 0.744790 0.587460 -0.478623
O10   O     O_R   0.299400 0.468710 0.556310 -0.499142
C5    C     C_R   0.369593 0.346581 0.582228 0.567766
O11   O     O_R   0.489240 0.256450 0.560730 -0.521087
O12   O     O_R   0.723350 0.306730 0.584410 -0.518393
C6    C     C_R   0.773228 0.381089 0.629705 0.550787
Cr1   Cr    Cr6+3 0.608020 0.610770 0.522990 1.150051
Cr2   Cr    Cr6+3 0.289390 0.599570 0.488050 1.116297
Cr3   Cr    Cr6+3 0.602610 0.289690 0.489020 1.149690
O13   O     O_3   0.500010 0.500010 0.500020 -0.331379
C7    C     C_1   0.343025 0.336590 0.273793 0.026912
C8    C     C_1   0.332143 0.326433 0.202946 0.048752
C9    C     C_2   0.835556 0.330859 0.327904 -0.075340
C10   C     C_2   0.807291 0.338228 0.152192 0.123992
C11   C     C_2   0.823222 0.227377 0.188653 0.162455
C12   C     C_2   0.797653 0.246218 0.272090 0.385663
H1    H     H_    0.892429 0.382684 0.312730 0.081742
C13   C     C_2   0.324377 0.857917 0.334726 -0.066508
C14   C     C_2   0.341935 0.834286 0.161543 0.398392
C15   C     C_2   0.406524 0.892049 0.219879 -0.082101
C16   C     C_2   0.427259 0.867310 0.304416 0.196277
H2    H     H_    0.441360 0.964936 0.206256 0.131186
H3    H     H_    0.221330 0.886294 0.299637 0.160822
C17   C     C_2   0.347360 0.330306 0.659630 0.397832
C18   C     C_2   0.332069 0.359667 0.834800 0.237867
C19   C     C_2   0.451448 0.286257 0.798274 0.346818
C20   C     C_2   0.454529 0.313179 0.718458 -0.044503
H4    H     H_    0.552929 0.308245 0.706147 0.085244
C21   C     C_1   0.817258 0.342294 0.708793 0.014124
C22   C     C_1   0.843840 0.313727 0.776420 0.010789
C23   C     C_1   0.357953 0.767064 0.713397 0.022008
C24   C     C_1   0.324580 0.814477 0.779981 0.053441
O14   O     O_R   0.170650 0.915100 0.051290 -0.437555
O15   O     O_R   0.941960 0.184500 0.049060 -0.478577
C25   C     C_R   0.890729 0.309097 0.085494 0.538918
O16   O     O_R   0.922640 0.402670 0.071640 -0.456994
O17   O     O_R   0.196880 0.368740 0.083740 -0.489686
C26   C     C_R   0.319301 0.299636 0.119703 0.571870
O18   O     O_R   0.411120 0.181190 0.091480 -0.476331
O19   O     O_R   0.364220 0.944920 0.062310 -0.538028
C27   C     C_R   0.293817 0.892856 0.084683 0.563833
O20   O     O_R   0.158740 0.906940 0.874970 -0.454539
O21   O     O_R   0.930920 0.176940 0.885610 -0.468149
C28   C     C_R   0.885165 0.297159 0.858671 0.565376
O22   O     O_R   0.910730 0.394510 0.895320 -0.482189
O23   O     O_R   0.185840 0.361180 0.920280 -0.471806
C29   C     C_R   0.307062 0.295456 0.894974 0.573118
O24   O     O_R   0.399210 0.173040 0.915160 -0.437184
O25   O     O_R   0.353170 0.937370 0.898860 -0.497528
C30   C     C_R   0.279622 0.882350 0.856845 0.570612
Cr4   Cr    Cr6+3 0.053780 0.052210 0.965970 1.174443
Cr5   Cr    Cr6+3 0.060060 0.372530 0.992430 1.147791
Cr6   Cr    Cr6+3 0.372600 0.061970 0.991430 1.136778
O26   O     O_3   0.162150 0.162240 0.983280 -0.327797
N1    N     N_R   0.861722 0.087900 0.147221 0.110465
O27   O     O_R   0.951362 0.975772 0.183420 -0.253116
O28   O     O_R   0.784849 0.073114 0.081789 -0.258323
N2    N     N_R   0.221929 0.495831 0.810131 0.078491
O29   O     O_R   0.256394 0.585726 0.790099 -0.375040
O30   O     O_R   0.087319 0.530866 0.807690 -0.233824
F1    F     F_    0.226207 0.327094 0.670115 -0.608857
F2    F     F_    0.731129 0.175496 0.289940 -0.545265
N3    N     N_R   0.720770 0.483858 0.183265 0.039701
O31   O     O_R   0.602911 0.518624 0.212649 -0.297968
O32   O     O_R   0.750581 0.584372 0.174911 -0.252040
N4    N     N_R   0.552792 0.863187 0.353151 0.107328
O33   O     O_R   0.670156 0.817520 0.320648 -0.226353
O34   O     O_R   0.542392 0.930566 0.424683 -0.311033
F3    F     F_    0.301229 0.739192 0.176187 -0.583604
F4    F     F_    0.567746 0.173262 0.829604 -0.597324

loop_
_geom_bond_atom_site_label_1
_geom_bond_atom_site_label_2
_geom_bond_distance
_ccdc_geom_bond_type
O21   C28   1.279934 A    
O11   Cr3   2.044889 S    
C21   C22   1.192850 T    
C23   C24   1.202358 T    
C12   F2    1.362563 S    
C3    C9    1.453225 S    
O4    Cr2   1.942265 S    
C9    C12   1.352372 D    
O8    Cr1   1.932467 S    
C10   C11   1.362038 D    
C13   H3    1.087211 S    
C4    C23   1.427363 S    
C19   C20   1.445547 S    
N4    O34   1.301826 A    
C16   N4    1.439990 S    
O16   Cr5   2.046149 S    
O20   Cr4   2.053963 S    
C5    O11   1.254786 A    
C28   O22   1.248708 A    
O18   Cr6   2.061397 S    
C22   C28   1.408048 S    
C14   C15   1.349300 D    
O6    C3    1.264275 A    
O21   Cr4   1.925576 S    
C7    C8    1.183198 T    
N2    O29   1.299161 A    
C13   C16   1.348865 D    
Cr4   O26   1.981938 S    
O14   C27   1.268972 A    
C29   O24   1.271849 A    
O17   Cr5   1.935820 S    
C18   N2    1.447694 S    
C19   F4    1.361534 S    
C9    H1    1.086611 S    
O12   C6    1.257859 A    
C8    C26   1.394357 S    
O1    Cr1   2.050106 S    
N1    O27   1.301293 A    
O10   Cr2   1.925851 S    
Cr1   O13   1.982517 S    
O1    C3    1.276590 A    
C6    C21   1.410762 S    
C20   H4    1.087332 S    
N4    O33   1.301038 A    
O20   C30   1.277513 A    
O23   Cr5   1.927651 S    
C24   C30   1.428204 S    
O23   C29   1.260806 A    
O5    Cr3   2.056917 S    
O14   Cr4   2.043448 S    
O12   Cr3   1.936163 S    
N1    O28   1.301842 A    
C15   H2    1.087184 S    
C1    C13   1.458128 S    
N3    O31   1.301759 A    
C18   C19   1.339666 D    
C25   O16   1.275318 A    
O7    Cr1   2.044510 S    
O6    Cr3   1.927650 S    
C26   O18   1.257733 A    
C14   C27   1.451770 S    
N3    O32   1.301129 A    
C18   C29   1.453078 S    
C10   C25   1.468060 S    
Cr2   O13   1.973163 S    
O24   Cr6   2.043631 S    
Cr6   O26   1.972993 S    
C1    O3    1.269617 A    
C5    C17   1.432456 S    
O19   C27   1.268289 A    
O22   Cr5   2.051257 S    
O15   C25   1.271910 A    
O9    Cr2   2.058890 S    
O2    Cr1   1.926698 S    
C17   C20   1.348949 D    
O8    C4    1.310906 A    
C2    O5    1.257485 A    
C14   F3    1.361478 S    
O15   Cr4   1.935102 S    
C15   C16   1.467476 S    
O2    C1    1.271157 A    
O4    C2    1.263049 A    
O7    C6    1.277409 A    
C2    C7    1.394728 S    
O25   C30   1.263230 A    
C11   N1    1.439744 S    
C17   F1    1.360483 S    
O3    Cr2   2.043531 S    
O25   Cr6   1.941717 S    
C4    O9    1.285997 A    
C10   N3    1.447751 S    
O17   C26   1.261760 A    
C11   C12   1.456152 S    
O10   C5    1.273058 A    
N2    O30   1.301711 A    
Cr3   O13   1.977894 S    
O19   Cr6   1.926191 S    
Cr5   O26   1.977785 S    
