data_mof_unit_24655.cif
_audit_creation_date              2012-12-11T15:50:04-0500
_audit_creation_method            fapswitch 2.2
_symmetry_space_group_name_H-M    P1
_symmetry_Int_Tables_number       1
_space_group_crystal_system       triclinic
_cell_length_a                    16.563376
_cell_length_b                    7.241317
_cell_length_c                    15.263279
_cell_angle_alpha                 90.004329
_cell_angle_beta                  94.66748
_cell_angle_gamma                 90.011698
_cell_volume                      1824.61660414

loop_
_atom_site_label
_atom_site_type_symbol
_atom_type_description
_atom_site_fract_x
_atom_site_fract_y
_atom_site_fract_z
_atom_type_partial_charge
O1    O     O_R   0.663460 0.361880 0.165960 -0.544956
O2    O     O_R   0.336540 0.638120 0.834040 -0.546582
O3    O     O_R   0.836540 0.861880 0.334040 -0.546687
O4    O     O_R   0.163460 0.138120 0.665960 -0.517738
O5    O     O_R   0.827100 0.690020 0.163730 -0.538581
O6    O     O_R   0.172900 0.309980 0.836270 -0.531352
O7    O     O_R   0.672900 0.190020 0.336270 -0.538766
O8    O     O_R   0.327100 0.809980 0.663730 -0.541374
C1    C     C_R   0.853274 0.523032 0.143516 0.707650
C2    C     C_R   0.146738 0.476974 0.856501 0.723556
C3    C     C_R   0.646721 0.023026 0.356478 0.703955
C4    C     C_R   0.353249 0.976978 0.643485 0.694599
O9    O     O_R   0.663490 0.691490 0.155490 -0.511981
O10   O     O_R   0.336510 0.308510 0.844510 -0.514775
O11   O     O_R   0.836510 0.191490 0.344510 -0.510645
O12   O     O_R   0.163490 0.808510 0.655490 -0.520441
O13   O     O_R   0.671770 0.863400 0.325740 -0.534469
O14   O     O_R   0.328230 0.136600 0.674260 -0.537412
O15   O     O_R   0.828230 0.363400 0.174260 -0.533631
O16   O     O_R   0.171770 0.636600 0.825740 -0.535547
C5    C     C_R   0.635149 0.522528 0.134465 0.746248
C6    C     C_R   0.364851 0.477472 0.865536 0.738405
C7    C     C_R   0.864908 0.022486 0.365536 0.740325
C8    C     C_R   0.135481 0.977356 0.634084 0.783600
O17   O     O_3   0.752910 0.528900 0.305870 -0.375714
O18   O     O_3   0.247090 0.471100 0.694130 -0.372294
O19   O     O_3   0.747090 0.028900 0.194130 -0.373559
O20   O     O_3   0.252910 0.971100 0.805870 -0.377330
V1    V     V_3+5 0.749460 0.803130 0.239640 1.437495
V2    V     V_3+5 0.250540 0.196870 0.760360 1.475209
V3    V     V_3+5 0.750540 0.303130 0.260360 1.437222
V4    V     V_3+5 0.249460 0.696870 0.739640 1.446120
C9    C     C_R   0.935892 0.122990 0.509946 0.357424
C10   C     C_R   0.064466 0.875531 0.490231 0.394882
C11   C     C_R   0.566456 0.616223 0.988399 0.425577
C12   C     C_R   0.433544 0.383777 0.011603 0.425461
C13   C     C_R   0.002556 0.116127 0.573850 0.081871
C14   C     C_R   0.998813 0.883572 0.425737 0.078724
C15   C     C_R   0.500907 0.608764 0.923629 0.076950
C16   C     C_R   0.499093 0.391235 0.076372 0.076834
C17   C     C_R   0.066294 0.989123 0.565421 -0.253531
C18   C     C_R   0.934147 0.009706 0.434315 -0.272049
C19   C     C_R   0.434204 0.489744 0.934065 -0.297220
C20   C     C_R   0.565796 0.510255 0.065936 -0.299418
C21   C     C_1   0.415942 0.986129 0.581366 -0.185247
C22   C     C_1   0.584020 0.013874 0.418586 -0.188317
C23   C     C_1   0.084034 0.486137 0.918609 -0.191109
C24   C     C_1   0.915990 0.513880 0.081424 -0.189163
C25   C     C_1   0.468776 0.994729 0.530054 0.000642
C26   C     C_1   0.531182 0.005271 0.469894 0.000535
C27   C     C_1   0.031208 0.494744 0.969931 0.000080
C28   C     C_1   0.968821 0.505280 0.030109 0.001067
O21   O     O_3   0.874061 0.247655 0.520587 -0.541251
C29   C     C_3   0.809656 0.154678 0.557114 0.115035
H1    H     H_    0.829771 0.092851 0.622033 0.100440
H2    H     H_    0.784221 0.043463 0.512722 0.094436
C30   C     C_3   0.742263 0.291962 0.570400 -0.688385
H3    H     H_    0.720447 0.355100 0.506499 0.232125
H4    H     H_    0.690878 0.220199 0.598225 0.171977
H5    H     H_    0.764942 0.402575 0.616457 0.211514
O22   O     O_3   0.126308 0.750682 0.480190 -0.526748
C31   C     C_3   0.187778 0.839943 0.437113 0.141196
H6    H     H_    0.212217 0.961575 0.475361 0.074024
H7    H     H_    0.164572 0.885852 0.370078 0.130332
C32   C     C_3   0.257089 0.705376 0.428027 -0.686083
H8    H     H_    0.235340 0.584428 0.388023 0.219416
H9    H     H_    0.306301 0.774688 0.395217 0.168798
H10   H     H_    0.281577 0.657003 0.493951 0.228748
O23   O     O_3   0.630549 0.733740 0.976441 -0.526849
C33   C     C_3   0.690416 0.634660 0.935241 0.137085
H11   H     H_    0.666265 0.583196 0.869457 0.128783
H12   H     H_    0.713240 0.515567 0.976325 0.080824
C34   C     C_3   0.761530 0.762108 0.922587 -0.691533
H13   H     H_    0.786972 0.816045 0.987142 0.228618
H14   H     H_    0.809568 0.685022 0.891378 0.168645
H15   H     H_    0.741332 0.879956 0.879679 0.220018
O24   O     O_3   0.369451 0.266264 0.023561 -0.527386
C35   C     C_3   0.309592 0.365341 0.064777 0.135916
H16   H     H_    0.286756 0.484425 0.023693 0.079986
H17   H     H_    0.333755 0.416817 0.130554 0.130231
C36   C     C_3   0.238486 0.237885 0.077455 -0.690273
H18   H     H_    0.258697 0.120045 0.120360 0.220774
H19   H     H_    0.190454 0.314969 0.108676 0.171125
H20   H     H_    0.213030 0.183939 0.012907 0.227023
N1    N     N_3   0.004845 0.236681 0.648644 -0.632409
H21   H     H_    0.954712 0.209273 0.683881 0.222961
H22   H     H_    0.000708 0.372996 0.626124 0.261993
N2    N     N_3   0.001262 0.765450 0.350487 -0.624997
H23   H     H_    0.955678 0.666030 0.351806 0.259720
H24   H     H_    0.992074 0.844693 0.293288 0.212909
N3    N     N_3   0.505347 0.719779 0.846292 -0.625805
H25   H     H_    0.495423 0.635941 0.790684 0.211872
H26   H     H_    0.460731 0.821857 0.845199 0.256732
N4    N     N_3   0.494655 0.280218 0.153709 -0.625493
H27   H     H_    0.539270 0.178140 0.154801 0.257234
H28   H     H_    0.504579 0.364055 0.209317 0.212181

loop_
_geom_bond_atom_site_label_1
_geom_bond_atom_site_label_2
_ccdc_geom_bond_type
O17   V3    S    
O1    C5    A    
O19   V1    S    
O13   V1    S    
C34   H13   S    
O3    C7    A    
O15   V3    S    
C36   H18   S    
O24   C35   S    
O7    C3    A    
C7    C18   S    
C9    C18   A    
C13   N1    S    
C14   C18   A    
C12   O24   S    
O4    C8    A    
C35   H17   S    
C30   H4    S    
O1    V3    S    
O2    V4    S    
O3    V1    S    
C31   H7    S    
C1    O15   A    
O21   C29   S    
C2    O16   A    
C32   H9    S    
O2    C6    A    
C33   H11   S    
O14   V2    S    
C16   C20   A    
O11   C7    A    
O12   C8    A    
C8    C17   S    
C34   H14   S    
O22   C31   S    
C10   C17   A    
O10   V2    S    
C15   N3    S    
C36   H19   S    
O5    V1    S    
N1    H22   S    
C9    O21   S    
C29   H2    S    
O7    V3    S    
C27   C28   S    
O8    V4    S    
C12   C16   A    
N3    H25   S    
O18   V4    S    
C30   H5    S    
C15   C19   A    
N1    H21   S    
C10   O22   S    
C9    C13   A    
C14   N2    S    
C11   C15   A    
O5    C1    A    
C31   H6    S    
N3    H26   S    
C5    C20   S    
C6    C19   S    
C21   C25   T    
O8    C4    A    
C32   H10   S    
C33   C34   S    
O9    C5    A    
N4    H28   S    
C11   C20   A    
O6    V2    S    
N2    H24   S    
C32   H8    S    
C34   H15   S    
C36   H20   S    
O16   V4    S    
O9    V1    S    
C29   H1    S    
C3    O13   A    
C31   C32   S    
C10   C14   A    
C16   N4    S    
C4    C21   S    
C12   C19   A    
O6    C2    A    
C23   C27   T    
O11   V3    S    
O12   V4    S    
C22   C26   T    
O10   C6    A    
O20   V2    S    
C35   H16   S    
C35   C36   S    
C30   H3    S    
C13   C17   A    
N4    H27   S    
O23   C33   S    
C24   C28   T    
N2    H23   S    
C11   O23   S    
C1    C24   S    
C25   C26   S    
C4    O14   A    
C2    C23   S    
C3    C22   S    
C33   H12   S    
O4    V2    S    
C29   C30   S    
