data_mof_unit_19099.cif
_audit_creation_date              2012-12-11T17:43:44-0500
_audit_creation_method            fapswitch 2.2
_symmetry_space_group_name_H-M    P1
_symmetry_Int_Tables_number       1
_space_group_crystal_system       triclinic
_cell_length_a                    15.153559
_cell_length_b                    15.094269
_cell_length_c                    16.986793
_cell_angle_alpha                 107.938571
_cell_angle_beta                  105.317195
_cell_angle_gamma                 109.937824
_cell_volume                      3165.09567016

loop_
_atom_site_label
_atom_site_type_symbol
_atom_type_description
_atom_site_fract_x
_atom_site_fract_y
_atom_site_fract_z
_atom_type_partial_charge
Br1   Br    Br    0.560527 0.846925 0.603248 -0.628933
Br2   Br    Br    0.503881 0.167384 0.159924 -0.621515
Br3   Br    Br    0.765920 0.132012 0.606085 -0.552908
Br4   Br    Br    0.215746 0.866678 0.399209 -0.595820
C1    C     C_R   0.088341 0.275188 0.027846 -0.116648
C2    C     C_R   0.093495 0.069937 0.950704 -0.226599
C3    C     C_R   0.007533 0.887823 0.920388 0.042775
C4    C     C_R   0.999239 0.073570 0.932349 0.067254
C5    C     C_R   0.099148 0.977587 0.944402 0.060777
C6    C     C_R   0.906745 0.977202 0.889632 0.060350
C7    C     C_R   0.743785 0.928752 0.763997 -0.198387
C8    C     C_R   0.288637 0.057286 0.039155 -0.248007
C9    C     C_R   0.591008 0.914307 0.790448 -0.190892
C10   C     C_R   0.393246 0.982042 0.989291 -0.168636
C11   C     C_R   0.526128 0.691973 0.319131 -0.092833
C12   C     C_R   0.916882 0.711036 0.920403 -0.123015
C13   C     C_R   0.482723 0.323219 0.675888 -0.115650
C14   C     C_R   0.516243 0.659934 0.229377 -0.146999
C15   C     C_R   0.486301 0.347432 0.763444 -0.129451
C16   C     C_R   0.936913 0.514705 0.745392 -0.076861
C17   C     C_R   0.062311 0.543439 0.264064 -0.084443
C18   C     C_R   0.516803 0.565105 0.183425 0.110987
C19   C     C_R   0.486985 0.441517 0.813332 0.117675
C20   C     C_R   0.528620 0.503922 0.229530 -0.163901
C21   C     C_R   0.482994 0.510038 0.773550 -0.171477
C22   C     C_R   0.538835 0.536567 0.319325 -0.116575
C23   C     C_R   0.027891 0.573445 0.742131 0.056098
C24   C     C_R   0.479529 0.485421 0.686096 -0.101137
C25   C     C_R   0.537381 0.630386 0.364015 -0.069801
C26   C     C_R   0.479548 0.392157 0.637365 -0.088800
C27   C     C_R   0.572572 0.495878 0.064335 -0.211708
C28   C     C_R   0.425784 0.502322 0.930411 -0.228327
C29   C     C_R   0.567078 0.467187 0.975913 0.068122
C30   C     C_R   0.430957 0.530498 0.018699 0.063805
C31   C     C_R   0.493690 0.469988 0.907563 0.014427
C32   C     C_R   0.505669 0.529777 0.087581 0.016652
C33   C     C_R   0.639142 0.903289 0.730761 0.402442
C34   C     C_R   0.970690 0.529288 0.273495 0.069299
C35   C     C_R   0.384594 0.059105 0.053350 0.399146
C36   C     C_R   0.961982 0.572261 0.359677 0.121530
C37   C     C_R   0.035727 0.611977 0.673508 0.117586
C38   C     C_R   0.137963 0.682118 0.599051 -0.193275
C39   C     C_R   0.859859 0.555146 0.447293 -0.191883
C40   C     C_R   0.726519 0.211994 0.822993 -0.099947
C41   C     C_R   0.261698 0.794293 0.180099 -0.099292
C42   C     C_R   0.132137 0.663787 0.673217 -0.181730
C43   C     C_R   0.865470 0.539580 0.364016 -0.146924
C44   C     C_R   0.945696 0.588394 0.602681 -0.254551
C45   C     C_R   0.679655 0.212443 0.743107 0.070764
C46   C     C_R   0.051992 0.634926 0.440406 -0.211014
C47   C     C_R   0.950495 0.599209 0.525431 0.177195
C48   C     C_R   0.047328 0.643249 0.522637 0.166439
C49   C     C_R   0.600577 0.123863 0.664627 0.034779
C50   C     C_R   0.382202 0.887028 0.340550 0.030083
C51   C     C_R   0.561767 0.998929 0.427712 -0.114732
C52   C     C_R   0.420337 0.014407 0.577448 -0.109881
C53   C     C_R   0.481229 0.929306 0.344917 -0.254325
C54   C     C_R   0.501390 0.083880 0.660356 -0.258753
C55   C     C_R   0.358532 0.918940 0.414915 0.263580
C56   C     C_R   0.305740 0.796888 0.262124 0.104306
C57   C     C_R   0.623489 0.090257 0.590090 0.297982
C58   C     C_R   0.439406 0.986803 0.499226 0.053832
C59   C     C_R   0.542398 0.025337 0.505731 0.049468
C60   C     C_R   0.646670 0.948044 0.882972 -0.179230
C61   C     C_R   0.306189 0.903418 0.910962 -0.185120
C62   C     C_R   0.750455 0.970519 0.916003 -0.156017
C63   C     C_R   0.210096 0.901386 0.896325 -0.135932
C64   C     C_R   0.292696 0.581570 0.988335 -0.144939
C65   C     C_R   0.703915 0.414185 0.005923 -0.167601
C66   C     C_R   0.800260 0.963347 0.856941 0.028800
C67   C     C_R   0.344700 0.538802 0.029908 0.055162
C68   C     C_R   0.200442 0.978112 0.960657 0.063582
C69   C     C_R   0.733865 0.307092 0.744670 -0.061815
C70   C     C_R   0.261277 0.698684 0.258464 -0.089860
C71   C     C_R   0.287694 0.485661 0.066425 -0.120254
C72   C     C_R   0.713013 0.515059 0.932587 -0.109910
C73   C     C_R   0.108504 0.599683 0.821377 -0.129756
C74   C     C_R   0.890297 0.461864 0.187898 -0.117116
C75   C     C_R   0.917232 0.195630 0.948667 -0.111184
C76   C     C_R   0.087248 0.797042 0.000566 -0.111271
C77   C     C_R   0.002050 0.177637 0.965801 0.064019
C78   C     C_R   0.653070 0.458194 0.964805 0.053558
C79   C     C_R   0.005039 0.802738 0.946548 0.059338
C80   C     C_R   0.913071 0.886295 0.882889 -0.224042
H1    H     H_    0.167249 0.290319 0.058177 0.094981
H2    H     H_    0.488742 0.293155 0.792354 0.110091
H3    H     H_    0.528728 0.430320 0.195661 0.148230
H4    H     H_    0.484325 0.583382 0.810836 0.117069
H5    H     H_    0.547613 0.488920 0.354191 0.128656
H6    H     H_    0.477241 0.538906 0.656253 0.126959
H7    H     H_    0.633805 0.498704 0.117180 0.133352
H8    H     H_    0.365029 0.500044 0.877559 0.138804
H9    H     H_    0.126997 0.666699 0.439313 0.149837
H10   H     H_    0.870693 0.551928 0.602601 0.116942
H11   H     H_    0.794382 0.495524 0.303274 0.128959
H12   H     H_    0.840794 0.681376 0.869222 0.086637
H13   H     H_    0.202955 0.684144 0.727032 0.112566
H14   H     H_    0.212849 0.716882 0.597899 0.143493
H15   H     H_    0.784901 0.523100 0.448921 0.134811
H16   H     H_    0.859062 0.491647 0.701469 0.083405
H17   H     H_    0.139309 0.587372 0.316543 0.104768
H18   H     H_    0.486608 0.110727 0.720164 0.141152
H19   H     H_    0.496577 0.903161 0.285299 0.147582
H20   H     H_    0.638446 0.028913 0.429689 0.188695
H21   H     H_    0.343637 0.985397 0.575509 0.182337
H22   H     H_    0.510140 0.894939 0.764969 0.147438
H23   H     H_    0.780284 0.918653 0.717292 0.170435
H24   H     H_    0.467381 0.983235 0.999978 0.137409
H25   H     H_    0.608887 0.955007 0.928818 0.137060
H26   H     H_    0.313563 0.844418 0.861494 0.122215
H27   H     H_    0.792235 0.993920 0.987357 0.137171
H28   H     H_    0.143368 0.840329 0.835036 0.131564
H29   H     H_    0.696495 0.153752 0.846125 0.105978
H30   H     H_    0.284590 0.855645 0.158534 0.109966
H31   H     H_    0.318304 0.632945 0.957766 0.097073
H32   H     H_    0.674650 0.358691 0.031877 0.117136
H33   H     H_    0.713301 0.335219 0.694688 0.096154
H34   H     H_    0.282745 0.117091 0.089461 0.152537
H35   H     H_    0.287148 0.673286 0.309137 0.108570
H36   H     H_    0.308829 0.448077 0.107733 0.106486
H37   H     H_    0.695433 0.556836 0.894239 0.105923
H38   H     H_    0.188171 0.656266 0.846934 0.087292
H39   H     H_    0.809002 0.433458 0.170770 0.102261
H40   H     H_    0.839417 0.142986 0.902585 0.128854
H41   H     H_    0.168117 0.849638 0.027890 0.113986
H42   H     H_    0.841349 0.816034 0.855602 0.131057
H43   H     H_    0.163818 0.139980 0.972645 0.131405
H44   H     H_    0.545118 0.655421 0.433482 0.155176
H45   H     H_    0.477047 0.373250 0.569702 0.115953
H46   H     H_    0.525386 0.764686 0.354141 0.149513
H47   H     H_    0.482475 0.251117 0.637653 0.128822
H48   H     H_    0.508418 0.709111 0.195896 0.113479
N1    N     N_R   0.055660 0.348550 0.045620 -0.044267
N2    N     N_R   0.185200 0.638170 0.176300 -0.043200
N3    N     N_R   0.201680 0.494570 0.045620 -0.042049
N4    N     N_R   0.798320 0.505430 0.954380 -0.042556
N5    N     N_R   0.068420 0.560530 0.871650 -0.039359
N6    N     N_R   0.931580 0.439470 0.128350 -0.045257
N7    N     N_R   0.948070 0.295860 0.997670 -0.048558
N8    N     N_R   0.051930 0.704140 0.002330 -0.042228
N9    N     N_R   0.944340 0.651450 0.954380 -0.041676
N10   N     N_R   0.960830 0.507850 0.823700 -0.040662
N11   N     N_R   0.039170 0.492150 0.176300 -0.048486
N12   N     N_R   0.811290 0.303410 0.871650 -0.043659
N13   N     N_R   0.188710 0.696590 0.128350 -0.045561
N14   N     N_R   0.205200 0.552990 0.997670 -0.038126
N15   N     N_R   0.794800 0.447010 0.002330 -0.038777
N16   N     N_R   0.814800 0.361830 0.823700 -0.038639
Ni1   Ni    Ni4+2 0.119340 0.493420 0.109960 0.225795
Ni2   Ni    Ni4+2 0.880660 0.506580 0.890040 0.219522
Ni3   Ni    Ni4+2 0.872590 0.372590 0.000000 0.225942
Ni4   Ni    Ni4+2 0.127410 0.627410 0.000000 0.219428

loop_
_geom_bond_atom_site_label_1
_geom_bond_atom_site_label_2
_ccdc_geom_bond_type
C40   C45   A    
C36   C43   A    
C75   N7    A    
N5    N10   A    
C45   C49   S    
C65   H32   S    
C13   H47   S    
C11   C14   A    
C3    C79   S    
C5    C68   S    
N12   N16   A    
C15   H2    S    
C2    C5    A    
C72   N4    A    
C7    C66   A    
C41   C56   A    
C50   C56   S    
C21   C24   A    
C1    N1    A    
C70   H35   S    
C11   H46   S    
C44   H10   S    
C41   N13   A    
C72   H37   S    
C34   C36   S    
C73   N5    A    
C2    H43   S    
N12   Ni3   S    
N6    N11   A    
C38   H14   S    
C71   N3    A    
C45   C69   A    
C76   H41   S    
C7    C33   A    
C63   C68   A    
C38   C42   A    
N7    Ni3   S    
C57   C59   A    
C65   C78   A    
C6    C80   A    
C29   C31   A    
C10   C35   A    
C14   H48   S    
Br2   C35   S    
C10   C61   A    
C44   C47   A    
C17   C34   A    
C61   C63   A    
C51   C59   A    
C46   C48   A    
C37   C42   A    
C27   C29   A    
N5    Ni4   S    
C54   H18   S    
C62   H27   S    
C29   C78   S    
N8    Ni4   S    
C9    C33   A    
Br1   C33   S    
C52   C58   A    
C1    H1    S    
C10   H24   S    
C3    C80   A    
C8    C68   A    
C76   N8    A    
C13   C26   A    
C49   C57   A    
C76   C79   A    
C74   N6    A    
C73   H38   S    
N9    Ni2   S    
C11   C25   A    
C50   C55   A    
Br3   C57   S    
C80   H42   S    
C53   H19   S    
C12   H12   S    
C69   H33   S    
C69   N16   A    
C4    C77   S    
N13   Ni4   S    
C28   C31   A    
C16   N10   A    
N1    Ni1   S    
N8    N9    A    
C17   N11   A    
C72   C78   A    
C75   C77   A    
C2    C4    A    
C34   C74   A    
C28   C30   A    
C41   H30   S    
N2    Ni1   S    
C51   H20   S    
C21   H4    S    
C47   C48   A    
C22   H5    S    
C60   C62   A    
C15   C19   A    
C58   C59   A    
C1    C77   A    
C23   C37   S    
C16   H16   S    
C40   N12   A    
N3    N14   A    
C74   H39   S    
N14   Ni4   S    
C6    C66   S    
C42   H13   S    
C40   H29   S    
N1    N7    A    
C19   C31   S    
C51   C53   A    
C7    H23   S    
C65   N15   A    
C18   C20   A    
C64   N14   A    
C52   H21   S    
C8    H34   S    
C3    C5    A    
N2    N13   A    
C55   C58   A    
C14   C18   A    
C71   H36   S    
C20   C22   A    
N16   Ni2   S    
C9    H22   S    
C23   C73   A    
N4    Ni2   S    
C49   C54   A    
C46   H9    S    
C16   C23   A    
N6    Ni3   S    
C26   H45   S    
C18   C32   S    
C75   H40   S    
C62   C66   A    
C27   H7    S    
N10   Ni2   S    
C8    C35   A    
C24   C26   A    
C12   N9    A    
C17   H17   S    
N3    Ni1   S    
C39   H15   S    
C67   C71   A    
C39   C47   A    
C60   H25   S    
C28   H8    S    
C9    C60   A    
C64   C67   A    
C36   C46   A    
N15   Ni3   S    
C70   N2    A    
Br4   C55   S    
C56   C70   A    
C13   C15   A    
C37   C44   A    
C52   C54   A    
C30   C32   A    
C12   C79   A    
C20   H3    S    
C61   H26   S    
N4    N15   A    
C64   H31   S    
C63   H28   S    
N11   Ni1   S    
C19   C21   A    
C22   C25   A    
C4    C6    A    
C25   H44   S    
C43   H11   S    
C27   C32   A    
C24   H6    S    
C39   C43   A    
C30   C67   S    
C38   C48   A    
C50   C53   A    
