data_mof_unit_30387.cif
_audit_creation_date              2012-12-11T17:37:50-0500
_audit_creation_method            fapswitch 2.2
_symmetry_space_group_name_H-M    P1
_symmetry_Int_Tables_number       1
_space_group_crystal_system       triclinic
_cell_length_a                    13.033007
_cell_length_b                    13.048663
_cell_length_c                    15.44834
_cell_angle_alpha                 117.643186
_cell_angle_beta                  63.443569
_cell_angle_gamma                 97.918747
_cell_volume                      2073.70811369

loop_
_atom_site_label
_atom_site_type_symbol
_atom_type_description
_atom_site_fract_x
_atom_site_fract_y
_atom_site_fract_z
_atom_type_partial_charge
C1    C     C_R   0.997286 0.832559 0.060431 -0.114993
C2    C     C_R   0.301655 0.590206 0.789792 -0.152033
C3    C     C_R   0.259109 0.416530 0.046715 -0.141644
C4    C     C_R   0.679036 0.477561 0.219690 -0.134233
C5    C     C_R   0.048356 0.275330 0.683510 -0.122181
C6    C     C_R   0.361799 0.434286 0.973632 0.111445
C7    C     C_R   0.034771 0.163683 0.675782 0.043830
C8    C     C_R   0.302090 0.553350 0.690307 0.062911
C9    C     C_R   0.004541 0.151876 0.044346 0.026526
C10   C     C_R   0.441327 0.883764 0.100530 -0.138367
C11   C     C_R   0.360164 0.877930 0.195009 -0.139321
C12   C     C_R   0.672569 0.557305 0.320610 0.009683
C13   C     C_R   0.273879 0.969502 0.275986 0.118337
C14   C     C_R   0.270868 0.067000 0.260589 -0.186113
C15   C     C_R   0.352308 0.072466 0.165999 -0.094802
C16   C     C_R   0.756045 0.517008 0.892279 -0.289944
C17   C     C_R   0.437483 0.980987 0.086084 -0.082268
C18   C     C_R   0.162582 0.059512 0.477847 -0.232500
C19   C     C_R   0.085486 0.053677 0.574568 0.068024
C20   C     C_R   0.058348 0.942287 0.568886 0.027428
C21   C     C_R   0.092896 0.846236 0.468434 -0.227078
C22   C     C_R   0.136106 0.860807 0.374897 0.042215
C23   C     C_R   0.663803 0.454390 0.922831 -0.006842
C24   C     C_R   0.188759 0.963125 0.376621 0.032265
C25   C     C_R   0.022608 0.912075 0.727225 -0.169679
C26   C     C_R   0.947450 0.893181 0.815958 -0.165606
C27   C     C_R   0.831270 0.879991 0.837688 -0.111797
C28   C     C_R   0.025731 0.695833 0.297198 -0.146475
C29   C     C_R   0.790347 0.884658 0.770028 -0.097903
C30   C     C_R   0.864965 0.904519 0.681695 -0.162593
C31   C     C_R   0.980895 0.920377 0.661287 0.112165
C32   C     C_R   0.860364 0.363915 0.358841 -0.112558
C33   C     C_R   0.744829 0.399896 0.401765 -0.105849
C34   C     C_R   0.091493 0.788013 0.294760 0.072379
C35   C     C_R   0.703276 0.515383 0.479728 0.118840
C36   C     C_R   0.774185 0.590586 0.523098 -0.199098
C37   C     C_R   0.890513 0.555381 0.476939 -0.131373
C38   C     C_R   0.934243 0.443285 0.392510 -0.110515
C39   C     C_R   0.500430 0.570340 0.593657 -0.252301
C40   C     C_R   0.678344 0.418173 0.987529 0.676609
C41   C     C_R   0.389760 0.575882 0.603721 0.071576
C42   C     C_R   0.370390 0.586927 0.524908 0.024132
C43   C     C_R   0.464882 0.591579 0.436696 -0.251033
C44   C     C_R   0.575998 0.576646 0.423241 0.084020
C45   C     C_R   0.338459 0.515706 0.949934 -0.105426
C46   C     C_R   0.593161 0.561897 0.501250 0.019237
C47   C     C_R   0.242325 0.464819 0.446075 -0.166839
C48   C     C_R   0.132593 0.426027 0.466324 -0.160212
C49   C     C_R   0.037143 0.495243 0.560510 -0.128258
C50   C     C_R   0.050058 0.606721 0.630494 -0.119210
C51   C     C_R   0.160028 0.645552 0.611564 -0.133086
C52   C     C_R   0.103125 0.796857 0.205084 -0.150552
C53   C     C_R   0.257210 0.571509 0.522634 0.110659
C54   C     C_2   0.474707 0.391368 0.944612 -0.185068
C55   C     C_2   0.568838 0.434001 0.893642 -0.163260
C56   C     C_R   0.965690 0.178153 0.780921 -0.108278
C57   C     C_2   0.823373 0.956248 0.109979 -0.194082
C58   C     C_2   0.822678 0.045760 0.199992 -0.160066
C59   C     C_R   0.783260 0.576416 0.309435 -0.086174
C60   C     C_R   0.894802 0.747460 0.965948 -0.162046
C61   C     C_R   0.905650 0.851900 0.045177 0.114859
C62   C     C_R   0.206578 0.493512 0.690414 -0.132598
C63   C     C_R   0.051045 0.255167 0.087061 -0.125602
C64   C     C_R   0.948160 0.172249 0.995120 -0.107349
F1    F     F_    0.630545 0.328334 0.008429 -0.754591
H1    H     H_    0.026119 0.893633 0.119758 0.097325
H2    H     H_    0.507370 0.812969 0.038595 0.106442
H3    H     H_    0.364715 0.802167 0.205137 0.116167
H4    H     H_    0.608399 0.441501 0.199572 0.158002
H5    H     H_    0.204770 0.138027 0.321003 0.103028
H6    H     H_    0.349238 0.147633 0.154607 0.114856
H7    H     H_    0.199803 0.139515 0.480169 0.125015
H8    H     H_    0.068148 0.762982 0.466340 0.123426
H9    H     H_    0.112018 0.923545 0.711679 0.120717
H10   H     H_    0.979819 0.890115 0.867970 0.136584
H11   H     H_    0.772480 0.866290 0.906723 0.093986
H12   H     H_    0.930075 0.115359 0.809581 0.132661
H13   H     H_    0.700731 0.873625 0.786440 0.103680
H14   H     H_    0.832502 0.908761 0.629863 0.118113
H15   H     H_    0.025377 0.417987 0.352279 0.109295
H16   H     H_    0.778530 0.545816 0.831124 0.137580
H17   H     H_    0.893674 0.276429 0.295870 0.114835
H18   H     H_    0.689971 0.340757 0.368899 0.118904
H19   H     H_    0.742643 0.679613 0.583596 0.119274
H20   H     H_    0.947422 0.616809 0.503709 0.131786
H21   H     H_    0.515825 0.555754 0.650764 0.129271
H22   H     H_    0.452232 0.596918 0.374057 0.131721
H23   H     H_    0.178891 0.453703 0.627795 0.134427
H24   H     H_    0.316256 0.406136 0.377600 0.123233
H25   H     H_    0.122211 0.340029 0.411832 0.108326
H26   H     H_    0.952933 0.462619 0.579201 0.131065
H27   H     H_    0.975542 0.659198 0.702958 0.133321
H28   H     H_    0.012209 0.652880 0.345770 0.101988
H29   H     H_    0.170499 0.726509 0.672339 0.113144
H30   H     H_    0.475548 0.344532 0.986395 0.205307
H31   H     H_    0.567480 0.477472 0.848972 0.126781
H32   H     H_    0.757629 0.959225 0.086182 0.139390
H33   H     H_    0.883968 0.048714 0.230613 0.125583
H34   H     H_    0.089264 0.274699 0.141661 0.083889
H35   H     H_    0.158025 0.851006 0.170817 0.115816
H36   H     H_    0.809146 0.638695 0.370312 0.117828
H37   H     H_    0.827711 0.730071 0.939528 0.107332
H38   H     H_    0.397754 0.553311 0.899258 0.086442
H39   H     H_    0.888901 0.116656 0.967268 0.122543
H40   H     H_    0.356422 0.650606 0.821557 0.095295
H41   H     H_    0.248599 0.362288 0.085162 0.096763
H42   H     H_    0.090808 0.298003 0.617797 0.095395
H43   H     H_    0.500498 0.985408 0.012956 0.111891
N1    N     N_R   0.037320 0.720000 0.995830 -0.045631
N2    N     N_R   0.824900 0.517970 0.936430 -0.066839
N3    N     N_R   0.003190 0.648180 0.211390 -0.042985
N4    N     N_R   0.774330 0.457010 0.995830 -0.100795
N5    N     N_R   0.053760 0.709130 0.151980 -0.041962
N6    N     N_R   0.853840 0.498830 0.211390 -0.042992
N7    N     N_R   0.974250 0.667320 0.936430 -0.036013
N8    N     N_R   0.225670 0.542990 0.004170 -0.044560
N9    N     N_R   0.946240 0.290870 0.848020 -0.043351
N10   N     N_R   0.146160 0.501170 0.788610 -0.040082
N11   N     N_R   0.025750 0.332680 0.063570 -0.039745
N12   N     N_R   0.962680 0.280000 0.004170 -0.043610
N13   N     N_R   0.209230 0.553860 0.848010 -0.038399
N14   N     N_R   0.175100 0.482030 0.063570 -0.041203
N15   N     N_R   0.996810 0.351820 0.788610 -0.041105
N16   N     N_R   0.790770 0.446140 0.151990 -0.037263
Ni1   Ni    Ni4+2 0.130310 0.630310 0.000000 0.208630
Ni2   Ni    Ni4+2 0.869690 0.369690 0.000000 0.269505
Ni3   Ni    Ni4+2 0.985660 0.509480 0.863750 0.209983
Ni4   Ni    Ni4+2 0.014340 0.490520 0.136250 0.214648

loop_
_geom_bond_atom_site_label_1
_geom_bond_atom_site_label_2
_ccdc_geom_bond_type
C25   C31   A    
C6    C45   A    
C27   C29   A    
C9    C64   A    
C14   H5    S    
C41   C42   A    
C35   C36   A    
C58   H33   S    
C3    C6    A    
C16   N2    A    
C39   C41   A    
C52   N5    A    
C26   C27   A    
C29   C30   A    
N8    N14   A    
C18   C24   A    
C37   H20   S    
C36   C37   A    
C49   H26   S    
C18   C19   A    
C42   C53   S    
C30   C31   A    
N12   Ni2   S    
N5    Ni1   S    
C10   C17   A    
C23   C40   A    
C21   H8    S    
N7    Ni3   S    
C4    N16   A    
C15   C17   A    
C25   H9    S    
C56   N9    A    
C63   H34   S    
C45   H38   S    
C1    N1    A    
C12   C59   A    
C29   H13   S    
C19   C20   A    
C32   C38   A    
C4    C12   A    
N9    Ni2   S    
N4    Ni2   S    
C3    N14   A    
N2    Ni3   S    
C47   C53   A    
N6    N16   A    
N11   Ni4   S    
C28   C34   A    
C3    H41   S    
C48   H25   S    
C13   C14   A    
C47   H24   S    
C7    C56   A    
C6    C54   S    
C60   H37   S    
C4    H4    S    
C44   C46   A    
C50   C51   A    
C28   N3    A    
C18   H7    S    
C22   C34   S    
C59   H36   S    
C8    C41   S    
C40   N4    A    
C17   H43   S    
C5    C7    A    
C25   C26   A    
C10   H2    S    
C62   H23   S    
C52   H35   S    
C56   H12   S    
C13   C24   S    
C60   C61   A    
C51   C53   A    
N10   N13   A    
C1    H1    S    
C43   C44   A    
N13   Ni1   S    
C37   C38   A    
N6    Ni4   S    
N15   Ni3   S    
C47   C48   A    
C57   H32   S    
C26   H10   S    
N3    N5    A    
C57   C61   S    
C33   H18   S    
C54   H30   S    
C39   C46   A    
C30   H14   S    
C50   H27   S    
C48   C49   A    
C49   C50   A    
C16   C23   A    
C7    C19   S    
C40   F1    S    
C22   C24   A    
C42   C43   A    
C27   H11   S    
C32   H17   S    
C11   H3    S    
N16   Ni2   S    
C5    H42   S    
C2    N13   A    
N1    Ni1   S    
C64   H39   S    
C54   C55   D    
C9    C63   A    
C2    C8    A    
C55   H31   S    
C1    C61   A    
N11   N12   A    
C23   C55   S    
C15   H6    S    
C5    N15   A    
C2    H40   S    
C34   C52   A    
C64   N12   A    
N8    Ni1   S    
C43   H22   S    
C32   C33   A    
N9    N15   A    
C12   C44   S    
C11   C13   A    
C45   N8    A    
C57   C58   D    
C38   H15   S    
C36   H19   S    
C59   N6    A    
C16   H16   S    
C33   C35   A    
N14   Ni4   S    
N2    N4    A    
C62   N10   A    
C10   C11   A    
N1    N7    A    
C51   H29   S    
C20   C21   A    
C63   N11   A    
N10   Ni3   S    
N3    Ni4   S    
C14   C15   A    
C28   H28   S    
C60   N7    A    
C39   H21   S    
C21   C22   A    
C35   C46   S    
C8    C62   A    
C20   C31   S    
