data_mof_unit_13189.cif
_audit_creation_date              2013-03-05T16:15:03-0500
_audit_creation_method            fapswitch 2.2
_symmetry_space_group_name_H-M    P1
_symmetry_Int_Tables_number       1
_space_group_crystal_system       triclinic
_cell_length_a                    23.65131
_cell_length_b                    10.825462
_cell_length_c                    9.602997
_cell_angle_alpha                 90.730378
_cell_angle_beta                  89.545874
_cell_angle_gamma                 90.238359
_cell_volume                      2458.41912698

loop_
_atom_site_label
_atom_site_type_symbol
_atom_site_description
_atom_site_fract_x
_atom_site_fract_y
_atom_site_fract_z
_atom_type_partial_charge
O1    O     O_R   0.500030 0.316850 0.620870 -0.562036
O2    O     O_R   0.499970 0.683150 0.379130 -0.578923
O3    O     O_R   0.500000 0.316860 0.379090 -0.607142
O4    O     O_R   0.500000 0.683140 0.620910 -0.596998
C1    C     C_R   0.500817 0.260269 0.498913 0.836080
C2    C     C_R   0.499663 0.739907 0.500972 0.784195
O5    O     O_R   0.417890 0.499960 0.620920 -0.579201
O6    O     O_R   0.582110 0.500040 0.379080 -0.583676
O7    O     O_R   0.417870 0.499970 0.379140 -0.575823
O8    O     O_R   0.582130 0.500030 0.620860 -0.549841
C3    C     C_R   0.391070 0.498029 0.500425 0.799573
C4    C     C_R   0.608562 0.498174 0.499535 0.842475
Cu1   Cu    Cu3+1 0.500010 0.499990 0.643150 0.952990
Cu2   Cu    Cu3+1 0.499990 0.500010 0.356850 0.937039
C5    C     C_R   0.880163 0.588822 0.453941 0.545791
C6    C     C_R   0.119284 0.381630 0.483213 0.554073
N1    N     N_R   0.851928 0.484619 0.493763 -0.463845
N2    N     N_R   0.146921 0.492383 0.489566 -0.464431
C7    C     C_R   0.881021 0.381345 0.529991 0.534405
C8    C     C_R   0.118233 0.601356 0.495007 0.521342
C9    C     C_R   0.940105 0.375514 0.508783 -0.053382
C10   C     C_R   0.058851 0.602858 0.479686 -0.049470
C11   C     C_R   0.969759 0.487283 0.489049 -0.092940
C12   C     C_R   0.029440 0.488836 0.488398 -0.092580
C13   C     C_R   0.939306 0.597555 0.470611 -0.050093
C14   C     C_R   0.059728 0.376456 0.496986 -0.054385
C15   C     C_R   0.969948 0.262776 0.509540 0.169146
C16   C     C_R   0.028098 0.713865 0.460162 0.162166
C17   C     C_R   0.029671 0.263616 0.515804 0.161798
C18   C     C_R   0.968392 0.711812 0.468014 0.171665
O9    O     O_2   0.851029 0.682476 0.397649 -0.531658
O10   O     O_2   0.149814 0.278069 0.462206 -0.534012
O11   O     O_2   0.852912 0.286230 0.588467 -0.514577
O12   O     O_2   0.147561 0.706810 0.516892 -0.539219
C19   C     C_R   0.238832 0.538814 0.377905 -0.004751
C20   C     C_R   0.759840 0.398413 0.417190 -0.016688
C21   C     C_R   0.298032 0.554676 0.389561 0.057440
C22   C     C_R   0.700047 0.394236 0.429471 0.067358
C23   C     C_R   0.327699 0.496623 0.499765 -0.119961
C24   C     C_R   0.671263 0.492690 0.499067 -0.089688
C25   C     C_R   0.295745 0.435450 0.605485 0.108271
C26   C     C_R   0.702972 0.584538 0.571153 0.104102
C27   C     C_R   0.236330 0.448557 0.609946 0.206413
C28   C     C_R   0.761952 0.571017 0.584286 0.221368
C29   C     C_R   0.207901 0.494403 0.493013 0.202860
C30   C     C_R   0.790748 0.484455 0.498694 0.185894
C31   C     C_3   0.545856 0.042380 0.568731 -0.045162
C32   C     C_3   0.455454 0.958076 0.429871 0.002310
C33   C     C_3   0.547559 0.956124 0.439614 0.067668
C34   C     C_3   0.453862 0.044488 0.558860 0.106814
C35   C     C_3   0.499607 0.876788 0.502870 -0.179121
C36   C     C_3   0.501821 0.123676 0.496381 -0.141887
C37   C     C_3   0.497820 0.963413 0.631729 -0.049943
C38   C     C_3   0.503385 0.037518 0.366994 0.023163
C39   C     C_3   0.494124 0.609986 0.050668 0.137285
C40   C     C_3   0.505701 0.390316 0.949446 0.170009
C41   C     C_3   0.453278 0.543547 0.951479 0.174287
C42   C     C_3   0.546347 0.457221 0.047677 0.221720
N3    N     N_3   0.500040 0.499970 0.858290 -0.189899
N4    N     N_3   0.499960 0.500030 0.141710 -0.189485
C43   C     C_3   0.540518 0.566687 0.950281 0.231794
C44   C     C_3   0.458986 0.433587 0.049912 0.176338
C45   C     C_3   0.939183 0.142355 0.481587 -0.773451
H1    H     H_    0.901715 0.156017 0.414686 0.263330
H2    H     H_    0.966441 0.078420 0.420345 0.209773
H3    H     H_    0.926081 0.099892 0.581397 0.258792
C46   C     C_3   0.057907 0.832581 0.419658 -0.769462
H4    H     H_    0.090776 0.813349 0.339143 0.251213
H5    H     H_    0.029011 0.899509 0.370960 0.211766
H6    H     H_    0.077103 0.876721 0.512914 0.264731
C47   C     C_3   0.400534 0.606976 0.898012 -0.742923
H7    H     H_    0.378396 0.655252 0.984748 0.225355
H8    H     H_    0.412489 0.676292 0.818811 0.259296
H9    H     H_    0.371363 0.538521 0.852720 0.244308
C48   C     C_3   0.601283 0.402782 0.097200 -0.825278
H10   H     H_    0.625557 0.365237 0.006908 0.226976
H11   H     H_    0.627388 0.474764 0.149146 0.256288
H12   H     H_    0.590759 0.326652 0.168341 0.231568
C49   C     C_3   0.484641 0.740587 0.103314 -0.666982
H13   H     H_    0.474752 0.799469 0.014941 0.264179
H14   H     H_    0.447734 0.742375 0.174637 0.258131
H15   H     H_    0.523209 0.777171 0.153217 0.225350
C50   C     C_3   0.516734 0.260319 0.896909 -0.712582
H16   H     H_    0.528422 0.201357 0.983980 0.223689
H17   H     H_    0.478571 0.221466 0.847166 0.254802
H18   H     H_    0.553364 0.262003 0.825518 0.274439
C51   C     C_3   0.590144 0.641215 0.897063 -0.843389
H19   H     H_    0.608485 0.696791 0.983593 0.211078
H20   H     H_    0.622728 0.576569 0.856573 0.259518
H21   H     H_    0.576201 0.703312 0.813868 0.241844
C52   C     C_3   0.411871 0.349980 0.103179 -0.710455
H22   H     H_    0.392118 0.300734 0.013802 0.221036
H23   H     H_    0.429221 0.281053 0.175356 0.268562
H24   H     H_    0.378913 0.404793 0.157271 0.233527
C53   C     C_3   0.060124 0.146026 0.554504 -0.766278
H25   H     H_    0.031462 0.076813 0.602014 0.210689
H26   H     H_    0.080324 0.104085 0.460669 0.264002
H27   H     H_    0.092226 0.166030 0.635578 0.253446
C54   C     C_3   0.937022 0.830981 0.497057 -0.777713
H28   H     H_    0.964056 0.895912 0.557157 0.210583
H29   H     H_    0.923697 0.873077 0.397848 0.262228
H30   H     H_    0.899724 0.815990 0.565729 0.250778
C55   C     C_2   0.208374 0.566978 0.246098 0.420253
H31   H     H_    0.163091 0.581093 0.246010 0.075905
O13   O     O_2   0.232951 0.568644 0.133873 -0.560154
C56   C     C_2   0.791537 0.317415 0.316793 0.432385
H32   H     H_    0.830131 0.351581 0.268722 0.060599
O14   O     O_2   0.776773 0.211658 0.290173 -0.538953
C57   C     C_3   0.327536 0.641074 0.289450 -0.686415
H33   H     H_    0.367081 0.679275 0.332136 0.199074
H34   H     H_    0.336952 0.592259 0.190287 0.249249
H35   H     H_    0.300585 0.722498 0.268757 0.251337
C58   C     C_3   0.668431 0.283014 0.372265 -0.691387
H36   H     H_    0.622373 0.285204 0.392451 0.216269
H37   H     H_    0.675769 0.274098 0.258542 0.230833
H38   H     H_    0.684184 0.198310 0.422745 0.282209
C59   C     C_3   0.321850 0.347456 0.708200 -0.853147
H39   H     H_    0.367404 0.333062 0.693524 0.246336
H40   H     H_    0.314317 0.378843 0.816962 0.239969
H41   H     H_    0.301815 0.255137 0.695365 0.247927
C60   C     C_3   0.676120 0.701817 0.627472 -0.885068
H42   H     H_    0.630645 0.709683 0.603292 0.224573
H43   H     H_    0.681580 0.709514 0.741539 0.244215
H44   H     H_    0.697828 0.782303 0.580342 0.244213
C61   C     C_3   0.203360 0.410255 0.738780 -0.744621
H45   H     H_    0.158677 0.440530 0.738010 0.224433
H46   H     H_    0.204054 0.308279 0.749112 0.239153
H47   H     H_    0.222261 0.454000 0.832745 0.250194
C62   C     C_3   0.793757 0.649752 0.689789 -0.768422
H48   H     H_    0.837555 0.617622 0.706752 0.223727
H49   H     H_    0.795200 0.747390 0.656016 0.246556
H50   H     H_    0.772470 0.644459 0.792967 0.222117
C63   C     C_3   0.602228 0.911650 0.370905 -0.858629
H51   H     H_    0.623363 0.989712 0.317360 0.236630
H52   H     H_    0.630994 0.877281 0.451119 0.232893
H53   H     H_    0.593701 0.836529 0.294732 0.240557
C64   C     C_3   0.398676 0.091963 0.621219 -0.788382
H54   H     H_    0.370748 0.013033 0.648070 0.250773
H55   H     H_    0.407249 0.145862 0.717138 0.253134
H56   H     H_    0.377165 0.150430 0.543930 0.218392
C65   C     C_2   0.598451 0.079330 0.645055 0.318548
H57   H     H_    0.621748 0.010276 0.701647 0.079037
O15   O     O_2   0.615818 0.185403 0.642507 -0.564755
C66   C     C_2   0.400742 0.915157 0.367949 0.362565
H58   H     H_    0.370466 0.867905 0.433913 0.050167
O16   O     O_2   0.388683 0.937148 0.247646 -0.476070
C67   C     C_2   0.494455 0.930399 0.781799 0.380789
H59   H     H_    0.530093 0.887176 0.831066 0.044406
O17   O     O_2   0.452286 0.955600 0.850109 -0.505240
C68   C     C_2   0.511758 0.076554 0.220163 0.393271
H60   H     H_    0.549908 0.126551 0.193072 0.029058
O18   O     O_2   0.477146 0.050455 0.131129 -0.480281

loop_
_geom_bond_atom_site_label_1
_geom_bond_atom_site_label_2
_geom_bond_distance
_ccdc_geom_bond_type
C51   H19   1.109691 S    
C45   H2    1.108079 S    
C15   C17   1.414258 A    
C53   H25   1.108468 S    
O7    Cu2   1.952317 S    
C27   C61   1.518451 S    
C34   C64   1.520411 S    
C41   C44   1.536479 S    
C38   C68   1.488625 S    
C32   C38   1.543874 S    
C64   H55   1.103762 S    
C39   N4    1.493352 S    
O1    C1    1.314751 A    
C10   C12   1.417398 A    
C67   O17   1.219323 D    
C12   C14   1.418006 A    
C62   H48   1.108000 S    
C19   C55   1.496694 S    
C59   H40   1.107500 S    
C5    C13   1.411834 A    
C56   H32   1.085347 S    
C42   N4    1.487185 S    
C33   C38   1.545691 S    
C37   C67   1.490633 S    
C32   C66   1.498031 S    
N4    C44   1.491701 S    
O4    Cu1   1.996858 S    
C48   H11   1.108252 S    
C40   N3    1.490968 S    
C6    O10   1.348185 S    
C60   H44   1.109176 S    
C43   C51   1.510905 S    
C57   H34   1.104738 S    
C32   C35   1.546363 S    
C67   H59   1.080969 S    
C36   C38   1.544380 S    
C33   C35   1.545039 S    
C61   H47   1.109985 S    
C34   C36   1.541339 S    
C11   C12   1.411527 A    
C1    C36   1.478860 S    
C20   C30   1.413996 A    
C47   H9    1.098467 S    
C2    C35   1.481682 S    
C21   C57   1.514208 S    
C31   C37   1.543289 S    
C62   H50   1.109859 S    
C8    O12   1.348378 S    
C42   C43   1.526333 S    
C24   C26   1.419419 A    
C9    C15   1.412522 A    
C45   H3    1.109669 S    
C10   C16   1.422473 A    
Cu1   Cu2   2.749346 S    
C25   C27   1.413224 A    
O2    C2    1.314593 A    
C26   C28   1.410015 A    
C28   C30   1.412215 A    
C42   C48   1.511615 S    
C6    C14   1.414670 A    
C64   H56   1.109482 S    
N3    C43   1.486588 S    
C34   C37   1.541320 S    
C20   C56   1.494264 S    
C46   H4    1.110513 S    
C16   C46   1.516843 S    
N1    C30   1.447390 S    
C66   O16   1.218797 D    
C7    O11   1.349319 S    
C59   H41   1.110119 S    
C52   H22   1.109836 S    
C47   H8    1.109439 S    
C22   C58   1.514193 S    
C28   C62   1.517747 S    
C18   C54   1.512620 S    
C49   H13   1.095168 S    
C46   H5    1.108384 S    
C4    C24   1.484352 S    
O5    C3    1.323858 A    
C48   H10   1.109807 S    
C68   O18   1.218197 D    
C61   H46   1.109853 S    
C52   H23   1.107170 S    
C39   C49   1.512415 S    
C50   H16   1.096215 S    
O5    Cu1   1.955624 S    
O6    C4    1.319854 A    
C44   C52   1.522146 S    
C54   H30   1.109825 S    
C55   O13   1.220712 D    
C39   C41   1.532698 S    
C41   C47   1.522347 S    
C3    C23   1.498900 S    
C27   C29   1.410069 A    
O7    C3    1.321947 A    
C60   H42   1.105965 S    
O3    Cu2   1.996858 S    
O8    C4    1.317803 A    
C63   H53   1.105838 S    
O4    C2    1.312444 A    
C50   H17   1.103792 S    
C8    C10   1.413508 A    
C9    C11   1.410135 A    
C63   H51   1.109901 S    
C40   C44   1.531944 S    
C57   H35   1.110816 S    
O1    Cu1   1.991376 S    
C20   C22   1.418732 A    
C19   C29   1.409250 A    
N2    C29   1.442958 S    
C19   C21   1.415079 A    
C40   C50   1.511930 S    
C49   H14   1.105341 S    
C58   H36   1.105233 S    
C13   C18   1.413208 A    
C5    N1    1.365786 A    
C33   C63   1.523985 S    
O6    Cu2   1.955619 S    
C7    C9    1.412124 A    
C66   H58   1.083376 S    
O3    C1    1.310774 A    
O8    Cu1   1.952314 S    
C49   H15   1.103473 S    
C53   H26   1.109469 S    
C5    O9    1.349290 S    
C31   C36   1.541632 S    
Cu1   N3    2.065996 S    
C31   C33   1.543019 S    
Cu2   N4    2.065996 S    
C64   H54   1.109551 S    
C31   C65   1.499142 S    
C54   H28   1.108037 S    
C46   H6    1.109130 S    
C25   C59   1.516595 S    
C58   H38   1.109794 S    
C65   O15   1.218407 D    
C16   C18   1.413637 A    
C21   C23   1.428169 A    
C65   H57   1.084561 S    
C52   H24   1.104132 S    
C22   C24   1.423644 A    
C61   H45   1.107880 S    
C56   O14   1.220101 D    
C39   C43   1.526129 S    
C32   C34   1.542991 S    
N1    C7    1.365466 A    
C40   C42   1.526351 S    
N2    C8    1.363552 A    
C11   C13   1.410576 A    
O2    Cu2   1.991376 S    
C48   H12   1.103554 S    
C60   H43   1.106034 S    
C41   N3    1.491466 S    
C17   C53   1.516996 S    
C45   H1    1.110163 S    
C62   H49   1.109871 S    
C47   H7    1.106930 S    
C50   H18   1.100749 S    
C23   C25   1.428711 A    
C14   C17   1.423577 A    
C6    N2    1.364090 A    
C51   H21   1.103916 S    
C57   H33   1.101075 S    
C55   H31   1.082484 S    
C63   H52   1.101077 S    
C51   H20   1.107998 S    
C68   H60   1.081916 S    
C15   C45   1.512360 S    
C35   C37   1.543477 S    
C59   H39   1.096977 S    
C53   H27   1.110494 S    
C54   H29   1.109805 S    
C26   C60   1.513771 S    
C58   H37   1.107487 S    
