data_mof_unit_56936.cif
_audit_creation_date              2012-12-10T16:59:12-0500
_audit_creation_method            fapswitch 2.2
_symmetry_space_group_name_H-M    P1
_symmetry_Int_Tables_number       1
_space_group_crystal_system       triclinic
_cell_length_a                    7.750456
_cell_length_b                    8.536262
_cell_length_c                    27.659739
_cell_angle_alpha                 91.041517
_cell_angle_beta                  85.633958
_cell_angle_gamma                 93.788272
_cell_volume                      1820.50991147

loop_
_atom_site_label
_atom_site_type_symbol
_atom_type_description
_atom_site_fract_x
_atom_site_fract_y
_atom_site_fract_z
_atom_type_partial_charge
C1    C     C_R   0.545912 0.794823 0.498552 0.958026
C2    C     C_R   0.587482 0.613452 0.127263 -0.032073
C3    C     C_R   0.509192 0.521975 0.645722 -0.058082
C4    C     C_R   0.491076 0.483818 0.354158 -0.057608
C5    C     C_R   0.573912 0.634766 0.025950 0.053542
C6    C     C_R   0.399652 0.388540 0.974413 0.053915
C7    C     C_R   0.412831 0.375742 0.025019 0.034196
C8    C     C_R   0.560505 0.647608 0.975366 0.033869
C9    C     C_R   0.496460 0.500251 0.050679 0.081739
C10   C     C_R   0.478057 0.522606 0.949664 0.081796
C11   C     C_R   0.666953 0.750408 0.052645 -0.206848
C12   C     C_R   0.454086 0.205176 0.501439 0.959265
C13   C     C_R   0.307187 0.272751 0.947612 -0.207369
C14   C     C_R   0.672269 0.740226 0.102330 -0.090295
C15   C     C_R   0.304954 0.281569 0.897796 -0.091878
C16   C     C_R   0.502980 0.505910 0.593628 0.864344
C17   C     C_R   0.497073 0.494639 0.406353 0.865710
C18   C     C_R   0.620767 0.784841 0.949883 -0.265245
C19   C     C_R   0.352287 0.238531 0.050474 -0.264875
C20   C     C_2   0.570138 0.958388 0.497614 -0.387414
C21   C     C_2   0.429851 0.041610 0.502382 -0.389867
C22   C     C_R   0.571895 0.653150 0.822168 0.546752
C23   C     C_R   0.474570 0.531111 0.898630 -0.053650
C24   C     C_R   0.412337 0.365533 0.178094 0.545599
C25   C     C_R   0.397605 0.412120 0.822401 0.509013
C26   C     C_R   0.586789 0.606477 0.177608 0.510377
C27   C     C_R   0.577936 0.407380 0.720461 -0.092039
C28   C     C_R   0.416832 0.604524 0.280931 -0.095130
C29   C     C_R   0.581270 0.403194 0.670253 -0.271543
C30   C     C_R   0.416839 0.604490 0.331049 -0.272305
C31   C     C_R   0.440999 0.651839 0.671542 0.118734
C32   C     C_R   0.559382 0.356817 0.326930 0.118107
C33   C     C_R   0.434238 0.651653 0.722107 -0.115579
C34   C     C_R   0.502909 0.490459 0.101607 -0.053726
C35   C     C_R   0.562542 0.361145 0.276437 -0.115404
C36   C     C_R   0.501396 0.530029 0.746455 0.263375
C37   C     C_R   0.492097 0.484162 0.253558 0.265205
C38   C     C_3   0.381263 0.794558 0.646977 -0.429930
C39   C     C_3   0.499461 0.942985 0.655228 -0.345060
C40   C     C_3   0.684779 0.927187 0.633326 -0.799383
C41   C     C_3   0.621882 0.212420 0.349898 -0.431901
C42   C     C_3   0.502983 0.064609 0.341437 -0.341297
C43   C     C_3   0.319831 0.078263 0.365218 -0.802877
C44   C     C_2   0.666106 0.949860 0.877409 0.990727
C45   C     C_R   0.554491 0.662261 0.873213 -0.089173
C46   C     C_2   0.309870 0.071836 0.122555 0.991659
C47   C     C_R   0.424614 0.358579 0.127011 -0.089494
C48   C     C_R   0.617250 0.794565 0.899688 -0.008632
C49   C     C_R   0.358758 0.227510 0.100537 -0.009081
C50   C     C_R   0.392046 0.407269 0.872863 -0.030097
H1    H     H_    0.014037 0.382463 0.463383 0.191511
H2    H     H_    0.235569 0.187932 0.878818 0.222550
H3    H     H_    0.740414 0.849723 0.036275 0.159410
H4    H     H_    0.232513 0.174031 0.963943 0.159439
H5    H     H_    0.664015 0.890529 0.968475 0.161377
H6    H     H_    0.306879 0.133526 0.031921 0.160745
H7    H     H_    0.702547 0.009702 0.493123 0.180353
H8    H     H_    0.297443 0.990297 0.506878 0.180423
H9    H     H_    0.747391 0.834532 0.652049 0.273249
H10   H     H_    0.684948 0.897388 0.594108 0.245774
H11   H     H_    0.762211 0.039985 0.637639 0.238413
H12   H     H_    0.985964 0.617541 0.536616 0.191430
H13   H     H_    0.445149 0.043519 0.637932 0.212715
H14   H     H_    0.501785 0.970662 0.694596 0.250241
H15   H     H_    0.375126 0.777947 0.607372 0.216365
H16   H     H_    0.247277 0.815526 0.661799 0.187024
H17   H     H_    0.324238 0.103310 0.404626 0.245799
H18   H     H_    0.255006 0.173323 0.348308 0.273294
H19   H     H_    0.241637 0.966221 0.360305 0.238299
H20   H     H_    0.496066 0.040537 0.301989 0.251767
H21   H     H_    0.559775 0.962556 0.357177 0.213783
H22   H     H_    0.754747 0.192594 0.333910 0.188683
H23   H     H_    0.377303 0.746761 0.742842 0.165665
H24   H     H_    0.631877 0.226241 0.389456 0.215993
H25   H     H_    0.607052 0.117558 0.832075 0.348587
H26   H     H_    0.371329 0.901314 0.166552 0.348471
H27   H     H_    0.618492 0.267854 0.254619 0.165236
H28   H     H_    0.361621 0.700106 0.351881 0.159791
H29   H     H_    0.636536 0.305467 0.650505 0.159003
H30   H     H_    0.360267 0.698876 0.263267 0.160592
H31   H     H_    0.632068 0.314115 0.739276 0.160583
H32   H     H_    0.742723 0.833432 0.121202 0.223469
N1    N     N_R   0.490686 0.531412 0.798215 -0.350831
N2    N     N_R   0.496668 0.485807 0.201882 -0.350799
N3    N     N_2   0.950320 0.457960 0.486880 -0.172141
N4    N     N_2   0.049680 0.542040 0.513120 -0.172126
O1    O     O_R   0.389250 0.738570 0.503220 -0.618254
O2    O     O_2   0.311478 0.257580 0.204065 -0.534065
O3    O     O_2   0.674353 0.719889 0.202301 -0.546489
O4    O     O_2   0.312072 0.297866 0.797518 -0.545393
O5    O     O_2   0.794605 0.027431 0.889446 -0.633608
O6    O     O_R   0.560768 0.010577 0.844380 -0.764376
O7    O     O_2   0.178834 0.996402 0.111346 -0.632883
O8    O     O_R   0.417893 0.008313 0.154325 -0.765949
O9    O     O_R   0.610750 0.261430 0.496780 -0.617131
O10   O     O_R   0.678390 0.711630 0.494810 -0.628712
O11   O     O_R   0.321610 0.288370 0.505190 -0.628536
O12   O     O_R   0.355440 0.513440 0.575450 -0.621323
O13   O     O_R   0.644560 0.486560 0.424550 -0.621610
O14   O     O_R   0.644590 0.486500 0.567040 -0.619394
O15   O     O_R   0.355410 0.513500 0.432960 -0.619542
O16   O     O_2   0.674867 0.760352 0.796488 -0.533963
Zn1   Zn    Zn3+2 0.306940 0.517990 0.505620 0.939361
Zn2   Zn    Zn3+2 0.693060 0.482010 0.494380 0.939634

loop_
_geom_bond_atom_site_label_1
_geom_bond_atom_site_label_2
_ccdc_geom_bond_type
C19   H6    S    
C1    O1    A    
C40   H10   S    
C27   C29   A    
C41   C42   S    
C42   H20   S    
H1    N3    S    
C47   C49   A    
N3    N4    D    
C26   O3    S    
C39   H14   S    
H12   N4    S    
C46   C49   S    
C25   O4    S    
C23   C45   A    
C35   C37   A    
C5    C11   A    
C38   C39   S    
C11   C14   A    
C36   N1    S    
O12   Zn1   S    
O14   Zn2   S    
C33   C36   A    
C15   C50   A    
C3    C29   A    
C17   O15   A    
C25   C50   A    
H26   O8    S    
C41   H24   S    
C38   H16   S    
C43   H18   S    
C29   H29   S    
C32   C41   S    
C31   C33   A    
C37   N2    S    
C44   O6    S    
C2    C34   A    
O13   Zn2   S    
O15   Zn1   S    
C40   H9    S    
C11   H3    S    
C2    C14   A    
N4    Zn1   S    
C32   C35   A    
C27   H31   S    
C39   C40   S    
C16   O14   A    
C23   C50   A    
C12   C21   S    
C35   H27   S    
C8    C18   A    
C40   H11   S    
C5    C9    A    
C17   O13   A    
C19   C49   A    
C46   O8    S    
C38   H15   S    
C2    C26   A    
C4    C32   A    
C15   H2    S    
C3    C31   A    
C24   O2    S    
C12   O11   A    
O11   Zn1   S    
N3    Zn2   S    
H25   O6    S    
C41   H22   S    
O1    Zn1   S    
C4    C17   S    
C18   H5    S    
C33   H23   S    
C7    C19   A    
O10   Zn2   S    
C9    C34   A    
C10   C23   A    
C12   O9    A    
C42   C43   S    
C14   H32   S    
O9    Zn2   S    
C13   H4    S    
C45   C48   A    
C7    C9    A    
C1    C20   S    
C26   N2    A    
C24   C47   A    
C8    C10   A    
C18   C48   A    
C6    C10   A    
C5    C8    A    
C6    C7    A    
C27   C36   A    
C39   H13   S    
C22   O16   S    
C31   C38   S    
C22   N1    A    
C13   C15   A    
C24   N2    A    
C21   H8    S    
C6    C13   A    
C16   O12   A    
C46   O7    D    
C28   C37   A    
C1    O10   A    
C28   C30   A    
C42   H21   S    
C28   H30   S    
C44   O5    D    
C30   H28   S    
C22   C45   A    
C20   C21   D    
C43   H17   S    
C25   N1    A    
C34   C47   A    
C20   H7    S    
C43   H19   S    
C4    C30   A    
C3    C16   S    
C44   C48   S    
