data_mof_unit_65557.cif
_audit_creation_date              2012-12-10T19:01:15-0500
_audit_creation_method            fapswitch 2.2
_symmetry_space_group_name_H-M    P1
_symmetry_Int_Tables_number       1
_space_group_crystal_system       triclinic
_cell_length_a                    15.903898
_cell_length_b                    14.258966
_cell_length_c                    13.382071
_cell_angle_alpha                 89.999242
_cell_angle_beta                  89.991357
_cell_angle_gamma                 89.999926
_cell_volume                      3034.69423694

loop_
_atom_site_label
_atom_site_type_symbol
_atom_type_description
_atom_site_fract_x
_atom_site_fract_y
_atom_site_fract_z
_atom_type_partial_charge
C1    C     C_R   0.500001 0.326574 0.500001 0.932583
C2    C     C_1   0.500002 0.499973 0.950478 0.002038
C3    C     C_R   0.336179 0.501075 0.500012 0.951186
C4    C     C_R   0.663819 0.501068 0.499995 0.949583
C5    C     C_R   0.500002 0.673450 0.499999 0.939567
C6    C     C_3   0.050466 0.442221 0.603366 -0.190263
C7    C     C_3   0.050367 0.431692 0.403800 -0.227420
C8    C     C_3   0.949704 0.458453 0.610304 -0.258057
C9    C     C_3   0.949338 0.417606 0.415510 -0.173352
C10   C     C_1   0.751525 0.497401 0.500013 -0.081013
C11   C     C_1   0.248473 0.497367 0.500084 -0.120004
C12   C     C_1   0.500007 0.141356 0.500001 0.040034
C13   C     C_3   0.082768 0.490384 0.500517 -0.198271
C14   C     C_3   0.917166 0.490470 0.500421 -0.212036
C15   C     C_3   0.950764 0.594373 0.476588 0.541063
C16   C     C_3   0.049292 0.596502 0.493082 0.532832
C17   C     C_1   0.825923 0.493940 0.500170 0.079658
C18   C     C_1   0.174077 0.493869 0.500304 0.009686
C19   C     C_1   0.500005 0.225923 0.500001 -0.174571
C20   C     C_2   0.903713 0.371914 0.651508 0.447727
C21   C     C_2   0.923754 0.317074 0.444850 0.430848
C22   C     C_2   0.076833 0.338380 0.605807 0.495161
C23   C     C_1   0.500008 0.042295 0.500000 0.058955
C24   C     C_2   0.096264 0.338049 0.390025 0.296423
C25   C     C_2   0.081552 0.482043 0.308692 0.648441
C26   C     C_2   0.096022 0.479063 0.696854 0.523253
C27   C     C_2   0.902558 0.427354 0.315682 0.704847
C28   C     C_2   0.924536 0.533125 0.687959 0.642579
C29   C     C_1   0.500008 0.957732 0.499999 0.061018
C30   C     C_1   0.500006 0.858671 0.499998 0.046028
C31   C     C_1   0.500004 0.774102 0.499998 -0.165315
C32   C     C_1   0.500001 0.499975 0.169450 0.126978
C33   C     C_1   0.500001 0.499975 0.830550 0.137693
C34   C     C_1   0.500002 0.499973 0.049522 0.000678
Cl1   Cl    Cl    0.079214 0.665425 0.600472 -0.528743
Cl2   Cl    Cl    0.102979 0.665878 0.399087 -0.421578
Cl3   Cl    Cl    0.897146 0.685398 0.546593 -0.420073
Cl4   Cl    Cl    0.920904 0.632885 0.353246 -0.439770
H1    H     H_    0.845462 0.347704 0.618740 0.129779
H2    H     H_    0.968832 0.263570 0.463705 0.116148
H3    H     H_    0.032185 0.281621 0.603612 0.093255
H4    H     H_    0.154132 0.322997 0.429345 0.138133
H5    H     H_    0.148987 0.489744 0.297994 0.061089
H6    H     H_    0.152823 0.520658 0.690988 0.126154
H7    H     H_    0.847992 0.472241 0.308112 0.078198
H8    H     H_    0.969415 0.581186 0.720184 0.140655
N1    N     N_1   0.500000 0.499980 0.261870 -0.056999
N2    N     N_1   0.500000 0.499980 0.738130 -0.054719
O1    O     O_R   0.500000 0.373720 0.576470 -0.595309
O2    O     O_2   0.849816 0.293239 0.444889 -0.577967
O3    O     O_2   0.150925 0.316309 0.613341 -0.567056
O4    O     O_2   0.073787 0.282259 0.325972 -0.471332
O5    O     O_2   0.036140 0.513673 0.243546 -0.451641
O6    O     O_2   0.073659 0.455065 0.780462 -0.488167
O7    O     O_2   0.921097 0.377852 0.244348 -0.452128
O8    O     O_2   0.851204 0.542598 0.713853 -0.518807
O9    O     O_R   0.500000 0.373720 0.423530 -0.597286
O10   O     O_R   0.377150 0.500010 0.576490 -0.602344
O11   O     O_R   0.377150 0.500010 0.423510 -0.613312
O12   O     O_R   0.622850 0.500010 0.576490 -0.593108
O13   O     O_R   0.622850 0.500010 0.423510 -0.609909
O14   O     O_R   0.500000 0.626290 0.576440 -0.594902
O15   O     O_R   0.500000 0.626290 0.423560 -0.594209
O16   O     O_2   0.926497 0.334768 0.729280 -0.482305
Zn1   Zn    Zn3+2 0.500000 0.500010 0.602090 1.031460
Zn2   Zn    Zn3+2 0.500000 0.500010 0.397910 1.018237

loop_
_geom_bond_atom_site_label_1
_geom_bond_atom_site_label_2
_ccdc_geom_bond_type
C24   O4    D    
C6    C8    S    
C9    C14   S    
C11   C18   T    
C20   O16   D    
C29   C30   S    
C4    O13   A    
C1    O9    A    
N2    Zn1   S    
C5    O15   A    
C24   H4    S    
N1    Zn2   S    
C7    C25   S    
O9    Zn2   S    
C9    C21   S    
C25   H5    S    
C28   O8    D    
O15   Zn2   S    
C26   H6    S    
C15   Cl4   S    
C8    C20   S    
C16   Cl2   S    
C6    C13   S    
C33   N2    T    
C12   C23   S    
C28   H8    S    
C6    C26   S    
C21   H2    S    
O1    Zn1   S    
C13   C18   S    
C32   C34   S    
C23   C29   T    
C12   C19   T    
C21   O2    D    
C25   O5    D    
O12   Zn1   S    
C16   Cl1   S    
C22   O3    D    
C30   C31   T    
C8    C28   S    
C32   N1    T    
C27   O7    D    
C1    C19   S    
C22   H3    S    
C3    C11   S    
C27   H7    S    
O13   Zn2   S    
C10   C17   T    
C4    C10   S    
C15   C16   S    
C6    C22   S    
C3    O10   A    
C26   O6    D    
C7    C13   S    
C9    C27   S    
C13   C16   S    
C7    C9    S    
C20   H1    S    
C3    O11   A    
C14   C15   S    
C15   Cl3   S    
C8    C14   S    
O10   Zn1   S    
O14   Zn1   S    
C5    C31   S    
C2    C34   T    
C1    O1    A    
C5    O14   A    
C7    C24   S    
C2    C33   S    
O11   Zn2   S    
C4    O12   A    
C14   C17   S    
