data_mof_unit_28629.cif
_audit_creation_date              2013-03-05T16:35:26-0500
_audit_creation_method            fapswitch 2.2
_symmetry_space_group_name_H-M    P1
_symmetry_Int_Tables_number       1
_space_group_crystal_system       triclinic
_cell_length_a                    9.090591
_cell_length_b                    7.797965
_cell_length_c                    10.678522
_cell_angle_alpha                 89.818232
_cell_angle_beta                  89.961743
_cell_angle_gamma                 90.041408
_cell_volume                      756.97607007

loop_
_atom_site_label
_atom_site_type_symbol
_atom_site_description
_atom_site_fract_x
_atom_site_fract_y
_atom_site_fract_z
_atom_type_partial_charge
O1    O     O_R   0.288390 0.642760 0.500000 -0.563310
O2    O     O_R   0.711610 0.357240 0.500000 -0.563311
O3    O     O_R   0.711610 0.642760 0.500000 -0.584382
O4    O     O_R   0.288390 0.357240 0.500000 -0.584383
C1    C     C_R   0.220076 0.499958 0.499822 0.874420
C2    C     C_R   0.779924 0.500042 0.500178 0.874421
O5    O     O_R   0.499960 0.642760 0.316850 -0.589968
O6    O     O_R   0.500040 0.357240 0.683150 -0.589968
O7    O     O_R   0.500040 0.642760 0.683150 -0.568781
O8    O     O_R   0.499960 0.357240 0.316850 -0.568783
C3    C     C_R   0.500986 0.500332 0.258964 0.875429
C4    C     C_R   0.499014 0.499668 0.741036 0.875428
Cu1   Cu    Cu3+1 0.500000 0.669080 0.500000 1.065303
Cu2   Cu    Cu3+1 0.500000 0.330920 0.500000 1.065302
C5    C     C_3   0.486381 0.663506 0.041020 -0.238065
C6    C     C_3   0.513619 0.336494 0.958980 -0.238064
C7    C     C_3   0.613104 0.596036 0.956184 -0.250411
C8    C     C_3   0.386896 0.403964 0.043816 -0.250411
C9    C     C_3   0.374871 0.564635 0.960844 0.392885
C10   C     C_3   0.625128 0.435365 0.039156 0.392887
H1    H     H_    0.472905 0.796840 0.075369 0.190193
H2    H     H_    0.527095 0.203160 0.924631 0.190194
H3    H     H_    0.706883 0.672012 0.918969 0.201616
H4    H     H_    0.293117 0.327988 0.081031 0.201616
C11   C     C_3   0.498478 0.498956 0.877078 -0.137986
C12   C     C_3   0.501522 0.501044 0.122922 -0.137986
C13   C     C_1   0.065388 0.499943 0.499932 -0.093594
C14   C     C_1   0.934612 0.500057 0.500068 -0.093594
N1    N     N_1   0.500000 0.076820 0.500000 -0.034471
N2    N     N_1   0.500000 0.923180 0.500000 -0.034471
N3    N     N_R   0.234665 0.635787 0.919740 0.137952
O9    O     O_R   0.139505 0.687208 0.002458 -0.312541
O10   O     O_R   0.201870 0.644098 0.801400 -0.364290
N4    N     N_R   0.765334 0.364212 0.080260 0.137956
O11   O     O_R   0.860486 0.312770 0.997542 -0.312544
O12   O     O_R   0.798135 0.355914 0.198599 -0.364291

loop_
_geom_bond_atom_site_label_1
_geom_bond_atom_site_label_2
_geom_bond_distance
_ccdc_geom_bond_type
O5    Cu1   1.967160 S    
C5    C9    1.535979 S    
N3    O10   1.300005 A    
N1    N2    1.198080 T    
N3    O9    1.300416 A    
C8    C12   1.541610 S    
O6    C4    1.272826 A    
C4    C11   1.452729 S    
C6    C10   1.535980 S    
O3    C2    1.274842 A    
C9    N3    1.457813 S    
C7    C11   1.541610 S    
O2    C2    1.274639 A    
Cu1   Cu2   2.636961 S    
O5    C3    1.272826 A    
C7    H3    1.110414 S    
C10   C12   1.525590 S    
C8    H4    1.110414 S    
N4    O11   1.300410 A    
N4    O12   1.300005 A    
O4    Cu2   1.934726 S    
O2    Cu2   1.934430 S    
O7    C4    1.273912 A    
O1    C1    1.274638 A    
O1    Cu1   1.934432 S    
O8    C3    1.273911 A    
C9    C11   1.525590 S    
C10   N4    1.457813 S    
Cu1   N2    1.981462 S    
C5    H1    1.110468 S    
C7    C10   1.536240 S    
C6    C8    1.557910 S    
C8    C9    1.536240 S    
O8    Cu2   1.965865 S    
C6    C11   1.543435 S    
C5    C7    1.557912 S    
O7    Cu1   1.965863 S    
C5    C12   1.543435 S    
O6    Cu2   1.967158 S    
Cu2   N1    1.981462 S    
C3    C12   1.452729 S    
C1    C13   1.406205 S    
C2    C14   1.406205 S    
C6    H2    1.110468 S    
O4    C1    1.274842 A    
C13   C14   1.188829 T    
O3    Cu1   1.934725 S    
