data_mof_unit_61637.cif
_audit_creation_date              2012-12-10T20:30:52-0500
_audit_creation_method            fapswitch 2.2
_symmetry_space_group_name_H-M    P1
_symmetry_Int_Tables_number       1
_space_group_crystal_system       monoclinic
_cell_length_a                    25.917024
_cell_length_b                    39.725895
_cell_length_c                    39.728298
_cell_angle_alpha                 90.000029
_cell_angle_beta                  90.0
_cell_angle_gamma                 90.0
_cell_volume                      40903.3408424

loop_
_atom_site_label
_atom_site_type_symbol
_atom_type_description
_atom_site_fract_x
_atom_site_fract_y
_atom_site_fract_z
_atom_type_partial_charge
C1    C     C_R   0.390125 0.749411 0.999450 0.789421
C2    C     C_R   0.109875 0.250589 0.499450 0.789403
C3    C     C_R   0.526814 0.155636 0.486598 -0.141349
C4    C     C_R   0.026814 0.344362 0.486592 -0.141156
C5    C     C_R   0.973186 0.763417 0.594339 -0.141125
C6    C     C_R   0.973186 0.344362 0.486592 -0.141155
C7    C     C_R   0.026814 0.763417 0.594339 -0.141125
C8    C     C_R   0.472644 0.783391 0.494625 0.097885
C9    C     C_R   0.527356 0.216609 0.494624 0.097892
C10   C     C_R   0.527356 0.783391 0.494625 0.097884
C11   C     C_R   0.472644 0.216609 0.494624 0.097892
C12   C     C_R   0.972644 0.283390 0.494622 0.097880
C13   C     C_R   0.109875 0.750537 0.500576 0.789374
C14   C     C_R   0.027356 0.755370 0.533372 0.097863
C15   C     C_R   0.027356 0.283390 0.494622 0.097881
C16   C     C_R   0.972644 0.755370 0.533372 0.097863
C17   C     C_R   0.972644 0.783390 0.994623 0.097880
C18   C     C_R   0.027356 0.255371 0.033372 0.097863
C19   C     C_R   0.027356 0.783390 0.994623 0.097880
C20   C     C_R   0.972644 0.255371 0.033372 0.097863
C21   C     C_R   0.472644 0.283391 0.994624 0.097884
C22   C     C_R   0.527356 0.716609 0.994624 0.097892
C23   C     C_R   0.527356 0.283391 0.994624 0.097884
C24   C     C_R   0.890125 0.250589 0.499450 0.789403
C25   C     C_R   0.472644 0.716609 0.994624 0.097892
C26   C     C_R   0.053882 0.752336 0.997746 -0.074469
C27   C     C_R   0.946118 0.252238 0.002320 -0.074436
C28   C     C_R   0.946118 0.752336 0.997746 -0.074469
C29   C     C_R   0.053882 0.252238 0.002320 -0.074436
C30   C     C_R   0.553882 0.252336 0.997746 -0.074476
C31   C     C_R   0.446118 0.747664 0.997746 -0.074458
C32   C     C_R   0.446118 0.252336 0.997746 -0.074476
C33   C     C_R   0.553882 0.747664 0.997746 -0.074458
C34   C     C_R   0.553882 0.752336 0.497746 -0.074476
C35   C     C_R   0.390125 0.249411 0.499450 0.789421
C36   C     C_R   0.446118 0.247664 0.497746 -0.074458
C37   C     C_R   0.446118 0.752336 0.497746 -0.074476
C38   C     C_R   0.553882 0.247664 0.497746 -0.074458
C39   C     C_R   0.053882 0.252335 0.497746 -0.074469
C40   C     C_R   0.946118 0.752238 0.502320 -0.074438
C41   C     C_R   0.946118 0.252335 0.497746 -0.074469
C42   C     C_R   0.053882 0.752238 0.502320 -0.074438
C43   C     C_R   0.026673 0.722027 0.999036 -0.208738
C44   C     C_R   0.973327 0.250938 0.972013 -0.208799
C45   C     C_R   0.973327 0.722027 0.999036 -0.208738
C46   C     C_R   0.609875 0.750589 0.499450 0.789406
C47   C     C_R   0.026673 0.250938 0.972013 -0.208798
C48   C     C_R   0.526673 0.222027 0.999035 -0.208677
C49   C     C_R   0.473327 0.777973 0.999034 -0.208676
C50   C     C_R   0.473327 0.222027 0.999035 -0.208677
C51   C     C_R   0.526673 0.777973 0.999034 -0.208675
C52   C     C_R   0.526673 0.722027 0.499034 -0.208677
C53   C     C_R   0.473327 0.277973 0.499035 -0.208675
C54   C     C_R   0.473327 0.722027 0.499034 -0.208677
C55   C     C_R   0.526673 0.277973 0.499035 -0.208675
C56   C     C_R   0.026673 0.222026 0.499037 -0.208738
C57   C     C_R   0.609875 0.249411 0.499450 0.789421
C58   C     C_R   0.973327 0.750939 0.472014 -0.208799
C59   C     C_R   0.973327 0.222026 0.499037 -0.208738
C60   C     C_R   0.026673 0.750939 0.472014 -0.208799
C61   C     C_R   0.249961 0.841023 0.999961 0.781042
C62   C     C_R   0.749999 0.158975 0.999984 0.787480
C63   C     C_R   0.750039 0.841023 0.999961 0.781042
C64   C     C_R   0.250000 0.158975 0.999984 0.787480
C65   C     C_R   0.749954 0.341023 0.999959 0.780578
C66   C     C_R   0.250048 0.658976 0.999958 0.781032
C67   C     C_R   0.250046 0.341023 0.999959 0.780578
C68   C     C_R   0.390125 0.750589 0.499450 0.789406
C69   C     C_R   0.749952 0.658976 0.999958 0.781031
C70   C     C_R   0.749954 0.841023 0.499959 0.780578
C71   C     C_R   0.250048 0.158976 0.499958 0.781031
C72   C     C_R   0.250046 0.841023 0.499959 0.780578
C73   C     C_R   0.749952 0.158976 0.499958 0.781031
C74   C     C_R   0.249961 0.341023 0.499961 0.781042
C75   C     C_R   0.749999 0.658975 0.499984 0.787480
C76   C     C_R   0.750039 0.341023 0.499961 0.781042
C77   C     C_R   0.250000 0.658975 0.499984 0.787480
C78   C     C_R   0.284640 0.431190 0.020578 -0.171379
C79   C     C_1   0.250007 0.750007 0.234874 -0.066990
C80   C     C_R   0.715335 0.568810 0.020560 -0.171350
C81   C     C_R   0.715360 0.431190 0.020578 -0.171380
C82   C     C_R   0.284664 0.568810 0.020560 -0.171350
C83   C     C_R   0.784397 0.931201 0.020692 -0.170835
C84   C     C_R   0.216566 0.068785 0.021320 -0.169458
C85   C     C_R   0.215603 0.931201 0.020692 -0.170835
C86   C     C_R   0.783434 0.068785 0.021320 -0.169458
C87   C     C_R   0.784397 0.431201 0.520692 -0.170835
C88   C     C_R   0.216566 0.568785 0.521320 -0.169457
C89   C     C_R   0.215602 0.431201 0.520692 -0.170835
C90   C     C_1   0.750471 0.250223 0.234869 -0.067940
C91   C     C_R   0.783434 0.568785 0.521320 -0.169458
C92   C     C_R   0.284640 0.931190 0.520578 -0.171379
C93   C     C_R   0.715335 0.068810 0.520560 -0.171351
C94   C     C_R   0.715360 0.931190 0.520578 -0.171379
C95   C     C_R   0.284664 0.068810 0.520560 -0.171350
C96   C     C_R   0.284455 0.396049 0.020719 -0.202884
C97   C     C_R   0.715520 0.603951 0.020702 -0.202576
C98   C     C_R   0.715545 0.396049 0.020719 -0.202883
C99   C     C_R   0.284479 0.603951 0.020702 -0.202576
C100  C     C_R   0.784328 0.896059 0.020778 -0.202595
C101  C     C_1   0.749993 0.750007 0.234874 -0.066990
C102  C     C_R   0.216629 0.103926 0.021404 -0.195665
C103  C     C_R   0.215672 0.896059 0.020778 -0.202595
C104  C     C_R   0.783371 0.103926 0.021404 -0.195665
C105  C     C_R   0.784328 0.396060 0.520778 -0.202595
C106  C     C_R   0.216629 0.603926 0.521404 -0.195665
C107  C     C_R   0.215672 0.396060 0.520778 -0.202595
C108  C     C_R   0.783371 0.603926 0.521404 -0.195665
C109  C     C_R   0.284455 0.896049 0.520720 -0.202884
C110  C     C_R   0.715521 0.103951 0.520702 -0.202575
C111  C     C_R   0.715545 0.896049 0.520720 -0.202884
C112  C     C_R   0.609875 0.250589 0.999450 0.789406
C113  C     C_1   0.249529 0.250223 0.234869 -0.067940
C114  C     C_R   0.284479 0.103951 0.520702 -0.202576
C115  C     C_R   0.250272 0.378155 0.999836 -0.006105
C116  C     C_R   0.749724 0.621844 0.999833 -0.006246
C117  C     C_R   0.749728 0.378155 0.999836 -0.006105
C118  C     C_R   0.250276 0.621844 0.999833 -0.006246
C119  C     C_R   0.750192 0.878154 0.999874 -0.006271
C120  C     C_R   0.249938 0.121839 0.999947 -0.008393
C121  C     C_R   0.249808 0.878154 0.999874 -0.006271
C122  C     C_R   0.750062 0.121839 0.999947 -0.008393
C123  C     C_R   0.750192 0.378154 0.499874 -0.006271
C124  C     C_1   0.750471 0.750224 0.734869 -0.067940
C125  C     C_R   0.249938 0.621839 0.499947 -0.008393
C126  C     C_R   0.249808 0.378154 0.499874 -0.006271
C127  C     C_R   0.750062 0.621839 0.499947 -0.008393
C128  C     C_R   0.250272 0.878155 0.499836 -0.006105
C129  C     C_R   0.749724 0.121844 0.499833 -0.006246
C130  C     C_R   0.749728 0.878155 0.499836 -0.006105
C131  C     C_R   0.250276 0.121844 0.499833 -0.006246
C132  C     C_R   0.216376 0.396096 0.978802 -0.196336
C133  C     C_R   0.783639 0.603904 0.978812 -0.198446
C134  C     C_R   0.783624 0.396096 0.978802 -0.196337
C135  C     C_1   0.250007 0.250007 0.734874 -0.066990
C136  C     C_R   0.216361 0.603904 0.978812 -0.198446
C137  C     C_R   0.716231 0.896081 0.978871 -0.198377
C138  C     C_R   0.283150 0.103914 0.978437 -0.198616
C139  C     C_R   0.283769 0.896081 0.978871 -0.198377
C140  C     C_R   0.716850 0.103914 0.978437 -0.198616
C141  C     C_R   0.716231 0.396081 0.478871 -0.198377
C142  C     C_R   0.283150 0.603914 0.478437 -0.198616
C143  C     C_R   0.283769 0.396081 0.478871 -0.198377
C144  C     C_R   0.716849 0.603914 0.478437 -0.198616
C145  C     C_R   0.216376 0.896096 0.478802 -0.196336
C146  C     C_1   0.249529 0.750224 0.734869 -0.067940
C147  C     C_R   0.783639 0.103903 0.478812 -0.198446
C148  C     C_R   0.783624 0.896096 0.478802 -0.196337
C149  C     C_R   0.216360 0.103903 0.478812 -0.198446
C150  C     C_R   0.216637 0.431237 0.978719 -0.169804
C151  C     C_R   0.783379 0.568762 0.978730 -0.170027
C152  C     C_R   0.783363 0.431237 0.978719 -0.169804
C153  C     C_R   0.216621 0.568762 0.978730 -0.170027
C154  C     C_R   0.716376 0.931222 0.978845 -0.170191
C155  C     C_R   0.283005 0.068771 0.978407 -0.169546
C156  C     C_R   0.283623 0.931222 0.978845 -0.170190
C157  C     C_1   0.749993 0.250007 0.734874 -0.066990
C158  C     C_R   0.716995 0.068771 0.978407 -0.169546
C159  C     C_R   0.716376 0.431222 0.478845 -0.170190
C160  C     C_R   0.283005 0.568771 0.478407 -0.169546
C161  C     C_R   0.283623 0.431222 0.478845 -0.170190
C162  C     C_R   0.716995 0.568771 0.478407 -0.169545
C163  C     C_R   0.216637 0.931237 0.478719 -0.169804
C164  C     C_R   0.783379 0.068762 0.478730 -0.170027
C165  C     C_R   0.783363 0.931237 0.478719 -0.169804
C166  C     C_R   0.216621 0.068762 0.478730 -0.170027
C167  C     C_R   0.250734 0.448787 0.999603 0.161179
C168  C     C_R   0.283190 0.728525 0.181222 -0.168754
C169  C     C_R   0.749262 0.551212 0.999600 0.161435
C170  C     C_R   0.749266 0.448787 0.999603 0.161179
C171  C     C_R   0.250738 0.551212 0.999600 0.161435
C172  C     C_R   0.750420 0.948784 0.999753 0.161350
C173  C     C_R   0.249728 0.051205 0.999833 0.160605
C174  C     C_R   0.249580 0.948784 0.999753 0.161350
C175  C     C_R   0.750272 0.051205 0.999833 0.160605
C176  C     C_R   0.750420 0.448784 0.499753 0.161350
C177  C     C_R   0.249728 0.551205 0.499833 0.160605
C178  C     C_R   0.249580 0.448784 0.499753 0.161350
C179  C     C_R   0.716450 0.271166 0.181230 -0.169445
C180  C     C_R   0.750272 0.551205 0.499833 0.160605
C181  C     C_R   0.250734 0.948787 0.499603 0.161179
C182  C     C_R   0.749262 0.051212 0.499600 0.161435
C183  C     C_R   0.749266 0.948787 0.499603 0.161179
C184  C     C_R   0.250738 0.051212 0.499600 0.161435
C185  C     C_1   0.250832 0.484869 0.999568 -0.068630
C186  C     C_1   0.749167 0.515131 0.999567 -0.068852
C187  C     C_1   0.749168 0.484869 0.999568 -0.068630
C188  C     C_1   0.250833 0.515131 0.999567 -0.068852
C189  C     C_1   0.750416 0.984864 0.999763 -0.068482
C190  C     C_R   0.716810 0.728525 0.181222 -0.168754
C191  C     C_1   0.249635 0.015125 0.999787 -0.067925
C192  C     C_1   0.249584 0.984864 0.999763 -0.068482
C193  C     C_1   0.750365 0.015125 0.999787 -0.067925
C194  C     C_1   0.750416 0.484864 0.499763 -0.068482
C195  C     C_1   0.249635 0.515125 0.499787 -0.067925
C196  C     C_1   0.249584 0.484864 0.499763 -0.068482
C197  C     C_1   0.750365 0.515125 0.499787 -0.067925
C198  C     C_1   0.250832 0.984869 0.499568 -0.068630
C199  C     C_1   0.749167 0.015130 0.499567 -0.068852
C200  C     C_1   0.749168 0.984869 0.499568 -0.068630
C201  C     C_R   0.283550 0.271166 0.181230 -0.169445
C202  C     C_1   0.250833 0.015130 0.499567 -0.068852
C203  C     C_R   0.249992 0.750004 0.908979 0.784743
C204  C     C_R   0.749998 0.250002 0.908979 0.785236
C205  C     C_R   0.750008 0.750004 0.908979 0.784743
C206  C     C_R   0.250002 0.250002 0.908979 0.785236
C207  C     C_R   0.749998 0.750002 0.408979 0.785236
C208  C     C_R   0.249992 0.250004 0.408979 0.784743
C209  C     C_R   0.250002 0.750002 0.408979 0.785236
C210  C     C_R   0.750008 0.250004 0.408979 0.784743
C211  C     C_R   0.250000 0.750000 0.091028 0.789351
C212  C     C_R   0.784408 0.229274 0.181199 -0.170670
C213  C     C_R   0.750048 0.250027 0.091026 0.782883
C214  C     C_R   0.750000 0.750000 0.091028 0.789351
C215  C     C_R   0.249952 0.250027 0.091026 0.782882
C216  C     C_R   0.750048 0.750027 0.591026 0.782882
C217  C     C_R   0.250000 0.250000 0.591028 0.789351
C218  C     C_R   0.249952 0.750027 0.591026 0.782882
C219  C     C_R   0.750000 0.250000 0.591028 0.789351
C220  C     C_R   0.283238 0.728557 0.318786 -0.169087
C221  C     C_R   0.717043 0.271585 0.318772 -0.169146
C222  C     C_R   0.716762 0.728557 0.318786 -0.169087
C223  C     C_R   0.609875 0.749411 0.999450 0.789421
C224  C     C_R   0.216819 0.771484 0.181221 -0.168929
C225  C     C_R   0.282957 0.271585 0.318772 -0.169147
C226  C     C_R   0.783471 0.228664 0.318795 -0.169635
C227  C     C_R   0.216779 0.771459 0.318787 -0.169524
C228  C     C_R   0.216528 0.228664 0.318795 -0.169635
C229  C     C_R   0.783221 0.771459 0.318787 -0.169524
C230  C     C_R   0.783471 0.728664 0.818795 -0.169635
C231  C     C_R   0.216779 0.271459 0.818787 -0.169524
C232  C     C_R   0.216528 0.728664 0.818795 -0.169635
C233  C     C_R   0.783221 0.271459 0.818787 -0.169524
C234  C     C_R   0.283238 0.228557 0.818786 -0.169087
C235  C     C_R   0.215592 0.229274 0.181199 -0.170670
C236  C     C_R   0.717043 0.771586 0.818772 -0.169146
C237  C     C_R   0.716762 0.228557 0.818786 -0.169087
C238  C     C_R   0.282957 0.771586 0.818772 -0.169147
C239  C     C_R   0.283278 0.728528 0.353926 -0.196256
C240  C     C_R   0.716884 0.271556 0.353913 -0.196637
C241  C     C_R   0.716722 0.728528 0.353926 -0.196256
C242  C     C_R   0.283116 0.271556 0.353913 -0.196636
C243  C     C_R   0.783396 0.228581 0.353935 -0.196586
C244  C     C_R   0.216736 0.771484 0.353927 -0.198693
C245  C     C_R   0.216604 0.228581 0.353935 -0.196586
C246  C     C_R   0.783181 0.771484 0.181221 -0.168930
C247  C     C_R   0.783264 0.771484 0.353927 -0.198693
C248  C     C_R   0.783396 0.728581 0.853935 -0.196587
C249  C     C_R   0.216736 0.271484 0.853927 -0.198693
C250  C     C_R   0.216604 0.728581 0.853935 -0.196586
C251  C     C_R   0.783264 0.271484 0.853927 -0.198693
C252  C     C_R   0.283278 0.228528 0.853926 -0.196256
C253  C     C_R   0.716884 0.771556 0.853913 -0.196637
C254  C     C_R   0.716722 0.228528 0.853926 -0.196256
C255  C     C_R   0.283116 0.771556 0.853913 -0.196636
C256  C     C_R   0.250005 0.750004 0.371845 -0.007468
C257  C     C_R   0.784408 0.729274 0.681199 -0.170671
C258  C     C_R   0.750084 0.250041 0.371843 -0.007260
C259  C     C_R   0.749994 0.750004 0.371845 -0.007468
C260  C     C_R   0.249916 0.250041 0.371843 -0.007260
C261  C     C_R   0.750084 0.750041 0.871843 -0.007260
C262  C     C_R   0.250006 0.250005 0.871845 -0.007468
C263  C     C_R   0.249916 0.750041 0.871843 -0.007260
C264  C     C_R   0.749994 0.250005 0.871845 -0.007468
C265  C     C_R   0.250009 0.750008 0.301214 0.160502
C266  C     C_R   0.750320 0.250156 0.301210 0.160345
C267  C     C_R   0.749991 0.750008 0.301214 0.160502
C268  C     C_R   0.216819 0.271484 0.681221 -0.168929
C269  C     C_R   0.249680 0.250156 0.301210 0.160345
C270  C     C_R   0.750320 0.750156 0.801210 0.160345
C271  C     C_R   0.250009 0.250008 0.801214 0.160502
C272  C     C_R   0.249680 0.750156 0.801210 0.160345
C273  C     C_R   0.749991 0.250008 0.801214 0.160502
C274  C     C_1   0.250008 0.750008 0.265134 -0.067271
C275  C     C_1   0.750420 0.250200 0.265129 -0.067435
C276  C     C_1   0.749992 0.750008 0.265134 -0.067271
C277  C     C_1   0.249580 0.250200 0.265129 -0.067435
C278  C     C_1   0.750420 0.750200 0.765129 -0.067435
C279  C     C_R   0.215592 0.729274 0.681199 -0.170671
C280  C     C_1   0.250008 0.250008 0.765134 -0.067271
C281  C     C_1   0.249580 0.750200 0.765129 -0.067435
C282  C     C_1   0.749992 0.250008 0.765134 -0.067271
C283  C     C_R   0.783181 0.271484 0.681221 -0.168930
C284  C     C_R   0.283190 0.228525 0.681222 -0.168754
C285  C     C_R   0.716450 0.771166 0.681230 -0.169446
C286  C     C_R   0.716810 0.228525 0.681222 -0.168754
C287  C     C_R   0.390125 0.250589 0.999450 0.789406
C288  C     C_R   0.283550 0.771166 0.681230 -0.169446
C289  C     C_R   0.283230 0.728496 0.146082 -0.195688
C290  C     C_R   0.716292 0.271139 0.146090 -0.195534
C291  C     C_R   0.716770 0.728496 0.146082 -0.195688
C292  C     C_R   0.283708 0.271139 0.146090 -0.195534
C293  C     C_R   0.784326 0.229188 0.146059 -0.202657
C294  C     C_R   0.216775 0.771509 0.146081 -0.195677
C295  C     C_R   0.215674 0.229188 0.146059 -0.202657
C296  C     C_R   0.783225 0.771509 0.146081 -0.195677
C297  C     C_R   0.784326 0.729188 0.646059 -0.202658
C298  C     C_R   0.890125 0.250537 0.000575 0.789373
C299  C     C_R   0.216775 0.271509 0.646081 -0.195677
C300  C     C_R   0.215674 0.729188 0.646059 -0.202657
C301  C     C_R   0.783225 0.271509 0.646081 -0.195677
C302  C     C_R   0.283230 0.228496 0.646082 -0.195688
C303  C     C_R   0.716291 0.771139 0.646090 -0.195534
C304  C     C_R   0.716770 0.228496 0.646082 -0.195688
C305  C     C_R   0.283708 0.771139 0.646090 -0.195533
C306  C     C_R   0.250001 0.750001 0.128163 -0.009307
C307  C     C_R   0.750214 0.250114 0.128158 -0.007196
C308  C     C_R   0.749999 0.750001 0.128163 -0.009307
C309  C     C_R   0.109875 0.750589 0.999450 0.789403
C310  C     C_R   0.249786 0.250114 0.128158 -0.007196
C311  C     C_R   0.750214 0.750114 0.628158 -0.007196
C312  C     C_R   0.250001 0.250001 0.628163 -0.009307
C313  C     C_R   0.249786 0.750114 0.628158 -0.007196
C314  C     C_R   0.749998 0.250001 0.628163 -0.009307
C315  C     C_R   0.250006 0.750005 0.198795 0.160016
C316  C     C_R   0.750468 0.250235 0.198788 0.160846
C317  C     C_R   0.749994 0.750005 0.198795 0.160016
C318  C     C_R   0.249532 0.250235 0.198788 0.160846
C319  C     C_R   0.750468 0.750235 0.698788 0.160847
C320  C     C_R   0.109875 0.250537 0.000575 0.789373
C321  C     C_R   0.250006 0.250005 0.698794 0.160016
C322  C     C_R   0.249532 0.750235 0.698788 0.160847
C323  C     C_R   0.749994 0.250005 0.698794 0.160016
C324  C     C_R   0.053820 0.814243 0.990205 -0.176944
C325  C     C_R   0.946180 0.259799 0.064222 -0.176843
C326  C     C_R   0.946180 0.814243 0.990205 -0.176945
C327  C     C_R   0.053819 0.259799 0.064222 -0.176844
C328  C     C_R   0.553820 0.314244 0.990208 -0.176746
C329  C     C_R   0.446181 0.685756 0.990209 -0.176762
C330  C     C_R   0.446180 0.314244 0.990208 -0.176745
C331  C     C_R   0.890125 0.750589 0.999450 0.789403
C332  C     C_R   0.553820 0.685756 0.990207 -0.176759
C333  C     C_R   0.553820 0.814244 0.490209 -0.176746
C334  C     C_R   0.446180 0.185756 0.490208 -0.176762
C335  C     C_R   0.446180 0.814244 0.490209 -0.176745
C336  C     C_R   0.553820 0.185756 0.490208 -0.176762
C337  C     C_R   0.053820 0.314243 0.490204 -0.176945
C338  C     C_R   0.946180 0.759797 0.564222 -0.176843
C339  C     C_R   0.946180 0.314243 0.490204 -0.176944
C340  C     C_R   0.053819 0.759797 0.564222 -0.176843
C341  C     C_R   0.026814 0.844362 0.986594 -0.141155
C342  C     C_R   0.890125 0.750537 0.500576 0.789374
C343  C     C_R   0.973186 0.263419 0.094338 -0.141125
C344  C     C_R   0.973186 0.844362 0.986594 -0.141155
C345  C     C_R   0.026814 0.263419 0.094338 -0.141123
C346  C     C_R   0.526814 0.344364 0.986599 -0.141361
C347  C     C_R   0.473187 0.655636 0.986599 -0.141351
C348  C     C_R   0.473186 0.344364 0.986599 -0.141361
C349  C     C_R   0.526814 0.655636 0.986598 -0.141350
C350  C     C_R   0.526814 0.844364 0.486600 -0.141361
C351  C     C_R   0.473186 0.155636 0.486599 -0.141351
C352  C     C_R   0.473186 0.844364 0.486600 -0.141362
H1    H     H_    0.309092 0.711868 0.305333 0.134375
H2    H     H_    0.190926 0.288149 0.805335 0.134018
H3    H     H_    0.046911 0.249079 0.948207 0.155641
H4    H     H_    0.546910 0.198218 0.000886 0.155633
H5    H     H_    0.453089 0.801782 0.000886 0.155639
H6    H     H_    0.453090 0.198218 0.000886 0.155634
H7    H     H_    0.546910 0.801782 0.000886 0.155639
H8    H     H_    0.546910 0.698218 0.500885 0.155634
H9    H     H_    0.453090 0.301782 0.500886 0.155638
H10   H     H_    0.453090 0.698218 0.500885 0.155634
H11   H     H_    0.546910 0.301782 0.500886 0.155638
H12   H     H_    0.046910 0.198218 0.500890 0.155667
H13   H     H_    0.190645 0.711987 0.805353 0.134085
H14   H     H_    0.953089 0.749081 0.448207 0.155643
H15   H     H_    0.953090 0.198218 0.500890 0.155667
H16   H     H_    0.046911 0.749081 0.448207 0.155643
H17   H     H_    0.095394 0.815503 0.988715 0.146299
H18   H     H_    0.904606 0.261290 0.065481 0.146362
H19   H     H_    0.904606 0.815503 0.988715 0.146300
H20   H     H_    0.095394 0.261290 0.065481 0.146363
H21   H     H_    0.595394 0.315504 0.988718 0.146340
H22   H     H_    0.404606 0.684496 0.988719 0.146264
H23   H     H_    0.404606 0.315504 0.988718 0.146339
H24   H     H_    0.809074 0.288149 0.805335 0.134018
H25   H     H_    0.595394 0.684496 0.988716 0.146260
H26   H     H_    0.595394 0.815504 0.488719 0.146341
H27   H     H_    0.404606 0.184496 0.488718 0.146263
H28   H     H_    0.404606 0.815504 0.488718 0.146340
H29   H     H_    0.595394 0.184496 0.488717 0.146262
H30   H     H_    0.095394 0.315503 0.488713 0.146298
H31   H     H_    0.904606 0.761288 0.565482 0.146365
H32   H     H_    0.904606 0.315503 0.488714 0.146298
H33   H     H_    0.095394 0.761288 0.565482 0.146365
H34   H     H_    0.047621 0.867757 0.983261 0.136827
H35   H     H_    0.309092 0.211868 0.805333 0.134375
H36   H     H_    0.952379 0.266760 0.117730 0.136851
H37   H     H_    0.952379 0.867757 0.983261 0.136827
H38   H     H_    0.047621 0.266760 0.117730 0.136851
H39   H     H_    0.547621 0.367758 0.983267 0.136504
H40   H     H_    0.452379 0.632242 0.983267 0.136495
H41   H     H_    0.452378 0.367758 0.983267 0.136504
H42   H     H_    0.547622 0.632242 0.983266 0.136495
H43   H     H_    0.547621 0.867758 0.483269 0.136504
H44   H     H_    0.452379 0.132242 0.483266 0.136495
H45   H     H_    0.452379 0.867758 0.483268 0.136504
H46   H     H_    0.691242 0.788302 0.805311 0.134367
H47   H     H_    0.547621 0.132242 0.483266 0.136495
H48   H     H_    0.047621 0.367756 0.483258 0.136828
H49   H     H_    0.952379 0.766757 0.617731 0.136851
H50   H     H_    0.952379 0.367756 0.483259 0.136828
H51   H     H_    0.047621 0.766757 0.617731 0.136851
H52   H     H_    0.311176 0.444624 0.036820 0.133625
H53   H     H_    0.688784 0.555376 0.036792 0.133584
H54   H     H_    0.688824 0.444624 0.036820 0.133625
H55   H     H_    0.311216 0.555376 0.036792 0.133583
H56   H     H_    0.810899 0.944646 0.036949 0.133915
H57   H     H_    0.690908 0.211868 0.805333 0.134375
H58   H     H_    0.190683 0.055337 0.037994 0.134221
H59   H     H_    0.189101 0.944646 0.036949 0.133915
H60   H     H_    0.809317 0.055337 0.037994 0.134221
H61   H     H_    0.810898 0.444646 0.536949 0.133916
H62   H     H_    0.190683 0.555337 0.537994 0.134221
H63   H     H_    0.189101 0.444646 0.536949 0.133916
H64   H     H_    0.809317 0.555337 0.537994 0.134221
H65   H     H_    0.311176 0.944624 0.536820 0.133625
H66   H     H_    0.688784 0.055376 0.536792 0.133583
H67   H     H_    0.688824 0.944624 0.536820 0.133625
H68   H     H_    0.308758 0.788302 0.805311 0.134367
H69   H     H_    0.311216 0.055376 0.536792 0.133583
H70   H     H_    0.311055 0.382925 0.037143 0.160538
H71   H     H_    0.688904 0.617074 0.037115 0.160423
H72   H     H_    0.688945 0.382925 0.037144 0.160538
H73   H     H_    0.311096 0.617074 0.037115 0.160422
H74   H     H_    0.810974 0.882946 0.037178 0.160470
H75   H     H_    0.190626 0.117033 0.038241 0.161571
H76   H     H_    0.189026 0.882946 0.037178 0.160470
H77   H     H_    0.809374 0.117033 0.038241 0.161571
H78   H     H_    0.810974 0.382946 0.537178 0.160470
H79   H     H_    0.189639 0.383010 0.962444 0.161054
H80   H     H_    0.190626 0.617034 0.538241 0.161571
H81   H     H_    0.189026 0.382946 0.537178 0.160470
H82   H     H_    0.809374 0.617034 0.538241 0.161571
H83   H     H_    0.311055 0.882926 0.537143 0.160538
H84   H     H_    0.688904 0.117074 0.537115 0.160422
H85   H     H_    0.688945 0.882926 0.537143 0.160538
H86   H     H_    0.311096 0.117074 0.537115 0.160422
H87   H     H_    0.810393 0.616989 0.962466 0.160016
H88   H     H_    0.810361 0.383010 0.962444 0.161054
H89   H     H_    0.691242 0.288302 0.305310 0.134367
H90   H     H_    0.189607 0.616989 0.962466 0.160016
H91   H     H_    0.689524 0.882985 0.962501 0.160036
H92   H     H_    0.309222 0.117013 0.961639 0.160112
H93   H     H_    0.310475 0.882985 0.962501 0.160036
H94   H     H_    0.690777 0.117013 0.961639 0.160112
H95   H     H_    0.689524 0.382985 0.462501 0.160036
H96   H     H_    0.309223 0.617013 0.461639 0.160112
H97   H     H_    0.310476 0.382985 0.462501 0.160036
H98   H     H_    0.690777 0.617013 0.461639 0.160112
H99   H     H_    0.189639 0.883010 0.462444 0.161054
H100  H     H_    0.690908 0.711868 0.305333 0.134375
H101  H     H_    0.810393 0.116989 0.462466 0.160016
H102  H     H_    0.810361 0.883010 0.462445 0.161054
H103  H     H_    0.189607 0.116989 0.462466 0.160016
H104  H     H_    0.190253 0.444709 0.962403 0.134128
H105  H     H_    0.809779 0.555290 0.962425 0.133840
H106  H     H_    0.809746 0.444709 0.962403 0.134128
H107  H     H_    0.190221 0.555290 0.962425 0.133840
H108  H     H_    0.689944 0.944683 0.962553 0.133759
H109  H     H_    0.308813 0.055312 0.961694 0.133789
H110  H     H_    0.310055 0.944683 0.962553 0.133758
H111  H     H_    0.308758 0.288302 0.305310 0.134367
H112  H     H_    0.691187 0.055312 0.961694 0.133789
H113  H     H_    0.689944 0.444683 0.462553 0.133758
H114  H     H_    0.308813 0.555312 0.461694 0.133789
H115  H     H_    0.310055 0.444683 0.462553 0.133758
H116  H     H_    0.691187 0.555312 0.461694 0.133788
H117  H     H_    0.190253 0.944709 0.462403 0.134128
H118  H     H_    0.809779 0.055290 0.462425 0.133840
H119  H     H_    0.809747 0.944709 0.462403 0.134128
H120  H     H_    0.190221 0.055290 0.462425 0.133840
H121  H     H_    0.309322 0.711714 0.367028 0.161085
H122  H     H_    0.809355 0.211987 0.305353 0.134085
H123  H     H_    0.690812 0.288357 0.367008 0.161166
H124  H     H_    0.690678 0.711714 0.367028 0.161085
H125  H     H_    0.309188 0.288357 0.367008 0.161165
H126  H     H_    0.809390 0.211741 0.367046 0.161130
H127  H     H_    0.190690 0.788296 0.367030 0.160214
H128  H     H_    0.190609 0.211741 0.367046 0.161130
H129  H     H_    0.809310 0.788296 0.367030 0.160214
H130  H     H_    0.809390 0.711741 0.867046 0.161130
H131  H     H_    0.190690 0.288296 0.867030 0.160215
H132  H     H_    0.190609 0.711741 0.867046 0.161130
H133  H     H_    0.190926 0.788149 0.305335 0.134018
H134  H     H_    0.809310 0.288296 0.867030 0.160215
H135  H     H_    0.309322 0.211714 0.867028 0.161085
H136  H     H_    0.690812 0.788357 0.867008 0.161166
H137  H     H_    0.690678 0.211714 0.867028 0.161085
H138  H     H_    0.309188 0.788357 0.867008 0.161165
H139  H     H_    0.309010 0.711813 0.194675 0.134510
H140  H     H_    0.690047 0.287475 0.194694 0.134458
H141  H     H_    0.690990 0.711813 0.194675 0.134510
H142  H     H_    0.309953 0.287475 0.194694 0.134458
H143  H     H_    0.810889 0.212999 0.194640 0.133872
H144  H     H_    0.190645 0.211987 0.305353 0.134085
H145  H     H_    0.191000 0.788197 0.194674 0.134384
H146  H     H_    0.189111 0.212999 0.194640 0.133872
H147  H     H_    0.809000 0.788197 0.194674 0.134384
H148  H     H_    0.810889 0.712999 0.694640 0.133872
H149  H     H_    0.191000 0.288197 0.694674 0.134384
H150  H     H_    0.189111 0.712999 0.694640 0.133872
H151  H     H_    0.809000 0.288197 0.694674 0.134385
H152  H     H_    0.309010 0.211813 0.694675 0.134510
H153  H     H_    0.690046 0.787475 0.694694 0.134458
H154  H     H_    0.690990 0.211813 0.694675 0.134510
H155  H     H_    0.809074 0.788149 0.305335 0.134018
H156  H     H_    0.309953 0.787475 0.694694 0.134458
H157  H     H_    0.309240 0.711659 0.132980 0.161665
H158  H     H_    0.689606 0.287529 0.133000 0.161635
H159  H     H_    0.690760 0.711659 0.132980 0.161665
H160  H     H_    0.310393 0.287529 0.133000 0.161635
H161  H     H_    0.810942 0.212770 0.132943 0.160500
H162  H     H_    0.190764 0.788345 0.132979 0.161652
H163  H     H_    0.189058 0.212770 0.132943 0.160500
H164  H     H_    0.809236 0.788345 0.132979 0.161652
H165  H     H_    0.810942 0.712770 0.632943 0.160500
H166  H     H_    0.809355 0.711987 0.805353 0.134085
H167  H     H_    0.190764 0.288345 0.632979 0.161652
H168  H     H_    0.189058 0.712770 0.632943 0.160500
H169  H     H_    0.809236 0.288345 0.632979 0.161652
H170  H     H_    0.309240 0.211659 0.632980 0.161665
H171  H     H_    0.689606 0.787529 0.633000 0.161635
H172  H     H_    0.690760 0.211659 0.632980 0.161665
H173  H     H_    0.310394 0.787529 0.633000 0.161635
H174  H     H_    0.046910 0.698218 0.000889 0.155668
H175  H     H_    0.953089 0.249079 0.948207 0.155641
H176  H     H_    0.953090 0.698218 0.000889 0.155668
O1    O     O_3   0.250000 0.750000 0.000000 -0.467460
O2    O     O_R   0.634210 0.269630 0.019620 -0.645728
O3    O     O_R   0.865790 0.230390 0.480380 -0.638240
O4    O     O_R   0.365790 0.269610 0.480380 -0.638192
O5    O     O_R   0.634210 0.730390 0.480380 -0.638474
O6    O     O_R   0.634210 0.269610 0.480380 -0.638192
O7    O     O_R   0.365790 0.730390 0.480380 -0.638474
O8    O     O_R   0.634210 0.730370 0.019620 -0.646002
O9    O     O_R   0.365790 0.269630 0.019620 -0.645728
O10   O     O_R   0.865790 0.230370 0.019620 -0.646058
O11   O     O_R   0.134210 0.769630 0.019620 -0.645974
O12   O     O_R   0.134210 0.230370 0.019620 -0.646059
O13   O     O_R   0.865790 0.769630 0.019620 -0.645974
O14   O     O_R   0.865790 0.730370 0.519620 -0.646060
O15   O     O_R   0.134210 0.269630 0.519620 -0.645973
O16   O     O_R   0.134210 0.730370 0.519620 -0.646060
O17   O     O_3   0.750000 0.250000 0.000000 -0.467453
O18   O     O_R   0.865790 0.269630 0.519620 -0.645973
O19   O     O_R   0.365790 0.230370 0.519620 -0.646002
O20   O     O_R   0.634210 0.769630 0.519620 -0.645728
O21   O     O_R   0.634210 0.230370 0.519620 -0.646002
O22   O     O_R   0.365790 0.769630 0.519620 -0.645728
O23   O     O_R   0.280360 0.824820 0.980370 -0.644939
O24   O     O_R   0.719640 0.175180 0.980370 -0.645698
O25   O     O_R   0.719640 0.824820 0.980370 -0.644939
O26   O     O_R   0.280360 0.175180 0.980370 -0.645698
O27   O     O_R   0.780360 0.324820 0.980370 -0.644169
O28   O     O_3   0.750000 0.750000 0.000000 -0.467460
O29   O     O_R   0.219640 0.675180 0.980370 -0.644902
O30   O     O_R   0.219640 0.324820 0.980370 -0.644169
O31   O     O_R   0.780360 0.675180 0.980370 -0.644902
O32   O     O_R   0.780360 0.824820 0.480370 -0.644169
O33   O     O_R   0.219640 0.175180 0.480370 -0.644902
O34   O     O_R   0.219640 0.824820 0.480370 -0.644169
O35   O     O_R   0.780360 0.175180 0.480370 -0.644902
O36   O     O_R   0.280360 0.324820 0.480370 -0.644939
O37   O     O_R   0.719640 0.675180 0.480370 -0.645698
O38   O     O_R   0.719640 0.324820 0.480370 -0.644939
O39   O     O_3   0.250000 0.250000 0.000000 -0.467453
O40   O     O_R   0.280360 0.675180 0.480370 -0.645698
O41   O     O_R   0.280350 0.769620 0.925180 -0.645159
O42   O     O_R   0.719650 0.230380 0.925180 -0.644619
O43   O     O_R   0.719650 0.769620 0.925180 -0.645159
O44   O     O_R   0.280350 0.230380 0.925180 -0.644619
O45   O     O_R   0.780350 0.269620 0.925180 -0.645935
O46   O     O_R   0.219650 0.730380 0.925180 -0.645231
O47   O     O_R   0.219650 0.269620 0.925180 -0.645935
O48   O     O_R   0.780350 0.730380 0.925180 -0.645231
O49   O     O_R   0.780350 0.769620 0.425180 -0.645935
O50   O     O_3   0.750000 0.750000 0.500000 -0.467453
O51   O     O_R   0.219650 0.230380 0.425180 -0.645231
O52   O     O_R   0.219650 0.769620 0.425180 -0.645935
O53   O     O_R   0.780350 0.230380 0.425180 -0.645231
O54   O     O_R   0.280350 0.269620 0.425180 -0.645159
O55   O     O_R   0.719650 0.730380 0.425180 -0.644619
O56   O     O_R   0.719650 0.269620 0.425180 -0.645159
O57   O     O_R   0.280350 0.730380 0.425180 -0.644619
O58   O     O_R   0.280370 0.730380 0.074830 -0.642653
O59   O     O_R   0.719630 0.269620 0.074830 -0.641869
O60   O     O_R   0.719630 0.730380 0.074830 -0.642653
O61   O     O_3   0.250000 0.250000 0.500000 -0.467460
O62   O     O_R   0.280370 0.269620 0.074830 -0.641869
O63   O     O_R   0.780370 0.230380 0.074830 -0.649812
O64   O     O_R   0.219630 0.769620 0.074830 -0.642661
O65   O     O_R   0.219630 0.230380 0.074830 -0.649813
O66   O     O_R   0.780370 0.769620 0.074830 -0.642661
O67   O     O_R   0.780370 0.730380 0.574830 -0.649813
O68   O     O_R   0.219630 0.269620 0.574830 -0.642661
O69   O     O_R   0.219630 0.730380 0.574830 -0.649813
O70   O     O_R   0.780370 0.269620 0.574830 -0.642661
O71   O     O_R   0.280370 0.230380 0.574830 -0.642653
O72   O     O_3   0.250000 0.750000 0.500000 -0.467453
O73   O     O_R   0.719630 0.769620 0.574830 -0.641868
O74   O     O_R   0.719630 0.230380 0.574830 -0.642653
O75   O     O_R   0.280370 0.769620 0.574830 -0.641868
O76   O     O_R   0.219650 0.824830 0.019610 -0.649473
O77   O     O_R   0.780350 0.175170 0.019610 -0.642359
O78   O     O_R   0.780350 0.824830 0.019610 -0.649473
O79   O     O_R   0.219650 0.175170 0.019610 -0.642359
O80   O     O_R   0.719650 0.324830 0.019610 -0.650074
O81   O     O_R   0.280350 0.675170 0.019610 -0.649494
O82   O     O_R   0.280350 0.324830 0.019610 -0.650074
O83   O     O_3   0.750000 0.250000 0.500000 -0.467460
O84   O     O_R   0.719650 0.675170 0.019610 -0.649494
O85   O     O_R   0.719650 0.824830 0.519610 -0.650074
O86   O     O_R   0.280350 0.175170 0.519610 -0.649494
O87   O     O_R   0.280350 0.824830 0.519610 -0.650074
O88   O     O_R   0.719650 0.175170 0.519610 -0.649494
O89   O     O_R   0.219650 0.324830 0.519610 -0.649473
O90   O     O_R   0.780350 0.675170 0.519610 -0.642359
O91   O     O_R   0.780350 0.324830 0.519610 -0.649473
O92   O     O_R   0.219650 0.675170 0.519610 -0.642359
O93   O     O_R   0.365790 0.769610 0.980380 -0.638192
O94   O     O_R   0.365790 0.730370 0.019620 -0.646003
O95   O     O_R   0.634210 0.230390 0.980380 -0.638474
O96   O     O_R   0.634210 0.769610 0.980380 -0.638192
O97   O     O_R   0.365790 0.230390 0.980380 -0.638474
O98   O     O_R   0.865790 0.269610 0.980380 -0.638175
O99   O     O_R   0.134210 0.730390 0.980380 -0.638241
O100  O     O_R   0.134210 0.269610 0.980380 -0.638175
O101  O     O_R   0.865790 0.730390 0.980380 -0.638240
O102  O     O_R   0.865790 0.769610 0.480380 -0.638175
O103  O     O_R   0.134210 0.230390 0.480380 -0.638240
O104  O     O_R   0.134210 0.769610 0.480380 -0.638175
Zn1   Zn    Zn3+2 0.206630 0.778030 0.028030 0.964780
Zn2   Zn    Zn3+2 0.293370 0.221970 0.528030 0.964768
Zn3   Zn    Zn3+2 0.293370 0.778030 0.528030 0.962007
Zn4   Zn    Zn3+2 0.706630 0.221970 0.528030 0.964768
Zn5   Zn    Zn3+2 0.206630 0.278030 0.528030 0.964780
Zn6   Zn    Zn3+2 0.793370 0.721970 0.528030 0.964696
Zn7   Zn    Zn3+2 0.793370 0.278030 0.528030 0.964780
Zn8   Zn    Zn3+2 0.206630 0.721970 0.528030 0.964696
Zn9   Zn    Zn3+2 0.293370 0.778030 0.971970 0.964802
Zn10  Zn    Zn3+2 0.706630 0.221970 0.971970 0.967541
Zn11  Zn    Zn3+2 0.706630 0.778030 0.971970 0.964802
Zn12  Zn    Zn3+2 0.793370 0.221970 0.028030 0.964696
Zn13  Zn    Zn3+2 0.293370 0.221970 0.971970 0.967541
Zn14  Zn    Zn3+2 0.793370 0.278030 0.971970 0.964795
Zn15  Zn    Zn3+2 0.206630 0.721970 0.971970 0.964743
Zn16  Zn    Zn3+2 0.206630 0.278030 0.971970 0.964795
Zn17  Zn    Zn3+2 0.793370 0.721970 0.971970 0.964743
Zn18  Zn    Zn3+2 0.793370 0.778030 0.471970 0.964795
Zn19  Zn    Zn3+2 0.206630 0.221970 0.471970 0.964743
Zn20  Zn    Zn3+2 0.206630 0.778030 0.471970 0.964795
Zn21  Zn    Zn3+2 0.793370 0.221970 0.471970 0.964743
Zn22  Zn    Zn3+2 0.293370 0.278030 0.471970 0.964802
Zn23  Zn    Zn3+2 0.793370 0.778030 0.028030 0.964780
Zn24  Zn    Zn3+2 0.706630 0.721970 0.471970 0.967541
Zn25  Zn    Zn3+2 0.706630 0.278030 0.471970 0.964802
Zn26  Zn    Zn3+2 0.293370 0.721970 0.471970 0.967541
Zn27  Zn    Zn3+2 0.206630 0.221970 0.028030 0.964696
Zn28  Zn    Zn3+2 0.706630 0.278030 0.028030 0.962007
Zn29  Zn    Zn3+2 0.293370 0.721970 0.028030 0.964768
Zn30  Zn    Zn3+2 0.293370 0.278030 0.028030 0.962007
Zn31  Zn    Zn3+2 0.706630 0.721970 0.028030 0.964769
Zn32  Zn    Zn3+2 0.706630 0.778030 0.528030 0.962007

loop_
_geom_bond_atom_site_label_1
_geom_bond_atom_site_label_2
_ccdc_geom_bond_type
C215  O62   A    
O28   Zn17  S    
C208  C260  S    
C237  H57   S    
C158  C175  A    
C133  C151  A    
C32   C287  S    
C208  O54   A    
C215  C310  S    
C204  C264  S    
C70   O85   A    
C77   C125  S    
C88   C177  A    
C69   C116  S    
C87   C176  A    
C78   C167  A    
C229  H155  S    
O1    Zn29  S    
C168  H139  S    
C100  H74   S    
C227  H133  S    
C219  C314  S    
C50   H6    S    
C268  C299  A    
C147  C164  A    
C64   O26   A    
C293  C307  A    
C128  C145  A    
C147  H101  S    
C194  C197  T    
O50   Zn24  S    
C336  H29   S    
C303  H171  S    
O39   Zn16  S    
C167  C185  S    
C37   C68   S    
C294  H162  S    
C94   C111  A    
C74   O36   A    
C105  C123  A    
C284  H152  S    
C102  H75   S    
C208  O51   A    
C52   H8    S    
C349  H42   S    
C211  C306  S    
C38   C55   A    
C78   C96   A    
C179  H140  S    
O65   Zn27  S    
C170  C187  S    
C154  H108  S    
C204  O45   A    
C236  C253  A    
O22   Zn3   S    
C85   C103  A    
C93   C110  A    
C283  C301  A    
C48   C50   A    
O87   Zn3   S    
C199  C200  T    
O3    Zn21  S    
O97   Zn13  S    
C225  H111  S    
C148  C165  A    
C163  H117  S    
C93   H66   S    
C235  C318  A    
C13   C42   S    
O7    Zn26  S    
O45   Zn14  S    
O48   Zn17  S    
O19   Zn2   S    
O11   Zn1   S    
O80   Zn28  S    
C301  C314  A    
C40   C58   A    
C182  C199  S    
C135  C280  T    
C165  C183  A    
O61   Zn19  S    
C237  C254  A    
C19   C324  A    
C166  C184  A    
C329  C347  A    
C210  O53   A    
O28   Zn31  S    
C106  H80   S    
C17   C19   A    
C116  C133  A    
C230  C270  A    
O60   Zn31  S    
C142  H96   S    
C296  C308  A    
O1    Zn9   S    
C287  O97   A    
C33   C51   A    
C286  H154  S    
C68   O22   A    
C75   O37   A    
C343  H36   S    
O27   Zn14  S    
C23   C30   A    
C233  H24   S    
C330  H23   S    
O8    Zn31  S    
O4    Zn22  S    
C332  C349  A    
C38   C57   S    
C152  C170  A    
C111  C130  A    
C190  C291  A    
C141  H95   S    
C14   C340  A    
C334  C351  A    
C302  H170  S    
O43   Zn11  S    
C123  C141  A    
O79   Zn27  S    
C201  H142  S    
C68   O7    A    
C292  H160  S    
C114  C131  A    
C245  H128  S    
C15   C39   A    
C146  C281  T    
C295  H163  S    
C16   C40   A    
O38   Zn25  S    
O100  Zn16  S    
C198  C202  T    
C240  H123  S    
C255  C263  A    
C79   C274  T    
C83   C100  A    
C49   H5    S    
O59   Zn28  S    
C131  C149  A    
C135  C321  S    
C94   C183  A    
O67   Zn6   S    
C234  C252  A    
C84   C173  A    
C103  C121  A    
C118  C136  A    
C303  C311  A    
C253  C261  A    
O68   Zn5   S    
O90   Zn6   S    
C82   C171  A    
O12   Zn27  S    
C345  H38   S    
C177  C195  S    
O70   Zn7   S    
O83   Zn21  S    
C77   O92   A    
C35   O19   A    
C206  O47   A    
C214  O66   A    
C61   O23   A    
C221  H89   S    
C62   O24   A    
C294  C306  A    
O32   Zn18  S    
C288  H156  S    
C201  C318  A    
C64   C120  S    
C56   C59   A    
C217  O71   A    
C219  O74   A    
C297  H165  S    
C284  C321  A    
C17   C326  A    
C136  C153  A    
C152  H106  S    
C150  H104  S    
C10   C333  A    
C96   H70   S    
C223  O96   A    
C92   C109  A    
O36   Zn22  S    
C338  H31   S    
C63   O25   A    
C54   H10   S    
C195  C196  T    
C8    C10   A    
C244  C256  A    
C291  C308  A    
C186  C187  T    
C114  H86   S    
C58   C60   A    
C143  C161  A    
C12   C339  A    
O55   Zn24  S    
C9    C336  A    
O13   Zn23  S    
O17   Zn10  S    
C25   C31   A    
O14   Zn6   S    
C60   H16   S    
C11   C334  A    
C80   C97   A    
C163  C181  A    
C84   C102  A    
C126  C143  A    
C110  H84   S    
C339  H32   S    
C326  C344  A    
C16   C338  A    
C296  H164  S    
C108  H82   S    
C342  O102  A    
C106  C125  A    
C351  H44   S    
C102  C120  A    
C29   C47   A    
C76   O38   A    
C273  C282  S    
C279  C322  A    
O41   Zn9   S    
C287  O9    A    
C151  H105  S    
C344  H37   S    
C219  O70   A    
O2    Zn28  S    
C103  H76   S    
C104  C122  A    
C304  H172  S    
C268  H149  S    
C26   C309  S    
C340  H33   S    
C1    C31   S    
C204  O42   A    
C110  C129  A    
C61   C121  S    
C330  C348  A    
C245  C260  A    
O61   Zn22  S    
O72   Zn20  S    
C69   O31   A    
C140  C158  A    
O39   Zn27  S    
C27   C44   A    
C141  C159  A    
C65   O80   A    
C331  O13   A    
C22   C25   A    
C87   C105  A    
O1    Zn15  S    
C104  H77   S    
C34   C46   S    
C160  H114  S    
C162  C180  A    
C207  O49   A    
C61   O76   A    
C252  C262  A    
C301  H169  S    
O83   Zn25  S    
C254  C264  A    
C342  O14   A    
C224  C315  A    
C148  H102  S    
C211  O58   A    
C220  C265  A    
C257  C319  A    
C309  O11   A    
C232  C250  A    
C115  C132  A    
O35   Zn21  S    
O84   Zn31  S    
C250  C263  A    
C325  H18   S    
O54   Zn22  S    
C129  C147  A    
C154  C172  A    
C77   O40   A    
C246  H147  S    
C247  H129  S    
C227  C244  A    
C100  C119  A    
C227  C265  A    
C255  H138  S    
C145  C163  A    
C139  H93   S    
C157  C323  S    
C178  C196  S    
C24   O18   A    
C309  O99   A    
C30   C112  S    
O9    Zn30  S    
C137  H91   S    
C243  C258  A    
C328  H21   S    
C230  H166  S    
C66   O29   A    
C210  O56   A    
C1    O94   A    
O21   Zn4   S    
C63   C119  S    
C346  C348  A    
C249  H131  S    
C270  C278  S    
C207  C259  S    
C91   C180  A    
C85   C174  A    
C269  C277  S    
C153  C171  A    
C15   C337  A    
C18   C29   A    
C89   C178  A    
O92   Zn8   S    
C231  H2    S    
C161  H115  S    
C90   C316  S    
O17   Zn12  S    
C220  H1    S    
C76   O91   A    
C159  C176  A    
C343  C345  A    
C242  H125  S    
C205  O43   A    
C252  H135  S    
O15   Zn5   S    
C302  C312  A    
C81   H54   S    
C143  H97   S    
C214  O60   A    
C62   C122  S    
C46   O5    A    
C213  O63   A    
O39   Zn30  S    
C85   H59   S    
C324  C341  A    
C86   H60   S    
C285  C303  A    
C84   H58   S    
C298  O98   A    
C237  C273  A    
O66   Zn23  S    
C325  C343  A    
C300  H168  S    
C59   H15   S    
O88   Zn4   S    
C72   O87   A    
C156  H110  S    
C324  H17   S    
C226  H122  S    
C183  C200  S    
C151  C169  A    
C78   H52   S    
C238  C255  A    
C253  H136  S    
C164  H118  S    
O47   Zn16  S    
C121  C139  A    
C279  H150  S    
C289  H157  S    
C7    C340  A    
C221  C266  A    
C122  C140  A    
C335  C352  A    
O86   Zn2   S    
C190  H141  S    
O99   Zn15  S    
O28   Zn23  S    
C222  H100  S    
C9    C38   A    
C175  C193  S    
C217  O68   A    
C224  C294  A    
C40   C342  S    
C207  O55   A    
C71   C131  S    
C229  C247  A    
C69   O84   A    
C189  C193  T    
C299  C312  A    
C206  O44   A    
C75   O90   A    
C254  H137  S    
O81   Zn29  S    
O69   Zn8   S    
C209  O57   A    
C240  C258  A    
C97   H71   S    
C21   C330  A    
C55   H11   S    
O83   Zn4   S    
C132  H79   S    
C231  C249  A    
C138  C155  A    
C235  H146  S    
C24   C41   S    
C146  C322  S    
C82   C99   A    
C13   O16   A    
C35   C36   S    
C213  C307  S    
C288  C305  A    
C214  C308  S    
C229  C267  A    
C230  C248  A    
C234  C271  A    
C63   O78   A    
C156  C174  A    
C79   C315  S    
C171  C188  S    
C149  H103  S    
C44   H175  S    
C286  C304  A    
C293  H161  S    
C169  C186  S    
C105  H78   S    
C337  H30   S    
C246  C317  A    
O34   Zn20  S    
C20   C325  A    
C295  C310  A    
C81   C98   A    
C117  C134  A    
C95   C114  A    
O53   Zn21  S    
C73   O35   A    
C70   C130  S    
C305  C313  A    
C179  C290  A    
C86   C175  A    
C18   C327  A    
C19   C26   A    
C238  H68   S    
C216  C311  S    
O61   Zn2   S    
C67   O82   A    
C58   H14   S    
C113  C318  S    
O17   Zn14  S    
C73   O88   A    
C347  H40   S    
O18   Zn7   S    
C155  H109  S    
O58   Zn29  S    
C132  C150  A    
C99   H73   S    
C218  C313  S    
C249  C262  A    
C241  C259  A    
C286  C323  A    
C109  H83   S    
C250  H132  S    
C86   C104  A    
C168  C289  A    
C350  H43   S    
C17   C28   A    
C162  H116  S    
C80   C169  A    
C31   C49   A    
C348  H41   S    
C298  O10   A    
C222  C241  A    
C165  H119  S    
C190  C317  A    
C101  C317  S    
O64   Zn1   S    
C232  H13   S    
C73   C129  S    
C267  C276  S    
C57   O21   A    
C107  C126  A    
C4    C6    A    
C72   O34   A    
O25   Zn11  S    
O83   Zn7   S    
C49   C51   A    
C289  C306  A    
O39   Zn13  S    
C28   C331  S    
C94   H67   S    
C191  C192  T    
C2    O15   A    
C285  H153  S    
C92   H65   S    
C12   C41   A    
C320  O100  A    
O17   Zn28  S    
C283  H151  S    
C328  C346  A    
C93   C182  A    
O95   Zn10  S    
C331  O101  A    
C12   C15   A    
C300  C313  A    
C233  C273  A    
C83   C172  A    
C89   C107  A    
C91   H64   S    
C81   C170  A    
C97   C116  A    
C350  C352  A    
C53   H9    S    
C225  C269  A    
O49   Zn18  S    
C33   C223  S    
C257  C297  A    
C271  C280  S    
C112  O2    A    
C201  C292  A    
C21   C23   A    
C6    H50   S    
C224  H145  S    
O52   Zn20  S    
C8    C37   A    
C332  H25   S    
C113  C277  T    
C13   O104  A    
O61   Zn5   S    
C233  C251  A    
C5    C7    A    
C248  C261  A    
O82   Zn30  S    
C30   C48   A    
C272  C281  S    
O24   Zn10  S    
C124  C278  T    
C329  H22   S    
C205  O48   A    
O74   Zn4   S    
C91   C108  A    
C124  C319  S    
C64   O79   A    
C216  O67   A    
O71   Zn2   S    
C3    C351  A    
C2    O103  A    
C20   C27   A    
C88   H62   S    
C172  C189  S    
C210  C258  S    
C335  H28   S    
O57   Zn26  S    
O85   Zn32  S    
C34   C52   A    
O89   Zn5   S    
C92   C181  A    
O103  Zn19  S    
O37   Zn24  S    
C236  H46   S    
C225  C242  A    
C29   C320  S    
O91   Zn7   S    
C43   C45   A    
C57   O6    A    
C74   O89   A    
C299  H167  S    
C222  C267  A    
C226  C243  A    
C203  O41   A    
O42   Zn10  S    
C150  C167  A    
C173  C191  S    
C327  H20   S    
C127  C144  A    
O96   Zn11  S    
O40   Zn26  S    
C48   H4    S    
C160  C177  A    
C164  C182  A    
C213  O59   A    
C67   O30   A    
C6    C339  A    
C166  H120  S    
C239  C256  A    
C333  H26   S    
C223  O8    A    
C176  C194  S    
C161  C178  A    
O102  Zn18  S    
O44   Zn13  S    
C218  O69   A    
O56   Zn25  S    
C179  C316  A    
C138  H92   S    
C285  C319  A    
C241  H124  S    
O94   Zn29  S    
C346  H39   S    
C35   O4    A    
C46   O20   A    
O28   Zn11  S    
C206  C262  S    
C284  C302  A    
C290  C307  A    
O31   Zn17  S    
C205  C261  S    
C72   C128  S    
O26   Zn13  S    
O78   Zn23  S    
C66   O81   A    
C11   C36   A    
C257  H148  S    
C228  C269  A    
C209  C256  S    
C234  H35   S    
C341  H34   S    
C203  C263  S    
C95   C184  A    
O63   Zn12  S    
C333  C350  A    
C140  H94   S    
C83   H56   S    
C67   C115  S    
C297  C311  A    
C212  C293  A    
C109  C128  A    
C136  H90   S    
C352  H45   S    
C70   O32   A    
C23   C328  A    
O73   Zn32  S    
C39   C56   A    
C134  H88   S    
C231  C271  A    
C4    H48   S    
C232  C272  A    
C96   C115  A    
C90   C275  T    
C180  C197  S    
O77   Zn12  S    
C266  C275  S    
C7    H51   S    
C159  H113  S    
C44   C47   A    
C251  C264  A    
C14   C42   A    
C112  O95   A    
C1    O93   A    
C155  C173  A    
C4    C337  A    
C134  C152  A    
O75   Zn3   S    
C209  O52   A    
C291  H159  S    
C5    C338  A    
C27   C298  S    
C65   O27   A    
O72   Zn3   S    
C181  C198  S    
C2    C39   S    
C52   C54   A    
C26   C43   A    
C25   C329  A    
C53   C55   A    
C21   C32   A    
C28   C45   A    
O29   Zn15  S    
C212  H143  S    
C184  C202  S    
C221  C240  A    
C130  C148  A    
C119  C137  A    
C217  C312  S    
C248  H130  S    
C283  C323  A    
C41   C59   A    
C42   C60   A    
O20   Zn32  S    
C185  C188  T    
C228  C245  A    
O23   Zn9   S    
O30   Zn16  S    
C98   H72   S    
C279  C300  A    
O50   Zn6   S    
C153  H107  S    
C24   O3    A    
O46   Zn15  S    
C45   H176  S    
C327  C345  A    
O50   Zn32  S    
C211  O64   A    
C347  C349  A    
C88   C106  A    
C320  O12   A    
O50   Zn18  S    
O6    Zn25  S    
C22   C332  A    
C125  C142  A    
C326  H19   S    
C71   O33   A    
C244  H127  S    
C236  C270  A    
O98   Zn14  S    
C145  H99   S    
C3    H47   S    
C10   C34   A    
C168  C315  A    
C238  C272  A    
C334  H27   S    
C251  H134  S    
C220  C239  A    
C32   C50   A    
C218  O75   A    
C36   C53   A    
C226  C266  A    
O33   Zn19  S    
O104  Zn20  S    
C37   C54   A    
C71   O86   A    
C228  H144  S    
C9    C11   A    
O93   Zn9   S    
C14   C16   A    
C212  C316  A    
C144  H98   S    
C51   H7    S    
C111  H85   S    
O51   Zn19  S    
C216  O73   A    
O62   Zn30  S    
C98   C117  A    
C288  C322  A    
C341  C344  A    
O1    Zn1   S    
C22   C33   A    
C56   H12   S    
C47   H3    S    
C65   C117  S    
C239  H121  S    
C144  C162  A    
C76   C123  S    
C242  C260  A    
C133  H87   S    
O101  Zn17  S    
C149  C166  A    
O5    Zn24  S    
C142  C160  A    
C8    C335  A    
C247  C259  A    
C5    H49   S    
C304  C314  A    
C268  C321  A    
C243  H126  S    
C82   H55   S    
C290  H158  S    
O16   Zn8   S    
C158  H112  S    
O72   Zn8   S    
O76   Zn1   S    
C107  H81   S    
C99   C118  A    
C215  O65   A    
C74   C126  S    
C139  C156  A    
C3    C336  A    
C95   H69   S    
C246  C296  A    
C43   H174  S    
C89   H63   S    
C18   C20   A    
C108  C127  A    
C80   H53   S    
C235  C295  A    
C292  C310  A    
C265  C274  S    
C203  O46   A    
C120  C138  A    
C101  C276  T    
C66   C118  S    
C62   O77   A    
C174  C192  S    
O72   Zn26  S    
C157  C282  T    
O10   Zn12  S    
C137  C154  A    
C87   H61   S    
C75   C127  S    
C305  H173  S    
