data_mof_unit_16673.cif
_audit_creation_date              2012-12-10T20:51:47-0500
_audit_creation_method            fapswitch 2.2
_symmetry_space_group_name_H-M    P1
_symmetry_Int_Tables_number       1
_space_group_crystal_system       triclinic
_cell_length_a                    8.094461
_cell_length_b                    8.935592
_cell_length_c                    16.916458
_cell_angle_alpha                 89.603688
_cell_angle_beta                  95.110498
_cell_angle_gamma                 90.042992
_cell_volume                      1218.65406699

loop_
_atom_site_label
_atom_site_type_symbol
_atom_type_description
_atom_site_fract_x
_atom_site_fract_y
_atom_site_fract_z
_atom_type_partial_charge
C1    C     C_R   0.499958 0.217942 0.500098 0.934997
C2    C     C_R   0.608081 0.565683 0.142825 -0.167754
C3    C     C_R   0.566232 0.566164 0.902098 0.302362
C4    C     C_R   0.455173 0.581397 0.097076 0.303111
C5    C     C_R   0.699930 0.505498 0.866843 -0.270050
C6    C     C_R   0.307584 0.575997 0.133565 -0.264617
C7    C     C_R   0.687292 0.476165 0.785717 0.194836
C8    C     C_R   0.309752 0.552201 0.215272 0.192150
C9    C     C_1   0.499957 0.065173 0.500097 -0.198228
C10   C     C_1   0.500078 0.934824 0.500047 -0.195785
C11   C     C_3   0.802120 0.248425 0.737916 -0.738520
C12   C     C_R   0.500058 0.782059 0.499979 0.930536
C13   C     C_3   0.103486 0.694131 0.276274 -0.730781
C14   C     C_R   0.522500 0.498395 0.653733 0.875349
C15   C     C_R   0.477579 0.506487 0.346134 0.877576
C16   C     C_R   0.538798 0.513817 0.739460 -0.062228
C17   C     C_R   0.464001 0.530390 0.260356 -0.072119
C18   C     C_R   0.406527 0.578422 0.774952 -0.287536
C19   C     C_R   0.611783 0.539078 0.223220 -0.284852
C20   C     C_R   0.419868 0.605123 0.855468 -0.169829
H1    H     H_    0.731772 0.524973 0.256203 0.181305
H2    H     H_    0.797510 0.187684 0.795244 0.227397
H3    H     H_    0.063507 0.494115 0.217225 0.213351
H4    H     H_    0.991335 0.680590 0.308960 0.234578
H5    H     H_    0.072612 0.768198 0.223984 0.221449
H6    H     H_    0.202002 0.747448 0.316597 0.250617
H7    H     H_    0.292893 0.610462 0.740254 0.178817
H8    H     H_    0.725235 0.570412 0.116571 0.152463
H9    H     H_    0.314937 0.654343 0.881168 0.155029
H10   H     H_    0.811619 0.474562 0.903427 0.139236
H11   H     H_    0.190161 0.588670 0.098026 0.138711
H12   H     H_    0.937143 0.432021 0.780561 0.220951
H13   H     H_    0.908584 0.205658 0.707633 0.239916
H14   H     H_    0.686599 0.225877 0.699325 0.234024
N1    N     N_1   0.073640 0.500030 0.499990 -0.030301
N2    N     N_1   0.926360 0.499970 0.500010 -0.031843
N3    N     N_2   0.579310 0.573718 0.985401 -0.198858
N4    N     N_2   0.443843 0.590695 0.013634 -0.196907
N5    N     N_2   0.822728 0.407254 0.751744 -0.287295
N6    N     N_2   0.157011 0.549076 0.250890 -0.288839
O1    O     O_R   0.636850 0.285340 0.500000 -0.612693
O2    O     O_R   0.363150 0.714660 0.500000 -0.620671
O3    O     O_R   0.363100 0.285350 0.500000 -0.613675
O4    O     O_R   0.636900 0.714650 0.500000 -0.616610
O5    O     O_R   0.652140 0.498630 0.616140 -0.589182
O6    O     O_R   0.347860 0.501370 0.383860 -0.589047
O7    O     O_R   0.378390 0.498650 0.616130 -0.628691
O8    O     O_R   0.621610 0.501350 0.383870 -0.631851
Zn1   Zn    Zn3+2 0.682780 0.499990 0.500010 0.990785
Zn2   Zn    Zn3+2 0.317220 0.500010 0.499990 0.989217

loop_
_geom_bond_atom_site_label_1
_geom_bond_atom_site_label_2
_ccdc_geom_bond_type
O4    Zn1   S    
C2    C4    A    
O3    Zn2   S    
C15   C17   S    
C14   O7    A    
O7    Zn2   S    
C9    C10   T    
O6    Zn2   S    
C11   H2    S    
N1    N2    T    
O5    Zn1   S    
N1    Zn2   S    
C6    H11   S    
C3    C20   A    
C12   O4    A    
C11   N5    S    
C13   H5    S    
N3    N4    D    
C10   C12   S    
C15   O8    A    
O2    Zn2   S    
C6    C8    A    
O1    Zn1   S    
C7    C16   A    
C17   C19   A    
C4    N4    S    
C14   O5    A    
C18   C20   A    
C20   H9    S    
C14   C16   S    
C13   H6    S    
C4    C6    A    
N2    Zn1   S    
C12   O2    A    
H3    N6    S    
C11   H13   S    
C1    C9    S    
C3    N3    S    
C16   C18   A    
C5    H10   S    
H12   N5    S    
C1    O1    A    
C5    C7    A    
C7    N5    S    
O8    Zn1   S    
C13   N6    S    
C2    H8    S    
C8    N6    S    
C15   O6    A    
C19   H1    S    
C2    C19   A    
C1    O3    A    
C11   H14   S    
C18   H7    S    
C8    C17   A    
C13   H4    S    
C3    C5    A    
