data_mof_unit_48455.cif
_audit_creation_date              2012-12-10T16:49:23-0500
_audit_creation_method            fapswitch 2.2
_symmetry_space_group_name_H-M    P1
_symmetry_Int_Tables_number       1
_space_group_crystal_system       triclinic
_cell_length_a                    7.746465
_cell_length_b                    8.555363
_cell_length_c                    12.829365
_cell_angle_alpha                 90.136721
_cell_angle_beta                  87.330582
_cell_angle_gamma                 93.518197
_cell_volume                      847.727625666

loop_
_atom_site_label
_atom_site_type_symbol
_atom_type_description
_atom_site_fract_x
_atom_site_fract_y
_atom_site_fract_z
_atom_type_partial_charge
C1    C     C_R   0.454566 0.205248 0.497982 0.957738
C2    C     C_R   0.654336 0.380137 0.145531 -0.249186
C3    C     C_R   0.535114 0.404168 0.871482 -0.080239
C4    C     C_R   0.464878 0.595883 0.128519 -0.080275
C5    C     C_R   0.545580 0.437152 0.977877 0.127102
C6    C     C_R   0.454454 0.562934 0.022117 0.127085
C7    C     C_2   0.430275 0.041794 0.498427 -0.380742
C8    C     C_2   0.569724 0.958206 0.501578 -0.380721
C9    C     C_R   0.379267 0.731610 0.176359 0.117106
C10   C     C_R   0.199247 0.723931 0.197508 -0.112481
C11   C     C_R   0.119473 0.852882 0.240745 -0.166849
C12   C     C_R   0.545433 0.794752 0.502020 0.957687
C13   C     C_R   0.218563 0.990142 0.262554 -0.109035
C14   C     C_R   0.397664 0.998317 0.241750 -0.108094
C15   C     C_R   0.478209 0.869225 0.199356 -0.171129
C16   C     C_R   0.620528 0.268319 0.823663 0.117086
C17   C     C_R   0.521372 0.130799 0.800709 -0.171151
C18   C     C_R   0.601694 0.001586 0.758319 -0.108124
C19   C     C_R   0.780783 0.009546 0.737474 -0.108950
C20   C     C_R   0.880084 0.146718 0.759227 -0.166784
C21   C     C_R   0.800530 0.275793 0.802458 -0.112556
C22   C     C_R   0.464028 0.498097 0.699471 0.878080
C23   C     C_R   0.535974 0.501924 0.300530 0.878045
C24   C     C_R   0.559451 0.498606 0.189485 -0.086711
C25   C     C_R   0.440559 0.501455 0.810514 -0.086696
C26   C     C_R   0.353295 0.651505 0.959332 -0.212701
C27   C     C_R   0.646752 0.348592 0.040657 -0.212734
C28   C     C_R   0.345705 0.619950 0.854460 -0.249185
H1    H     H_    0.726108 0.305468 0.193646 0.155900
H2    H     H_    0.980846 0.846506 0.257113 0.122682
H3    H     H_    0.156754 0.090008 0.295913 0.135203
H4    H     H_    0.474129 0.104459 0.259084 0.127692
H5    H     H_    0.617071 0.876772 0.183631 0.118629
H6    H     H_    0.382517 0.123420 0.816467 0.118640
H7    H     H_    0.525056 0.895523 0.741009 0.127639
H8    H     H_    0.842419 0.909583 0.704119 0.135269
H9    H     H_    0.018705 0.152920 0.742823 0.122640
H10   H     H_    0.878575 0.381347 0.819534 0.132276
H11   H     H_    0.273946 0.694631 0.806340 0.155851
H12   H     H_    0.282608 0.748209 0.989621 0.160077
H13   H     H_    0.717459 0.251908 0.010364 0.160060
H14   H     H_    0.998932 0.615721 0.421776 0.193415
H15   H     H_    0.001064 0.384272 0.578220 0.193391
H16   H     H_    0.298397 0.990758 0.495969 0.180211
H17   H     H_    0.701601 0.009242 0.504038 0.180206
H18   H     H_    0.121362 0.618306 0.180389 0.132302
N1    N     N_2   0.054030 0.541640 0.471970 -0.178122
N2    N     N_2   0.945970 0.458360 0.528030 -0.178141
O1    O     O_R   0.609680 0.261530 0.506880 -0.602699
O2    O     O_R   0.390320 0.738470 0.493120 -0.602698
O3    O     O_R   0.323330 0.288220 0.488910 -0.639427
O4    O     O_R   0.676670 0.711780 0.511090 -0.639448
O5    O     O_R   0.619510 0.488830 0.661140 -0.607207
O6    O     O_R   0.380490 0.511170 0.338860 -0.607190
O7    O     O_R   0.333160 0.515520 0.643180 -0.635840
O8    O     O_R   0.666840 0.484480 0.356820 -0.635847
Zn1   Zn    Zn3+2 0.691200 0.482180 0.511990 0.934460
Zn2   Zn    Zn3+2 0.308800 0.517820 0.488010 0.934487

loop_
_geom_bond_atom_site_label_1
_geom_bond_atom_site_label_2
_ccdc_geom_bond_type
C10   H18   S    
C12   O2    A    
C23   C24   S    
C4    C9    S    
C16   C21   A    
C22   O7    A    
C11   C13   A    
H15   N2    S    
C27   H13   S    
C26   C28   A    
N1    N2    D    
C14   C15   A    
C3    C25   A    
C8    C12   S    
C10   C11   A    
C17   C18   A    
C9    C15   A    
N2    Zn1   S    
O3    Zn2   S    
C6    C26   A    
C13   C14   A    
C20   C21   A    
N1    Zn2   S    
C20   H9    S    
C1    O3    A    
C5    C27   A    
C26   H12   S    
C2    C27   A    
C2    H1    S    
C18   H7    S    
C12   O4    A    
C15   H5    S    
C9    C10   A    
C22   O5    A    
H14   N1    S    
C2    C24   A    
C5    C6    A    
C4    C24   A    
C17   H6    S    
C3    C16   S    
O4    Zn1   S    
O2    Zn2   S    
C3    C5    A    
C7    C8    D    
O1    Zn1   S    
O8    Zn1   S    
C23   O6    A    
C4    C6    A    
C18   C19   A    
O6    Zn2   S    
O7    Zn2   S    
C23   O8    A    
O5    Zn1   S    
C8    H17   S    
C28   H11   S    
C7    H16   S    
C19   H8    S    
C1    C7    S    
C1    O1    A    
C13   H3    S    
C21   H10   S    
C19   C20   A    
C11   H2    S    
C14   H4    S    
C16   C17   A    
C25   C28   A    
C22   C25   S    
