data_mof_unit_60421.cif
_audit_creation_date              2012-12-10T19:08:04-0500
_audit_creation_method            fapswitch 2.2
_symmetry_space_group_name_H-M    P1
_symmetry_Int_Tables_number       1
_space_group_crystal_system       triclinic
_cell_length_a                    13.0467
_cell_length_b                    13.643475
_cell_length_c                    23.427113
_cell_angle_alpha                 89.962567
_cell_angle_beta                  93.077039
_cell_angle_gamma                 85.603177
_cell_volume                      4151.76597057

loop_
_atom_site_label
_atom_site_type_symbol
_atom_type_description
_atom_site_fract_x
_atom_site_fract_y
_atom_site_fract_z
_atom_type_partial_charge
C1    C     C_R   0.481073 0.685084 0.499370 0.907169
C2    C     C_R   0.426727 0.439501 0.296155 0.400192
C3    C     C_R   0.570943 0.528506 0.768255 0.299296
C4    C     C_R   0.425943 0.438291 0.236570 0.314693
C5    C     C_R   0.487059 0.487895 0.791756 0.066591
C6    C     C_R   0.502472 0.482977 0.208520 0.053684
C7    C     C_1   0.534010 0.212049 0.499582 -0.123564
C8    C     C_1   0.465777 0.788030 0.498534 -0.094223
C9    C     C_2   0.544313 0.021164 0.497727 0.283434
C10   C     C_2   0.454956 0.979007 0.497360 0.271907
C11   C     C_1   0.456808 0.875315 0.497860 0.098034
C12   C     C_R   0.518894 0.314936 0.500414 0.872745
C13   C     C_1   0.542669 0.124805 0.498671 0.073542
C14   C     C_2   0.033797 0.469574 0.485574 0.227682
C15   C     C_2   0.966296 0.530147 0.513935 0.205473
C16   C     C_R   0.499731 0.499556 0.610978 0.962737
C17   C     C_R   0.500553 0.498008 0.389215 0.938359
C18   C     C_1   0.854506 0.520752 0.510864 0.210016
C19   C     C_1   0.145543 0.479025 0.488829 0.246613
C20   C     C_R   0.548127 0.405956 0.120289 0.625499
C21   C     C_R   0.431510 0.559539 0.879616 0.637187
C22   C     C_R   0.446979 0.559963 0.118841 0.630200
C23   C     C_R   0.409141 0.451148 0.756552 0.428439
C24   C     C_R   0.532225 0.405299 0.881054 0.617626
C25   C     C_R   0.440869 0.560896 0.059172 -0.040599
C26   C     C_R   0.535345 0.402711 0.940691 -0.034019
C27   C     C_R   0.490022 0.481835 0.029951 -0.005417
C28   C     C_R   0.485602 0.481445 0.969910 -0.004974
C29   C     C_R   0.544112 0.403460 0.060630 -0.037815
C30   C     C_R   0.432283 0.560246 0.939236 -0.043747
C31   C     C_R   0.387076 0.638535 0.028241 -0.107923
C32   C     C_R   0.588180 0.324544 0.971616 -0.111313
C33   C     C_R   0.382820 0.638214 0.968744 -0.108682
C34   C     C_R   0.579834 0.529077 0.239567 0.427304
C35   C     C_R   0.592577 0.324942 0.031115 -0.110410
C36   C     C_3   0.746792 0.500636 0.686716 0.112515
C37   C     C_3   0.839953 0.550238 0.668021 -0.603952
C38   C     C_3   0.389606 0.298113 0.338994 0.096808
C39   C     C_3   0.309011 0.249351 0.371288 -0.595278
C40   C     C_R   0.414449 0.455918 0.697680 -0.295571
C41   C     C_R   0.579236 0.532633 0.298768 -0.287652
C42   C     C_R   0.498557 0.495031 0.673345 -0.276731
C43   C     C_R   0.501893 0.490106 0.327232 -0.286285
C44   C     C_R   0.579383 0.528695 0.708905 0.389615
Cl1   Cl    Cl    0.303656 0.399802 0.785586 -0.495593
Cl2   Cl    Cl    0.676676 0.584740 0.204774 -0.480546
Cl3   Cl    Cl    0.663945 0.581882 0.813351 -0.503038
Cl4   Cl    Cl    0.328329 0.381227 0.197067 -0.481374
Cl5   Cl    Cl    0.334016 0.046794 0.497265 -0.541995
Cl6   Cl    Cl    0.665263 0.953387 0.497931 -0.500028
Cl7   Cl    Cl    0.010985 0.625970 0.556621 -0.544471
Cl8   Cl    Cl    0.989412 0.373992 0.442611 -0.521105
H1    H     H_    0.348542 0.699881 0.049862 0.205376
H2    H     H_    0.906394 0.494932 0.664805 0.211487
H3    H     H_    0.822120 0.586027 0.625744 0.263827
H4    H     H_    0.460922 0.298223 0.367383 0.108019
H5    H     H_    0.406341 0.253551 0.300289 0.184429
H6    H     H_    0.237598 0.245504 0.343630 0.279934
H7    H     H_    0.338784 0.173670 0.384119 0.220147
H8    H     H_    0.290721 0.292117 0.410253 0.264728
H9    H     H_    0.626840 0.263269 0.949994 0.205246
H10   H     H_    0.341319 0.699422 0.946015 0.205610
H11   H     H_    0.634305 0.263859 0.053846 0.205667
H12   H     H_    0.352940 0.428063 0.670934 0.229404
H13   H     H_    0.637963 0.570329 0.322440 0.230618
H14   H     H_    0.732063 0.439378 0.656773 0.147312
H15   H     H_    0.765928 0.469161 0.730201 0.183359
H16   H     H_    0.860814 0.606996 0.699628 0.283460
N1    N     N_R   0.499937 0.483331 0.147742 -0.320297
N2    N     N_R   0.481932 0.483392 0.852199 -0.319729
N3    N     N_1   0.234540 0.484780 0.490870 -0.077990
N4    N     N_1   0.765460 0.515220 0.509130 -0.081805
O1    O     O_R   0.402510 0.634760 0.496660 -0.596789
O2    O     O_2   0.382135 0.634588 0.849137 -0.494268
O3    O     O_2   0.400364 0.634588 0.147953 -0.500959
O4    O     O_2   0.579903 0.331267 0.851948 -0.518982
O5    O     O_3   0.661076 0.570768 0.685823 -0.549388
O6    O     O_3   0.351290 0.394697 0.323577 -0.540328
O7    O     O_R   0.597490 0.365240 0.503340 -0.602658
O8    O     O_R   0.572960 0.644530 0.502520 -0.582034
O9    O     O_R   0.427040 0.355470 0.497480 -0.609746
O10   O     O_R   0.414760 0.495140 0.580910 -0.611041
O11   O     O_R   0.585240 0.504860 0.419090 -0.612292
O12   O     O_R   0.585200 0.504910 0.586770 -0.596248
O13   O     O_R   0.414800 0.495090 0.413230 -0.565635
O14   O     O_2   0.599326 0.331913 0.150796 -0.509506
Zn1   Zn    Zn3+2 0.386190 0.493470 0.496090 1.054273
Zn2   Zn    Zn3+2 0.613810 0.506530 0.503910 1.045745

loop_
_geom_bond_atom_site_label_1
_geom_bond_atom_site_label_2
_ccdc_geom_bond_type
C25   C31   A    
C15   C18   S    
C37   H16   S    
C26   C32   A    
C23   Cl1   S    
C27   C29   A    
C1    C8    S    
C19   N3    T    
C36   H15   S    
C24   N2    A    
C17   O13   A    
C36   C37   S    
C24   C26   A    
C32   H9    S    
C36   O5    S    
C38   C39   S    
C36   H14   S    
C23   C40   A    
C12   O7    A    
C16   O12   A    
C9    C13   S    
O1    Zn1   S    
C14   Cl8   S    
C33   H10   S    
C22   C25   A    
C20   O14   S    
C31   C33   A    
C34   Cl2   S    
C15   Cl7   S    
C9    C10   D    
C22   N1    A    
C40   C42   A    
O11   Zn2   S    
C41   C43   A    
C34   C41   A    
C42   C44   A    
C22   O3    S    
O7    Zn2   S    
N4    Zn2   S    
C20   C29   A    
O13   Zn1   S    
C18   N4    T    
C7    C12   S    
C3    C44   A    
C32   C35   A    
C4    C6    A    
C24   O4    S    
C41   H13   S    
C38   O6    S    
C39   H6    S    
C21   O2    S    
C6    C34   A    
C17   O11   A    
C2    C4    A    
C17   C43   S    
C5    N2    S    
C2    O6    S    
C38   H5    S    
C5    C23   A    
C2    C43   A    
C39   H7    S    
C16   O10   A    
C31   H1    S    
O9    Zn1   S    
N3    Zn1   S    
C37   H2    S    
C20   N1    A    
C16   C42   S    
C4    Cl4   S    
C44   O5    S    
C30   C33   A    
C14   C19   S    
C9    Cl6   S    
O12   Zn2   S    
C3    C5    A    
C25   C27   A    
C21   C30   A    
C29   C35   A    
C26   C28   A    
C40   H12   S    
C21   N2    A    
C1    O1    A    
C28   C30   A    
O8    Zn2   S    
C6    N1    S    
C8    C11   T    
C39   H8    S    
C3    Cl3   S    
C12   O9    A    
C10   C11   S    
C37   H3    S    
C7    C13   T    
C38   H4    S    
C27   C28   A    
C1    O8    A    
C14   C15   D    
C35   H11   S    
C10   Cl5   S    
O10   Zn1   S    
