data_mof_unit_50536.cif
_audit_creation_date              2012-12-10T18:52:17-0500
_audit_creation_method            fapswitch 2.2
_symmetry_space_group_name_H-M    P1
_symmetry_Int_Tables_number       1
_space_group_crystal_system       triclinic
_cell_length_a                    15.714646
_cell_length_b                    10.579167
_cell_length_c                    9.924362
_cell_angle_alpha                 88.818202
_cell_angle_beta                  89.037381
_cell_angle_gamma                 91.380456
_cell_volume                      1648.82731764

loop_
_atom_site_label
_atom_site_type_symbol
_atom_type_description
_atom_site_fract_x
_atom_site_fract_y
_atom_site_fract_z
_atom_type_partial_charge
C1    C     C_R   0.501441 0.260671 0.500957 0.889393
C2    C     C_R   0.452171 0.413877 0.076890 -0.125215
C3    C     C_R   0.338076 0.499772 0.500986 0.891719
C4    C     C_R   0.661924 0.500228 0.499014 0.891710
C5    C     C_3   0.969985 0.383309 0.531801 0.189147
C6    C     C_3   0.030016 0.616693 0.468199 0.189138
C7    C     C_3   0.028075 0.418085 0.409183 0.190709
C8    C     C_3   0.971925 0.581918 0.590818 0.190707
C9    C     C_1   0.249194 0.499988 0.503038 -0.192607
C10   C     C_1   0.750806 0.500013 0.496962 -0.192605
C11   C     C_3   0.025816 0.465298 0.624682 -0.260827
C12   C     C_R   0.498561 0.739329 0.499043 0.889389
C13   C     C_3   0.974184 0.534705 0.375320 -0.260849
C14   C     C_3   0.083006 0.500368 0.501015 0.020525
C15   C     C_3   0.916994 0.499635 0.498985 0.020521
C16   C     C_1   0.173923 0.500181 0.503085 -0.070589
C17   C     C_1   0.826077 0.499820 0.496915 -0.070594
C18   C     C_R   0.573512 0.066288 0.449618 0.200511
C19   C     C_R   0.426490 0.933712 0.550384 0.200517
C20   C     C_3   0.066300 0.332083 0.303011 -0.396153
C21   C     C_3   0.997908 0.264860 0.221841 -0.881996
C22   C     C_3   0.933697 0.667925 0.696982 -0.396148
C23   C     C_R   0.569810 0.936057 0.447794 -0.254133
C24   C     C_3   0.002086 0.735129 0.778177 -0.881981
C25   C     C_3   0.929614 0.255099 0.574228 -0.391363
C26   C     C_3   0.996325 0.157216 0.606991 -0.886032
C27   C     C_3   0.070388 0.744900 0.425766 -0.391367
C28   C     C_3   0.003677 0.842784 0.393004 -0.886040
C29   C     C_3   0.652609 0.136947 0.398502 -0.912087
C30   C     C_3   0.347392 0.863056 0.601495 -0.912091
C31   C     C_3   0.604059 0.688282 0.127652 -0.396759
C32   C     C_3   0.566387 0.819332 0.109354 -0.865027
C33   C     C_3   0.395965 0.311692 0.872350 -0.396770
C34   C     C_R   0.430193 0.063942 0.552208 -0.254144
C35   C     C_3   0.433686 0.180671 0.890607 -0.864960
C36   C     C_R   0.497209 0.871783 0.497475 -0.056942
C37   C     C_R   0.502793 0.128217 0.502527 -0.056947
C38   C     C_R   0.548239 0.587652 0.066130 0.229998
C39   C     C_R   0.451764 0.412346 0.933871 0.229992
C40   C     C_R   0.547829 0.586124 0.923110 -0.125202
H1    H     H_    0.950752 0.562740 0.274367 0.152723
H2    H     H_    0.107381 0.390885 0.232995 0.204321
H3    H     H_    0.107025 0.261294 0.352602 0.204762
H4    H     H_    0.045009 0.665502 0.824937 0.259647
H5    H     H_    0.040000 0.802476 0.713050 0.263512
H6    H     H_    0.971358 0.789299 0.859526 0.248522
H7    H     H_    0.892986 0.738725 0.647378 0.204759
H8    H     H_    0.892601 0.609131 0.766983 0.204322
H9    H     H_    0.034024 0.134872 0.515571 0.263468
H10   H     H_    0.039711 0.192420 0.685806 0.258117
H11   H     H_    0.964137 0.068660 0.645147 0.251823
H12   H     H_    0.049248 0.437263 0.725634 0.152722
H13   H     H_    0.888971 0.268236 0.665298 0.205234
H14   H     H_    0.888053 0.220104 0.493037 0.207860
H15   H     H_    0.960286 0.807576 0.314198 0.258120
H16   H     H_    0.965986 0.865135 0.484428 0.263469
H17   H     H_    0.035865 0.931336 0.354838 0.251824
H18   H     H_    0.111953 0.779898 0.506951 0.207849
H19   H     H_    0.111028 0.731758 0.334693 0.205238
H20   H     H_    0.678556 0.197056 0.479317 0.228520
H21   H     H_    0.703028 0.071389 0.366892 0.231142
H22   H     H_    0.637247 0.197561 0.310037 0.259926
H23   H     H_    0.623607 0.884121 0.409960 0.140689
H24   H     H_    0.321441 0.802954 0.520677 0.228524
H25   H     H_    0.362749 0.802434 0.689957 0.259925
H26   H     H_    0.296976 0.928618 0.633110 0.231143
H27   H     H_    0.560951 0.844554 0.000718 0.250138
H28   H     H_    0.502324 0.822130 0.157984 0.282286
H29   H     H_    0.608555 0.891186 0.156025 0.251127
H30   H     H_    0.615249 0.670243 0.234749 0.261298
H31   H     H_    0.668053 0.688360 0.078102 0.173162
H32   H     H_    0.497746 0.177933 0.841961 0.282292
H33   H     H_    0.439141 0.155433 0.999236 0.250132
H34   H     H_    0.376396 0.115879 0.590036 0.140688
H35   H     H_    0.391539 0.108798 0.843928 0.251135
H36   H     H_    0.331978 0.311556 0.921928 0.173150
H37   H     H_    0.384751 0.329747 0.765262 0.261280
H38   H     H_    0.586234 0.654199 0.864387 0.152045
H39   H     H_    0.413769 0.345797 0.135612 0.152041
H40   H     H_    0.960043 0.197451 0.286966 0.263507
H41   H     H_    0.954939 0.334471 0.175161 0.259661
H42   H     H_    0.028628 0.210759 0.140431 0.248523
N1    N     N_R   0.499980 0.499970 0.857200 -0.114568
N2    N     N_R   0.500020 0.500030 0.142800 -0.114575
O1    O     O_R   0.499990 0.316750 0.614620 -0.626270
O2    O     O_R   0.500010 0.683250 0.385380 -0.626267
O3    O     O_R   0.500000 0.316780 0.385290 -0.617073
O4    O     O_R   0.500000 0.683220 0.614710 -0.617074
O5    O     O_R   0.376780 0.499970 0.614640 -0.635821
O6    O     O_R   0.623220 0.500030 0.385360 -0.635831
O7    O     O_R   0.376780 0.500000 0.385310 -0.609709
O8    O     O_R   0.623220 0.500000 0.614690 -0.609713
Zn1   Zn    Zn3+2 0.500000 0.499980 0.653120 0.930862
Zn2   Zn    Zn3+2 0.500000 0.500020 0.346880 0.930866

loop_
_geom_bond_atom_site_label_1
_geom_bond_atom_site_label_2
_ccdc_geom_bond_type
C1    O3    A    
C22   H8    S    
C30   H24   S    
C34   C37   A    
C2    N2    A    
C13   H1    S    
C28   H16   S    
C28   H17   S    
C35   H35   S    
C33   C39   S    
C24   H5    S    
C18   C37   A    
C25   H13   S    
C5    C11   S    
C19   C36   A    
C26   H10   S    
C11   C14   S    
C10   C17   T    
N1    Zn1   S    
O3    Zn2   S    
C3    O7    A    
C11   H12   S    
O2    Zn2   S    
C29   H22   S    
O1    Zn1   S    
C2    C39   A    
C31   H30   S    
C6    C27   S    
C6    C13   S    
C8    C22   S    
C2    H39   S    
C14   C16   S    
C12   C36   S    
C1    C37   S    
C32   H28   S    
C31   H31   S    
C22   H7    S    
C40   N1    A    
C28   H15   S    
O6    Zn2   S    
C4    O6    A    
C7    C14   S    
C1    O1    A    
C29   H21   S    
C12   O4    A    
C18   C23   A    
C25   H14   S    
C26   H9    S    
C5    C7    S    
C6    C8    S    
C25   C26   S    
C19   C34   A    
C3    C9    S    
C6    C14   S    
C33   H36   S    
C31   C32   S    
C29   H20   S    
C18   C29   S    
N2    Zn2   S    
C21   H42   S    
C30   H26   S    
C34   H34   S    
C32   H27   S    
C5    C25   S    
C21   H41   S    
C35   H32   S    
C7    C20   S    
C8    C15   S    
C13   C15   S    
C24   H4    S    
C40   H38   S    
C4    C10   S    
C20   H3    S    
C15   C17   S    
O4    Zn1   S    
C35   H33   S    
C38   N2    A    
C9    C16   T    
C27   H18   S    
C20   H2    S    
C32   H29   S    
C31   C38   S    
C12   O2    A    
C3    O5    A    
C24   H6    S    
C39   N1    A    
C27   H19   S    
C26   H11   S    
O7    Zn2   S    
C38   C40   A    
C33   H37   S    
C8    C11   S    
C21   H40   S    
C23   H23   S    
O8    Zn1   S    
C33   C35   S    
C22   C24   S    
O5    Zn1   S    
C5    C15   S    
C30   H25   S    
C7    C13   S    
C20   C21   S    
C23   C36   A    
C27   C28   S    
C19   C30   S    
C4    O8    A    
