data_mof_unit_49292.cif
_audit_creation_date              2012-12-11T16:13:55-0500
_audit_creation_method            fapswitch 2.2
_symmetry_space_group_name_H-M    P1
_symmetry_Int_Tables_number       1
_space_group_crystal_system       triclinic
_cell_length_a                    26.18233
_cell_length_b                    7.261924
_cell_length_c                    23.748982
_cell_angle_alpha                 89.999749
_cell_angle_beta                  101.307325
_cell_angle_gamma                 89.999424
_cell_volume                      4427.8436054

loop_
_atom_site_label
_atom_site_type_symbol
_atom_type_description
_atom_site_fract_x
_atom_site_fract_y
_atom_site_fract_z
_atom_type_partial_charge
O1    O     O_R   0.192370 0.384760 0.193350 -0.529056
O2    O     O_R   0.807630 0.615240 0.806650 -0.531624
O3    O     O_R   0.307630 0.884760 0.306650 -0.529055
O4    O     O_R   0.692370 0.115240 0.693350 -0.531630
O5    O     O_R   0.296630 0.711620 0.196480 -0.542501
O6    O     O_R   0.703370 0.288380 0.803520 -0.542006
O7    O     O_R   0.203370 0.211620 0.303520 -0.542501
O8    O     O_R   0.796630 0.788380 0.696480 -0.542008
C1    C     C_R   0.312584 0.545821 0.184213 0.684981
C2    C     C_R   0.687408 0.454175 0.815777 0.684596
C3    C     C_R   0.187416 0.045822 0.315787 0.684992
C4    C     C_R   0.812592 0.954175 0.684223 0.684594
O9    O     O_R   0.192080 0.714290 0.186600 -0.530606
O10   O     O_R   0.807920 0.285710 0.813400 -0.531184
O11   O     O_R   0.307920 0.214290 0.313400 -0.530613
O12   O     O_R   0.692080 0.785710 0.686600 -0.531190
O13   O     O_R   0.202340 0.887460 0.296690 -0.539001
O14   O     O_R   0.797660 0.112540 0.703310 -0.538522
O15   O     O_R   0.297660 0.387460 0.203310 -0.539003
O16   O     O_R   0.702340 0.612540 0.796690 -0.538521
C5    C     C_R   0.173790 0.546022 0.171396 0.707670
C6    C     C_R   0.826210 0.453980 0.828602 0.711181
C7    C     C_R   0.326209 0.046019 0.328605 0.707676
C8    C     C_R   0.673791 0.953983 0.671396 0.711181
O17   O     O_3   0.253490 0.552180 0.286130 -0.374565
O18   O     O_3   0.746510 0.447820 0.713870 -0.374875
O19   O     O_3   0.246510 0.052180 0.213870 -0.374565
O20   O     O_3   0.753490 0.947820 0.786130 -0.374866
V1    V     V_3+5 0.249350 0.825920 0.243300 1.432698
V2    V     V_3+5 0.750650 0.174080 0.756700 1.418718
V3    V     V_3+5 0.250650 0.325920 0.256700 1.432688
V4    V     V_3+5 0.749350 0.674080 0.743300 1.418705
C9    C     C_3   0.532654 0.880439 0.483882 0.402468
C10   C     C_3   0.467235 0.120043 0.516084 0.423743
C11   C     C_3   0.967321 0.380613 0.016144 0.402886
C12   C     C_3   0.032791 0.619897 0.983889 0.423983
C13   C     C_3   0.514268 0.060861 0.450791 -0.344138
C14   C     C_3   0.485673 0.939851 0.549327 -0.398924
C15   C     C_3   0.985732 0.561096 0.049187 -0.344849
C16   C     C_3   0.014329 0.439644 0.950696 -0.399421
H1    H     H_    0.526123 0.112737 0.411303 0.148237
H2    H     H_    0.474200 0.887630 0.588965 0.148148
H3    H     H_    0.973884 0.613190 0.088656 0.148261
H4    H     H_    0.025807 0.387246 0.911081 0.148153
C17   C     C_1   0.371855 0.037540 0.374405 -0.164850
C18   C     C_1   0.628143 0.962490 0.625605 -0.174293
C19   C     C_1   0.128142 0.537553 0.125599 -0.164836
C20   C     C_1   0.871860 0.462479 0.874390 -0.174263
C21   C     C_3   0.476715 0.838522 0.490895 0.279803
C22   C     C_3   0.523170 0.162202 0.509254 0.294024
C23   C     C_3   0.023256 0.338504 0.009159 0.280278
C24   C     C_3   0.976859 0.662248 0.990691 0.294184
C25   C     C_3   0.457636 0.016820 0.458219 -0.010181
C26   C     C_3   0.542351 0.983670 0.541823 -0.050520
C27   C     C_3   0.042359 0.516855 0.041786 -0.010169
C28   C     C_3   0.957654 0.483653 0.958170 -0.050655
C29   C     C_1   0.410360 0.029328 0.412352 0.087334
C30   C     C_1   0.589636 0.970818 0.587670 0.049944
C31   C     C_1   0.089636 0.529353 0.087653 0.087420
C32   C     C_1   0.910369 0.470801 0.912324 0.049966
C33   C     C_R   0.869287 0.134280 0.629411 -0.157224
C34   C     C_R   0.130714 0.865704 0.370586 -0.155866
C35   C     C_R   0.630718 0.634281 0.870595 -0.157222
C36   C     C_R   0.369284 0.365703 0.129410 -0.155865
H5    H     H_    0.855587 0.261988 0.644749 0.123426
H6    H     H_    0.144353 0.738008 0.355175 0.123290
H7    H     H_    0.644421 0.761989 0.855261 0.123428
H8    H     H_    0.355643 0.238006 0.144819 0.123288
C37   C     C_R   0.905809 0.143153 0.593563 -0.137129
C38   C     C_R   0.094229 0.856818 0.406479 -0.136396
C39   C     C_R   0.594195 0.643153 0.906443 -0.137124
C40   C     C_R   0.405769 0.356817 0.093517 -0.136398
H9    H     H_    0.918991 0.277239 0.582450 0.134707
H10   H     H_    0.081013 0.722736 0.417550 0.134777
H11   H     H_    0.581017 0.777240 0.917560 0.134708
H12   H     H_    0.418983 0.222735 0.082445 0.134779
C41   C     C_R   0.925091 0.981536 0.572549 0.019992
C42   C     C_R   0.075023 0.018420 0.427586 0.019577
C43   C     C_R   0.574909 0.481536 0.927451 0.019992
C44   C     C_R   0.424977 0.518420 0.072415 0.019572
C45   C     C_R   0.906656 0.810733 0.588257 -0.134969
C46   C     C_R   0.093499 0.189220 0.411929 -0.134871
C47   C     C_R   0.593340 0.310732 0.911739 -0.134966
C48   C     C_R   0.406503 0.689220 0.088074 -0.134879
H13   H     H_    0.920535 0.683246 0.572976 0.138856
H14   H     H_    0.079682 0.316696 0.427285 0.138921
H15   H     H_    0.579459 0.183244 0.927015 0.138856
H16   H     H_    0.420322 0.816697 0.072722 0.138922
C49   C     C_R   0.870101 0.801783 0.624097 -0.158917
C50   C     C_R   0.130017 0.198183 0.376044 -0.157522
C51   C     C_R   0.629896 0.301782 0.875897 -0.158913
C52   C     C_R   0.369985 0.698183 0.123960 -0.157533
H17   H     H_    0.857079 0.667577 0.635315 0.122382
H18   H     H_    0.143075 0.332386 0.364871 0.122357
H19   H     H_    0.642914 0.167576 0.864676 0.122382
H20   H     H_    0.356929 0.832387 0.135135 0.122356
C53   C     C_R   0.850916 0.963448 0.645304 -0.046248
C54   C     C_R   0.149122 0.036534 0.354741 -0.045831
C55   C     C_R   0.649084 0.463449 0.854697 -0.046249
C56   C     C_R   0.350878 0.536533 0.145259 -0.045830
N1    N     N_R   0.983001 0.835233 0.514410 -0.280666
N2    N     N_R   0.017139 0.164716 0.485756 -0.280749
N3    N     N_R   0.516996 0.335232 0.985586 -0.280663
N4    N     N_R   0.482865 0.664717 0.014249 -0.280745
N5    N     N_R   0.018036 0.843875 0.480598 -0.283551
N6    N     N_R   0.982104 0.156075 0.519568 -0.283725
N7    N     N_R   0.481962 0.343874 0.019399 -0.283549
N8    N     N_R   0.517900 0.656075 0.980437 -0.283722
C57   C     C_R   0.035927 0.008811 0.465486 0.514398
C58   C     C_R   0.964210 0.991139 0.534676 0.514275
C59   C     C_R   0.464073 0.508811 0.034515 0.514395
C60   C     C_R   0.535791 0.491138 0.965324 0.514277
O21   O     O_3   0.568583 0.750835 0.470333 -0.549600
C61   C     C_3   0.551452 0.686331 0.413739 0.126962
H21   H     H_    0.549421 0.801429 0.382403 0.099879
H22   H     H_    0.512521 0.620015 0.408900 0.162288
C62   C     C_3   0.590122 0.543359 0.400168 -0.266743
H23   H     H_    0.628886 0.608941 0.402844 0.198782
H24   H     H_    0.594183 0.430249 0.432229 0.243322
C63   C     C_3   0.572228 0.462189 0.340272 -0.854960
H25   H     H_    0.533971 0.392628 0.337060 0.232594
H26   H     H_    0.601130 0.359226 0.331743 0.240902
H27   H     H_    0.568737 0.572286 0.307262 0.238787
O22   O     O_3   0.431683 0.251476 0.529407 -0.553500
C64   C     C_3   0.443742 0.298993 0.588299 0.094959
H28   H     H_    0.442163 0.451431 0.591510 0.142586
H29   H     H_    0.483582 0.257298 0.610744 0.086120
C65   C     C_3   0.402912 0.216726 0.619051 -0.292468
H30   H     H_    0.363741 0.269477 0.598859 0.211295
H31   H     H_    0.402559 0.064453 0.614639 0.194425
C66   C     C_3   0.414131 0.266611 0.682702 -0.828902
H32   H     H_    0.452657 0.211404 0.704025 0.231147
H33   H     H_    0.383701 0.205935 0.703682 0.240090
H34   H     H_    0.413880 0.418510 0.688189 0.233689
O23   O     O_3   0.931407 0.250988 0.029713 -0.549447
C67   C     C_3   0.948369 0.187545 0.086453 0.126627
H35   H     H_    0.949764 0.302994 0.117569 0.100179
H36   H     H_    0.987557 0.122885 0.091754 0.161563
C68   C     C_3   0.910024 0.043088 0.099859 -0.266617
H37   H     H_    0.870995 0.107033 0.096737 0.198950
H38   H     H_    0.906587 0.929585 0.067983 0.243519
C69   C     C_3   0.927769 0.963077 0.159933 -0.855531
H39   H     H_    0.966297 0.895115 0.163584 0.232770
H40   H     H_    0.899111 0.858981 0.168328 0.240879
H41   H     H_    0.930637 0.073536 0.192763 0.238941
O24   O     O_3   0.068369 0.751190 0.970543 -0.553524
C70   C     C_3   0.056319 0.798600 0.911642 0.094929
H42   H     H_    0.057912 0.951029 0.908407 0.142440
H43   H     H_    0.016477 0.756919 0.889201 0.086164
C71   C     C_3   0.097142 0.716184 0.880911 -0.292505
H44   H     H_    0.136321 0.768872 0.901104 0.211276
H45   H     H_    0.097470 0.563917 0.885342 0.194402
C72   C     C_3   0.085942 0.765989 0.817254 -0.828865
H46   H     H_    0.047409 0.710841 0.795932 0.231146
H47   H     H_    0.116366 0.705205 0.796288 0.240081
H48   H     H_    0.086218 0.917878 0.811748 0.233684
O25   O     O_3   0.547625 0.333608 0.518989 -0.632526
H49   H     H_    0.551974 0.356309 0.560790 0.280684
O26   O     O_3   0.451466 0.669052 0.480109 -0.624153
H50   H     H_    0.473121 0.581353 0.506415 0.334337
O27   O     O_3   0.952437 0.833694 0.980887 -0.632430
H51   H     H_    0.948090 0.856214 0.939077 0.280657
O28   O     O_3   0.048456 0.168965 0.020018 -0.623997
H52   H     H_    0.026908 0.081395 0.993562 0.334602

loop_
_geom_bond_atom_site_label_1
_geom_bond_atom_site_label_2
_ccdc_geom_bond_type
O17   V3    S    
C6    C20   S    
O1    C5    A    
O25   H49   S    
C7    C17   S    
C50   H18   S    
C27   C31   S    
O19   V1    S    
O13   V1    S    
C37   C41   A    
C70   H42   S    
C52   H20   S    
C40   H12   S    
C66   H34   S    
O15   V3    S    
C65   H30   S    
C39   C43   A    
C61   H21   S    
O23   C67   S    
C14   C21   S    
O7    C3    A    
C17   C29   T    
O5    C1    A    
C22   C26   S    
C43   C60   S    
C3    C54   S    
C36   H8    S    
O9    V1    S    
C70   H43   S    
O24   C70   S    
C62   H24   S    
O16   V4    S    
O4    C8    A    
C68   C69   S    
C38   C42   A    
C9    C21   S    
O1    V3    S    
C34   C38   A    
O2    V4    S    
O3    V1    S    
C35   C55   A    
C34   C54   A    
O3    C7    A    
C1    O15   A    
C69   H39   S    
C15   C27   S    
O28   H52   S    
C2    O16   A    
C16   C28   S    
C71   C72   S    
O2    C6    A    
C64   C65   S    
C37   H9    S    
O14   V2    S    
C72   H47   S    
C16   H4    S    
C23   C27   S    
C12   C24   S    
C63   H27   S    
C44   C48   A    
C24   O27   S    
C45   C49   A    
O11   C7    A    
C15   C24   S    
O12   C8    A    
C18   C30   T    
C49   H17   S    
C69   H41   S    
C2    C55   S    
O10   V2    S    
C67   C68   S    
C63   H26   S    
C20   C32   T    
O5    V1    S    
C22   O25   S    
N1    N5    A    
C35   H7    S    
C10   C22   S    
O7    V3    S    
C34   H6    S    
O8    V4    S    
C12   C16   S    
C70   C71   S    
C67   H36   S    
C62   C63   S    
C11   O23   S    
C25   C29   S    
O18   V4    S    
C15   H3    S    
N1    C58   A    
C46   H14   S    
C51   H19   S    
C9    C13   S    
N8    C60   A    
C49   C53   A    
N3    C60   A    
C11   C15   S    
C38   H10   S    
C42   C46   A    
O26   H50   S    
C14   C26   S    
C41   C45   A    
O8    C4    A    
O9    C5    A    
C72   H48   S    
C23   O28   S    
C4    C53   S    
C12   O24   S    
O6    V2    S    
C35   C39   A    
C1    C56   S    
C11   C23   S    
C64   H28   S    
C71   H45   S    
C66   H32   S    
C65   C66   S    
N4    N8    A    
C63   H25   S    
C52   C56   A    
O21   C61   S    
C26   C30   S    
C33   C37   A    
C9    C26   S    
N5    C57   A    
C3    O13   A    
C10   O22   S    
C11   C28   S    
C10   C14   S    
N7    C59   A    
C33   C53   A    
C48   H16   S    
C67   H35   S    
C66   H33   S    
C65   H31   S    
C47   H15   S    
O6    C2    A    
N4    C59   A    
C61   H22   S    
C68   H37   S    
O11   V3    S    
O12   V4    S    
C16   C23   S    
C47   C51   A    
C9    O21   S    
C46   C50   A    
C8    C18   S    
O10   C6    A    
O20   V2    S    
C13   C25   S    
C40   C44   A    
C12   C27   S    
O27   H51   S    
C62   H23   S    
C39   H11   S    
C13   C22   S    
C68   H38   S    
C21   C25   S    
C44   C59   S    
N2    N6    A    
C42   C57   S    
C69   H40   S    
C36   C40   A    
C13   H1    S    
C41   C58   S    
O4    V2    S    
C61   C62   S    
C19   C31   T    
C43   C47   A    
C14   H2    S    
C33   H5    S    
C36   C56   A    
C28   C32   S    
C10   C25   S    
N6    C58   A    
C4    O14   A    
C64   H29   S    
C71   H44   S    
C21   O26   S    
N2    C57   A    
N3    N7    A    
C48   C52   A    
C51   C55   A    
C72   H46   S    
C50   C54   A    
C45   H13   S    
C24   C28   S    
O22   C64   S    
C5    C19   S    
