data_mof_unit_23490.cif
_audit_creation_date              2012-12-10T17:21:16-0500
_audit_creation_method            fapswitch 2.2
_symmetry_space_group_name_H-M    P1
_symmetry_Int_Tables_number       1
_space_group_crystal_system       triclinic
_cell_length_a                    9.616597
_cell_length_b                    10.785291
_cell_length_c                    13.881
_cell_angle_alpha                 92.532097
_cell_angle_beta                  84.847706
_cell_angle_gamma                 89.997601
_cell_volume                      1432.47799248

loop_
_atom_site_label
_atom_site_type_symbol
_atom_type_description
_atom_site_fract_x
_atom_site_fract_y
_atom_site_fract_z
_atom_type_partial_charge
C1    C     C_R   0.499483 0.737395 0.503591 0.788866
C2    C     C_1   0.463676 0.499976 0.786040 -0.169899
C3    C     C_R   0.328324 0.879482 0.655414 -0.185110
C4    C     C_R   0.245007 0.948349 0.725760 -0.131832
C5    C     C_R   0.244693 0.077259 0.725590 -0.122205
C6    C     C_R   0.327709 0.138141 0.655083 -0.169763
C7    C     C_R   0.411134 0.070264 0.581795 0.101170
C8    C     C_R   0.411333 0.939043 0.581925 0.100580
C9    C     C_R   0.498654 0.871609 0.510461 -0.109851
C10   C     C_R   0.588370 0.932796 0.443813 -0.172564
C11   C     C_R   0.588266 0.060684 0.443794 -0.185930
C12   C     C_R   0.477319 0.500318 0.682826 0.792798
C13   C     C_R   0.498501 0.129524 0.510301 -0.101804
C14   C     C_R   0.873027 0.335928 0.370618 -0.187505
C15   C     C_R   0.953423 0.256378 0.306697 0.257722
C16   C     C_R   0.096698 0.255802 0.307353 -0.221251
C17   C     C_R   0.160421 0.335131 0.371223 -0.194034
C18   C     C_R   0.082928 0.418937 0.436775 0.212694
C19   C     C_R   0.933513 0.419124 0.436654 0.168002
C20   C     C_R   0.918383 0.577083 0.560194 -0.040799
C21   C     C_R   0.066141 0.577079 0.560151 -0.048056
C22   C     C_R   0.499520 0.262948 0.503271 0.771339
C23   C     C_R   0.522667 0.499485 0.317175 0.807822
C24   C     C_1   0.536231 0.498370 0.213923 -0.141446
C25   C     C_2   0.557504 0.496595 0.023252 -0.141698
C26   C     C_2   0.442227 0.499470 0.976648 -0.158810
C27   C     C_1   0.452946 0.499681 0.872931 0.014932
C28   C     C_1   0.546853 0.497433 0.126996 0.035179
Cu1   Cu    Cu3+1 0.359340 0.500010 0.500010 0.937587
Cu2   Cu    Cu3+1 0.640660 0.499990 0.499990 0.950159
H1    H     H_    0.339340 0.502110 0.016108 0.163384
H2    H     H_    0.764171 0.328503 0.364975 0.211581
H3    H     H_    0.159678 0.193618 0.257853 0.185775
H4    H     H_    0.270747 0.326706 0.365460 0.212142
H5    H     H_    0.114762 0.640370 0.609495 0.131866
H6    H     H_    0.660392 0.494061 0.983795 0.164690
H7    H     H_    0.656559 0.881053 0.389952 0.173315
H8    H     H_    0.328868 0.779847 0.660803 0.138547
H9    H     H_    0.181952 0.901495 0.781494 0.142333
H10   H     H_    0.181384 0.130442 0.781197 0.147163
H11   H     H_    0.327566 0.238359 0.660190 0.155288
H12   H     H_    0.656269 0.106287 0.390008 0.184301
H13   H     H_    0.857005 0.640386 0.609562 0.137914
N1    N     N_R   0.852210 0.498790 0.499090 -0.189874
N2    N     N_R   0.148080 0.498710 0.499060 -0.191550
O1    O     O_R   0.381190 0.680360 0.500010 -0.574638
O2    O     O_R   0.618760 0.680340 0.500000 -0.574009
O3    O     O_R   0.364420 0.499990 0.637850 -0.588160
O4    O     O_R   0.601990 0.499960 0.637840 -0.566785
O5    O     O_R   0.381240 0.319660 0.500000 -0.601456
O6    O     O_R   0.618810 0.319640 0.499990 -0.589203
O7    O     O_R   0.398010 0.500040 0.362160 -0.585712
O8    O     O_R   0.635580 0.500010 0.362150 -0.583441
Br1   Br    Br    0.866693 0.148386 0.217116 -0.559765

loop_
_geom_bond_atom_site_label_1
_geom_bond_atom_site_label_2
_ccdc_geom_bond_type
C7    C13   A    
C23   C24   S    
C18   N2    A    
C6    C7    A    
C21   H5    S    
C16   H3    S    
C9    C10   A    
C4    H9    S    
C12   O3    A    
Cu1   O1    S    
C22   O5    A    
C2    C27   T    
C2    C12   S    
C12   O4    A    
C23   O7    A    
C7    C8    A    
C20   C21   A    
C25   C28   S    
C11   C13   A    
Cu2   N1    S    
C26   C27   S    
Cu1   Cu2   S    
C10   H7    S    
C20   N1    A    
Cu2   O4    S    
C13   C22   S    
C23   O8    A    
C21   N2    A    
Cu1   O5    S    
C5    C6    A    
Cu2   O8    S    
C1    O1    A    
C22   O6    A    
C10   C11   A    
Cu1   O3    S    
C15   C16   A    
Cu2   O6    S    
C15   Br1   S    
C24   C28   T    
Cu2   O2    S    
C4    C5    A    
C20   H13   S    
C1    C9    S    
C19   N1    A    
C11   H12   S    
C17   C18   A    
C3    C8    A    
C17   H4    S    
C5    H10   S    
Cu1   N2    S    
C18   C19   A    
C14   C15   A    
C16   C17   A    
C25   H6    S    
C25   C26   D    
C26   H1    S    
C14   C19   A    
C6    H11   S    
C1    O2    A    
C3    C4    A    
C3    H8    S    
C14   H2    S    
C8    C9    A    
Cu1   O7    S    
