data_mof_unit_39240.cif
_audit_creation_date              2012-10-26T19:25:56-0400
_audit_creation_method            fapswitch 2.2
_symmetry_space_group_name_H-M    P1
_symmetry_Int_Tables_number       1
_space_group_crystal_system       triclinic
_cell_length_a                    15.044693
_cell_length_b                    13.71303
_cell_length_c                    11.708372
_cell_angle_alpha                 89.993124
_cell_angle_beta                  89.817726
_cell_angle_gamma                 89.565973
_cell_volume                      2415.45309298

loop_
_atom_site_label
_atom_site_type_symbol
_atom_type_description
_atom_site_fract_x
_atom_site_fract_y
_atom_site_fract_z
_atom_type_partial_charge
C1    C     C_R   0.328661 0.500324 0.499946 0.545144
C2    C     C_R   0.566339 0.206455 0.446219 0.035000
C3    C     C_R   0.563928 0.792359 0.441464 0.033270
C4    C     C_R   0.434868 0.207721 0.556533 0.033261
C5    C     C_R   0.567683 0.895843 0.441523 -0.016156
C6    C     C_R   0.432171 0.104174 0.558703 -0.017399
C7    C     C_R   0.435884 0.896772 0.565335 -0.011857
C8    C     C_R   0.570826 0.103036 0.448448 -0.012079
C9    C     C_R   0.501457 0.948249 0.503043 0.007931
C10   C     C_R   0.501303 0.051629 0.503063 0.008439
C11   C     C_R   0.637072 0.947327 0.384928 0.021371
C12   C     C_R   0.671363 0.499714 0.498457 0.547135
C13   C     C_R   0.363905 0.052762 0.617482 0.021733
C14   C     C_R   0.370726 0.949218 0.629872 0.024359
C15   C     C_R   0.643213 0.050675 0.398462 0.019794
C16   C     C_R   0.500028 0.500007 0.283842 0.551933
C17   C     C_R   0.499846 0.500004 0.716155 0.550495
C18   C     C_1   0.499904 0.500034 0.162245 -0.025433
C19   C     C_1   0.499728 0.500031 0.837746 -0.029585
C20   C     C_1   0.499787 0.500059 0.059838 -0.045531
C21   C     C_1   0.499705 0.500060 0.940150 -0.047560
C22   C     C_R   0.814627 0.427834 0.435060 -0.118653
C23   C     C_R   0.907848 0.428344 0.431339 0.040125
C24   C     C_R   0.185095 0.573131 0.558326 -0.118905
C25   C     C_R   0.767999 0.499639 0.496191 -0.023495
C26   C     C_R   0.232092 0.501009 0.498570 -0.022181
C27   C     C_R   0.813419 0.572805 0.554190 -0.138753
C28   C     C_R   0.187013 0.429613 0.436962 -0.138193
C29   C     C_R   0.905842 0.573049 0.555140 -0.030364
C30   C     C_R   0.094354 0.430051 0.433810 -0.028378
C31   C     C_R   0.953484 0.500679 0.494177 -0.000132
C32   C     C_R   0.046595 0.501431 0.495512 0.000496
C33   C     C_3   0.070527 0.701180 0.801699 0.000191
C34   C     C_R   0.092125 0.573573 0.558579 0.033986
C35   C     C_3   0.141822 0.753168 0.870650 -0.262300
C36   C     C_3   0.125258 0.743900 0.998819 -0.482692
C37   C     C_3   0.951584 0.210563 0.259993 0.001133
C38   C     C_3   0.991447 0.224041 0.140341 -0.258743
C39   C     C_3   0.044911 0.134322 0.103663 -0.489241
C40   C     C_3   0.702574 0.892543 0.308004 -0.281165
C41   C     C_3   0.781392 0.851663 0.375482 -0.437941
C42   C     C_3   0.282210 0.107752 0.661795 -0.280065
C43   C     C_3   0.295497 0.144923 0.783634 -0.441126
C44   C     C_3   0.314009 0.895336 0.718097 -0.284074
C45   C     C_R   0.950984 0.644398 0.617010 -0.122196
C46   C     C_3   0.370799 0.862217 0.819445 -0.447140
C47   C     C_3   0.729430 0.104334 0.370160 -0.279530
C48   C     C_3   0.774982 0.139919 0.479158 -0.436283
C49   C     C_R   0.049465 0.360840 0.368377 -0.130391
C50   C     C_R   0.044022 0.643723 0.621753 0.257492
C51   C     C_R   0.955424 0.358461 0.365957 0.266535
C52   C     C_R   0.437466 0.793256 0.561205 0.037205
Cu1   Cu    Cu3+1 0.500000 0.597420 0.500000 0.929009
Cu2   Cu    Cu3+1 0.500000 0.402580 0.500000 0.928882
H1    H     H_    0.777672 0.372641 0.389470 0.161044
H2    H     H_    0.386549 0.251520 0.601683 0.136954
H3    H     H_    0.071317 0.622530 0.826727 0.127951
H4    H     H_    0.004580 0.733727 0.823081 0.133399
H5    H     H_    0.207699 0.720508 0.849689 0.164994
H6    H     H_    0.142517 0.831686 0.847151 0.168023
H7    H     H_    0.060072 0.777093 0.022006 0.145617
H8    H     H_    0.178362 0.782486 0.046027 0.148209
H9    H     H_    0.126031 0.665958 0.024724 0.152225
H10   H     H_    0.901465 0.151939 0.253848 0.140970
H11   H     H_    0.000801 0.183194 0.323404 0.113642
H12   H     H_    0.221386 0.627543 0.606107 0.154072
H13   H     H_    0.936783 0.236619 0.078274 0.169840
H14   H     H_    0.035202 0.288797 0.137818 0.162693
H15   H     H_    0.101307 0.121816 0.163041 0.146190
H16   H     H_    0.071928 0.145695 0.016335 0.144921
H17   H     H_    0.001881 0.068844 0.102886 0.143947
H18   H     H_    0.818504 0.911193 0.417668 0.152363
H19   H     H_    0.758660 0.799783 0.442013 0.152044
H20   H     H_    0.827300 0.812441 0.316628 0.141618
H21   H     H_    0.669116 0.832888 0.261313 0.128109
H22   H     H_    0.726317 0.938982 0.236864 0.132663
H23   H     H_    0.776584 0.628257 0.601003 0.120305
H24   H     H_    0.307671 0.083554 0.843405 0.153393
H25   H     H_    0.352831 0.195217 0.787802 0.152170
H26   H     H_    0.234924 0.184917 0.812084 0.135642
H27   H     H_    0.264769 0.169603 0.604844 0.127128
H28   H     H_    0.221663 0.062416 0.656726 0.137308
H29   H     H_    0.420550 0.806297 0.793690 0.156257
H30   H     H_    0.406107 0.925533 0.856629 0.159462
H31   H     H_    0.327848 0.830511 0.886838 0.131716
H32   H     H_    0.259944 0.940124 0.754810 0.146405
H33   H     H_    0.279333 0.832729 0.678731 0.145979
H34   H     H_    0.224334 0.374710 0.389916 0.120084
H35   H     H_    0.734089 0.195168 0.524759 0.158022
H36   H     H_    0.787682 0.077443 0.537425 0.150368
H37   H     H_    0.839641 0.173660 0.457683 0.162126
H38   H     H_    0.779170 0.058444 0.326086 0.137460
H39   H     H_    0.716865 0.165834 0.310691 0.139173
H40   H     H_    0.913985 0.700463 0.662349 0.104780
H41   H     H_    0.089194 0.310497 0.318453 0.096230
H42   H     H_    0.388837 0.750241 0.605835 0.130862
H43   H     H_    0.615446 0.248954 0.401724 0.132084
H44   H     H_    0.612706 0.748451 0.397352 0.137303
N1    N     N_R   0.500000 0.743810 0.500000 -0.245909
N2    N     N_R   0.500000 0.256190 0.500000 -0.245679
O1    O     O_R   0.370260 0.582280 0.500020 -0.507233
O2    O     O_3   0.906494 0.296440 0.295337 -0.593636
O3    O     O_R   0.629740 0.417720 0.499980 -0.511291
O4    O     O_R   0.629740 0.582280 0.499980 -0.509676
O5    O     O_R   0.370260 0.417720 0.500020 -0.511143
O6    O     O_R   0.500010 0.582270 0.337200 -0.493188
O7    O     O_R   0.499990 0.417730 0.662800 -0.492297
O8    O     O_R   0.499990 0.582270 0.662800 -0.499587
O9    O     O_R   0.500010 0.417730 0.337200 -0.494856
O10   O     O_3   0.088709 0.713756 0.684053 -0.588625

loop_
_geom_bond_atom_site_label_1
_geom_bond_atom_site_label_2
_ccdc_geom_bond_type
C33   H4    S    
C27   C29   A    
C47   H38   S    
C35   C36   S    
C42   H28   S    
C15   C47   S    
Cu1   Cu2   S    
Cu1   N1    S    
C43   H24   S    
Cu2   O7    S    
C19   C21   T    
C24   C26   A    
C7    C52   A    
C5    C11   A    
C17   O7    A    
C37   O2    S    
C44   H32   S    
Cu1   O4    S    
C43   H25   S    
C50   O10   S    
C35   H5    S    
C17   C19   S    
C41   H20   S    
C11   C15   A    
Cu1   O6    S    
C7    C14   A    
C31   C32   A    
C2    H43   S    
Cu1   O1    S    
C49   C51   A    
C22   C25   A    
C37   H11   S    
C28   H34   S    
C44   H33   S    
C9    C10   A    
C16   O6    A    
C46   H31   S    
C2    N2    A    
C48   H36   S    
C13   C14   A    
C4    H2    S    
Cu2   N2    S    
C42   H27   S    
C36   H8    S    
C45   H40   S    
C13   C42   S    
C44   C46   S    
C16   O9    A    
C47   H39   S    
C34   C50   A    
Cu2   O3    S    
C38   H13   S    
C12   O3    A    
C4    C6    A    
C17   O8    A    
C27   H23   S    
C43   H26   S    
C48   H37   S    
C24   C34   A    
C40   H22   S    
Cu2   O9    S    
C29   C45   A    
C35   H6    S    
C51   O2    S    
C32   C34   A    
C5    C9    A    
C37   C38   S    
C23   C51   A    
C47   C48   S    
C39   H15   S    
C49   H41   S    
C41   H18   S    
C46   H30   S    
C16   C18   S    
C40   C41   S    
C30   C49   A    
C38   H14   S    
C8    C15   A    
C48   H35   S    
C4    N2    A    
C1    C26   S    
C42   C43   S    
C36   H7    S    
C36   H9    S    
C1    O1    A    
C37   H10   S    
C14   C44   S    
C7    C9    A    
C33   H3    S    
Cu2   O5    S    
C2    C8    A    
C3    C5    A    
C6    C10   A    
C12   O4    A    
C22   H1    S    
C24   H12   S    
C25   C27   A    
C52   N1    A    
C26   C28   A    
C40   H21   S    
C12   C25   S    
C28   C30   A    
C29   C31   A    
C6    C13   A    
C30   C32   A    
Cu1   O8    S    
C38   C39   S    
C45   C50   A    
C33   C35   S    
C39   H16   S    
C52   H42   S    
C18   C20   T    
C11   C40   S    
C41   H19   S    
C46   H29   S    
C3    N1    A    
C20   C21   S    
C8    C10   A    
C39   H17   S    
C22   C23   A    
C33   O10   S    
C3    H44   S    
C1    O5    A    
C23   C31   A    
