data_mof_unit_17755.cif
_audit_creation_date              2012-12-10T17:05:54-0500
_audit_creation_method            fapswitch 2.2
_symmetry_space_group_name_H-M    P1
_symmetry_Int_Tables_number       1
_space_group_crystal_system       triclinic
_cell_length_a                    25.916685
_cell_length_b                    25.799356
_cell_length_c                    18.278658
_cell_angle_alpha                 89.473591
_cell_angle_beta                  134.903507
_cell_angle_gamma                 90.55669
_cell_volume                      8656.15354562

loop_
_atom_site_label
_atom_site_type_symbol
_atom_type_description
_atom_site_fract_x
_atom_site_fract_y
_atom_site_fract_z
_atom_type_partial_charge
C1    C     C_R   0.889396 0.749490 0.780008 0.840330
C2    C     C_R   0.891150 0.248623 0.780208 0.854620
C3    C     C_R   0.389397 0.249492 0.780008 0.840354
C4    C     C_R   0.391140 0.748635 0.780208 0.848592
C5    C     C_R   0.401744 0.841479 0.410205 0.364873
C6    C     C_R   0.549541 0.248139 0.693677 0.386250
C7    C     C_R   0.901988 0.341588 0.410657 0.365183
C8    C     C_R   0.049522 0.747577 0.693579 0.393400
C9    C     C_R   0.446760 0.796630 0.447860 -0.184474
C10   C     C_R   0.520471 0.242680 0.592906 -0.125270
C11   C     C_R   0.946882 0.296685 0.448092 -0.184685
C12   C     C_R   0.020405 0.742386 0.592741 -0.122261
C13   C     C_R   0.498027 0.795093 0.440374 -0.145395
C14   C     C_R   0.565504 0.224335 0.581924 -0.172568
C15   C     C_R   0.998147 0.295150 0.440606 -0.145109
C16   C     C_R   0.065298 0.724016 0.581527 -0.164896
C17   C     C_R   0.548336 0.753093 0.488730 -0.154045
C18   C     C_R   0.550022 0.241329 0.493562 -0.109413
C19   C     C_R   0.048331 0.253083 0.488719 -0.153903
C20   C     C_R   0.049926 0.741253 0.493363 -0.106694
C21   C     C_R   0.543094 0.711259 0.532794 0.310416
C22   C     C_R   0.479742 0.259060 0.405484 0.335742
C23   C     C_R   0.042928 0.211165 0.532460 0.310351
C24   C     C_R   0.979734 0.759205 0.405459 0.334476
C25   C     C_R   0.490995 0.711958 0.536791 0.319866
C26   C     C_R   0.426044 0.259749 0.406710 0.312216
C27   C     C_R   0.990838 0.211866 0.536478 0.320115
C28   C     C_R   0.926054 0.759925 0.406719 0.313860
C29   C     C_R   0.442768 0.753600 0.493327 -0.098346
C30   C     C_R   0.447273 0.253672 0.501669 -0.085826
C31   C     C_R   0.942765 0.253593 0.493317 -0.098561
C32   C     C_R   0.947269 0.753647 0.501641 -0.086813
C33   C     C_R   0.563606 0.650245 0.109033 -0.156693
C34   C     C_R   0.457360 0.228294 0.108838 -0.134868
C35   C     C_R   0.063415 0.150200 0.109040 -0.155870
C36   C     C_R   0.957348 0.728329 0.108833 -0.134924
C37   C     C_R   0.537585 0.603411 0.055898 -0.121443
C38   C     C_R   0.384831 0.219238 0.055211 -0.113467
C39   C     C_R   0.037269 0.103363 0.055912 -0.121411
C40   C     C_R   0.884816 0.719286 0.055204 -0.113380
C41   C     C_R   0.482305 0.603081 0.948742 -0.060463
C42   C     C_R   0.331094 0.219386 0.947800 -0.095009
C43   C     C_R   0.981976 0.103035 0.948758 -0.059582
C44   C     C_R   0.831082 0.719426 0.947793 -0.094876
C45   C     C_R   0.610917 0.749104 0.219824 0.842693
C46   C     C_R   0.609328 0.249254 0.220084 0.768072
C47   C     C_R   0.110928 0.249093 0.219825 0.843970
C48   C     C_R   0.109326 0.749253 0.220084 0.767770
C49   C     C_R   0.453444 0.649599 0.893884 -0.136031
C50   C     C_R   0.349478 0.228657 0.893243 -0.096928
C51   C     C_R   0.953232 0.149556 0.893897 -0.135418
C52   C     C_R   0.849472 0.728678 0.893239 -0.097349
C53   C     C_R   0.477392 0.697740 0.945983 0.078074
C54   C     C_R   0.422531 0.238628 0.945766 0.073830
C55   C     C_R   0.977301 0.197706 0.945988 0.075573
C56   C     C_R   0.922528 0.738640 0.945764 0.073651
C57   C     C_R   0.532942 0.697998 0.055450 0.096944
C58   C     C_R   0.477335 0.238491 0.055320 0.082222
C59   C     C_R   0.032857 0.197964 0.055457 0.097229
C60   C     C_R   0.977329 0.738506 0.055318 0.082307
C61   C     C_R   0.557849 0.746150 0.107882 -0.079000
C62   C     C_R   0.550839 0.246825 0.108008 -0.080701
C63   C     C_R   0.057880 0.246122 0.107886 -0.080803
C64   C     C_R   0.050838 0.746822 0.108009 -0.080411
C65   C     C_R   0.531179 0.792766 0.052852 -0.141215
C66   C     C_R   0.569554 0.252939 0.053139 -0.134516
C67   C     C_R   0.031354 0.292734 0.052853 -0.141108
C68   C     C_R   0.069558 0.752908 0.053141 -0.134786
C69   C     C_R   0.477611 0.792575 0.946154 -0.156161
C70   C     C_R   0.516058 0.253233 0.946326 -0.129107
C71   C     C_R   0.977796 0.292543 0.946159 -0.137356
C72   C     C_R   0.016065 0.753199 0.946328 -0.128764
C73   C     C_R   0.449351 0.745764 0.892275 -0.104384
C74   C     C_R   0.442901 0.247094 0.892201 -0.107961
C75   C     C_R   0.949382 0.245737 0.892277 -0.105955
C76   C     C_R   0.942902 0.747088 0.892201 -0.107798
C77   C     C_R   0.883706 0.946218 0.668681 -0.211820
C78   C     C_R   0.884241 0.054386 0.666395 -0.219765
C79   C     C_R   0.383778 0.446221 0.668456 -0.212641
C80   C     C_R   0.384300 0.554389 0.666183 -0.220005
C81   C     C_R   0.948031 0.972998 0.749059 0.400703
C82   C     C_R   0.949048 0.027906 0.745417 0.353224
C83   C     C_R   0.448135 0.473001 0.748736 0.399575
C84   C     C_R   0.449137 0.527911 0.745096 0.353139
C85   C     C_R   0.818780 0.027518 0.586471 0.017068
C86   C     C_R   0.818828 0.972783 0.586546 -0.008228
C87   C     C_R   0.318812 0.527519 0.586360 0.016853
C88   C     C_R   0.318863 0.472784 0.586430 -0.008179
C89   C     C_R   0.749757 0.609945 0.501150 0.867992
C90   C     C_R   0.749955 0.389961 0.501878 0.915331
C91   C     C_R   0.249756 0.109945 0.501119 0.868001
C92   C     C_R   0.249958 0.889962 0.501870 0.915572
C93   C     C_R   0.753966 0.946085 0.503339 -0.030818
C94   C     C_R   0.753570 0.053936 0.504108 0.007517
C95   C     C_R   0.253959 0.446085 0.503332 -0.031133
C96   C     C_R   0.253563 0.553937 0.504105 0.007585
C97   C     C_R   0.690887 0.973076 0.421415 -0.159861
C98   C     C_R   0.690640 0.026711 0.421941 -0.157912
C99   C     C_R   0.190832 0.473075 0.421524 -0.159873
C100  C     C_R   0.190585 0.526710 0.422051 -0.157604
C101  C     C_R   0.796058 0.553170 0.683257 0.212923
C102  C     C_R   0.793587 0.445714 0.682646 0.319885
C103  C     C_R   0.296735 0.053192 0.683617 0.210533
C104  C     C_R   0.294571 0.945740 0.683264 0.305381
C105  C     C_R   0.840662 0.526409 0.778226 0.226960
C106  C     C_R   0.838141 0.471839 0.777406 0.380725
C107  C     C_R   0.341727 0.026490 0.778679 0.240116
C108  C     C_R   0.339434 0.971912 0.778014 0.374804
C109  C     C_R   0.772089 0.471955 0.595570 -0.165043
C110  C     C_R   0.772792 0.527168 0.595651 -0.088374
C111  C     C_R   0.272581 0.971970 0.595859 -0.157142
C112  C     C_R   0.273198 0.027177 0.595862 -0.087836
C113  C     C_R   0.747954 0.553870 0.506966 0.022087
C114  C     C_R   0.748229 0.445830 0.507620 -0.001971
C115  C     C_R   0.247950 0.053870 0.506936 0.021410
C116  C     C_R   0.248251 0.945833 0.507630 -0.005135
C117  C     C_R   0.721214 0.526763 0.420307 -0.176847
C118  C     C_R   0.721680 0.473367 0.420822 -0.116147
C119  C     C_R   0.220783 0.026758 0.420047 -0.176541
C120  C     C_R   0.221241 0.973361 0.420567 -0.116575
C121  C     C_R   0.750395 0.890041 0.500117 0.834565
C122  C     C_R   0.750035 0.109965 0.500271 0.776584
C123  C     C_R   0.250394 0.390041 0.500116 0.834722
C124  C     C_R   0.250032 0.609965 0.500268 0.776474
C125  C     C_R   0.890724 0.751280 0.501147 0.949035
C126  C     C_R   0.889542 0.250667 0.499054 0.941743
C127  C     C_R   0.390719 0.251280 0.501144 0.950450
C128  C     C_R   0.389540 0.750669 0.499052 0.942124
C129  C     C_R   0.608466 0.751208 0.496890 1.057922
C130  C     C_R   0.608524 0.247554 0.497610 0.924393
C131  C     C_R   0.108472 0.251201 0.496901 1.057194
C132  C     C_R   0.108491 0.747523 0.497540 0.936443
C133  C     C_R   0.495793 0.835702 0.384017 0.376034
C134  C     C_R   0.624436 0.191943 0.661918 0.382559
C135  C     C_R   0.996020 0.335820 0.384450 0.374773
C136  C     C_R   0.123977 0.691338 0.661103 0.383594
C137  C     C_R   0.459325 0.881646 0.363265 -0.350417
C138  C     C_R   0.652671 0.195970 0.760856 -0.334583
C139  C     C_R   0.959716 0.381806 0.363984 -0.350361
C140  C     C_R   0.152169 0.695005 0.760062 -0.331132
C141  C     C_R   0.413798 0.885170 0.378044 0.372424
C142  C     C_R   0.618969 0.226931 0.779208 0.371629
C143  C     C_R   0.914205 0.385326 0.378794 0.373018
C144  C     C_R   0.118718 0.725972 0.778825 0.376197
H1    H     H_    0.462591 0.566579 0.907882 0.162498
H2    H     H_    0.274953 0.211739 0.906481 0.169213
H3    H     H_    0.962167 0.066530 0.907902 0.162285
H4    H     H_    0.774939 0.711786 0.906472 0.169340
H5    H     H_    0.413376 0.646972 0.810788 0.153679
H6    H     H_    0.305991 0.227077 0.809986 0.195048
H7    H     H_    0.913166 0.146918 0.810805 0.153610
H8    H     H_    0.805987 0.727087 0.809983 0.195196
H9    H     H_    0.456662 0.829312 0.905269 0.198929
H10   H     H_    0.531656 0.259602 0.905515 0.194560
H11   H     H_    0.956966 0.329284 0.905280 0.202227
H12   H     H_    0.031675 0.759543 0.905526 0.194371
H13   H     H_    0.641410 0.952444 0.357533 0.154880
H14   H     H_    0.641020 0.047151 0.358290 0.153653
H15   H     H_    0.141321 0.452441 0.357728 0.155099
H16   H     H_    0.140931 0.547149 0.358487 0.153766
H17   H     H_    0.885087 0.904271 0.671840 0.168972
H18   H     H_    0.886398 0.096313 0.666236 0.160111
H19   H     H_    0.385162 0.404273 0.671611 0.168888
H20   H     H_    0.386446 0.596318 0.666030 0.160193
H21   H     H_    0.701616 0.547220 0.352523 0.135989
H22   H     H_    0.702545 0.453251 0.353449 0.166216
H23   H     H_    0.200855 0.047210 0.352066 0.136014
H24   H     H_    0.201759 0.953237 0.352992 0.166221
H25   H     H_    0.461706 0.913823 0.327357 0.225453
H26   H     H_    0.699517 0.172964 0.823138 0.225503
H27   H     H_    0.962186 0.414024 0.328237 0.225211
H28   H     H_    0.198805 0.671749 0.822023 0.224120
H29   H     H_    0.550673 0.829609 0.092849 0.180112
H30   H     H_    0.625841 0.258804 0.093328 0.182790
H31   H     H_    0.050950 0.329582 0.092841 0.180471
H32   H     H_    0.125849 0.758751 0.093332 0.182560
H33   H     H_    0.608781 0.648264 0.191995 0.135745
H34   H     H_    0.497339 0.226204 0.192182 0.166649
H35   H     H_    0.108606 0.148208 0.191996 0.135654
H36   H     H_    0.997325 0.726241 0.192177 0.166240
H37   H     H_    0.561143 0.567221 0.098083 0.150559
H38   H     H_    0.370386 0.211488 0.097244 0.168177
H39   H     H_    0.060745 0.067167 0.098099 0.150450
H40   H     H_    0.870367 0.711550 0.097235 0.168090
O1    O     O_3   0.750020 0.750020 0.500000 -0.514167
O2    O     O_3   0.750020 0.249980 0.500000 -0.523534
O3    O     O_3   0.250020 0.250020 0.500000 -0.514213
O4    O     O_3   0.250020 0.749980 0.500000 -0.523349
O5    O     O_R   0.689310 0.634210 0.439280 -0.613954
O6    O     O_R   0.689310 0.365790 0.439280 -0.602444
O7    O     O_R   0.189310 0.134210 0.439280 -0.614208
O8    O     O_R   0.189310 0.865790 0.439280 -0.604237
O9    O     O_R   0.750010 0.865830 0.560720 -0.614366
O10   O     O_R   0.750010 0.134170 0.560720 -0.584036
O11   O     O_R   0.250010 0.365830 0.560720 -0.614134
O12   O     O_R   0.250010 0.634170 0.560720 -0.583866
O13   O     O_R   0.896180 0.719660 0.731600 -0.599525
O14   O     O_R   0.896180 0.280340 0.731600 -0.613105
O15   O     O_R   0.396180 0.219660 0.731600 -0.599486
O16   O     O_R   0.396180 0.780340 0.731600 -0.610827
O17   O     O_R   0.664580 0.780370 0.268400 -0.630933
O18   O     O_R   0.664580 0.219630 0.268400 -0.635661
O19   O     O_R   0.164580 0.280370 0.268400 -0.631308
O20   O     O_R   0.164580 0.719630 0.268400 -0.635858
O21   O     O_R   0.835450 0.780390 0.731600 -0.651205
O22   O     O_R   0.835450 0.219610 0.731600 -0.627803
O23   O     O_R   0.335450 0.280390 0.731600 -0.651261
O24   O     O_R   0.335450 0.719610 0.731600 -0.627720
O25   O     O_R   0.603870 0.719650 0.268400 -0.618127
O26   O     O_R   0.603870 0.280350 0.268400 -0.641483
O27   O     O_R   0.103870 0.219650 0.268400 -0.617984
O28   O     O_R   0.103870 0.780350 0.268400 -0.641922
O29   O     O_R   0.810750 0.634210 0.560720 -0.620327
O30   O     O_R   0.810750 0.365790 0.560720 -0.594816
O31   O     O_R   0.310750 0.134210 0.560720 -0.620313
O32   O     O_R   0.310750 0.865790 0.560720 -0.593502
O33   O     O_R   0.750010 0.865820 0.439280 -0.626053
O34   O     O_R   0.750010 0.134180 0.439280 -0.632720
O35   O     O_R   0.250010 0.365820 0.439280 -0.626377
O36   O     O_R   0.250010 0.634180 0.439280 -0.633101
O37   O     O_R   0.896180 0.719650 0.560720 -0.640363
O38   O     O_R   0.896180 0.280350 0.560720 -0.611745
O39   O     O_R   0.396180 0.219650 0.560720 -0.639189
O40   O     O_R   0.396180 0.780350 0.560720 -0.611505
O41   O     O_R   0.664570 0.780390 0.560720 -0.633927
O42   O     O_R   0.664570 0.219610 0.560720 -0.595373
O43   O     O_R   0.164570 0.280390 0.560720 -0.634041
O44   O     O_R   0.164570 0.719610 0.560720 -0.594908
O45   O     O_R   0.835460 0.780370 0.439280 -0.599533
O46   O     O_R   0.835460 0.219630 0.439280 -0.632117
O47   O     O_R   0.335460 0.280370 0.439280 -0.600706
O48   O     O_R   0.335460 0.719630 0.439280 -0.632602
O49   O     O_R   0.603860 0.719660 0.439280 -0.546616
O50   O     O_R   0.603860 0.280340 0.439280 -0.564283
O51   O     O_R   0.103860 0.219660 0.439280 -0.546755
O52   O     O_R   0.103860 0.780340 0.439280 -0.564945
Zn1   Zn    Zn3+2 0.663270 0.706640 0.413250 1.138574
Zn2   Zn    Zn3+2 0.663270 0.293360 0.413250 1.083076
Zn3   Zn    Zn3+2 0.163270 0.206640 0.413250 1.138603
Zn4   Zn    Zn3+2 0.163270 0.793360 0.413250 1.085095
Zn5   Zn    Zn3+2 0.836780 0.706640 0.586750 1.059054
Zn6   Zn    Zn3+2 0.836780 0.293360 0.586750 1.085750
Zn7   Zn    Zn3+2 0.336780 0.206640 0.586750 1.059362
Zn8   Zn    Zn3+2 0.336780 0.793360 0.586750 1.086448
Zn9   Zn    Zn3+2 0.750020 0.793390 0.413240 1.060303
Zn10  Zn    Zn3+2 0.750020 0.206610 0.413240 1.005930
Zn11  Zn    Zn3+2 0.250020 0.293390 0.413240 1.059485
Zn12  Zn    Zn3+2 0.250020 0.706610 0.413240 1.005387
Zn13  Zn    Zn3+2 0.750010 0.793400 0.586760 1.082765
Zn14  Zn    Zn3+2 0.750010 0.206600 0.586760 1.081916
Zn15  Zn    Zn3+2 0.250010 0.293400 0.586760 1.082551
Zn16  Zn    Zn3+2 0.250010 0.706600 0.586760 1.083989
O53   O     O_3   0.590270 0.670156 0.572056 -0.701595
H41   H     H_    0.565372 0.637913 0.563414 0.370273
O54   O     O_3   0.464261 0.273438 0.318632 -0.762535
H42   H     H_    0.423802 0.298724 0.278292 0.354390
O55   O     O_3   0.089935 0.169979 0.571383 -0.701611
H43   H     H_    0.064911 0.137759 0.562504 0.370727
O56   O     O_3   0.964309 0.773778 0.318729 -0.763002
H44   H     H_    0.923987 0.799173 0.278644 0.355115
O57   O     O_3   0.007879 0.944134 0.829381 -0.731101
H45   H     H_    0.039835 0.965681 0.892508 0.342958
O58   O     O_3   0.011847 0.057041 0.815249 -0.767678
H46   H     H_    0.054222 0.035350 0.844864 0.357355
O59   O     O_3   0.508028 0.444138 0.828966 -0.732077
H47   H     H_    0.540049 0.465681 0.892096 0.343049
O60   O     O_3   0.511946 0.557049 0.814826 -0.767731
H48   H     H_    0.554297 0.535365 0.844318 0.356856
S1    S     S_3+6 0.747476 0.607381 0.668585 0.028736
O61   O     O_2   0.782521 0.657013 0.678454 -0.342495
O62   O     O_2   0.670214 0.605452 0.564285 -0.261816
O63   O     O_3   0.746501 0.606534 0.759662 -0.505908
H49   H     H_    0.716798 0.575763 0.743467 0.377683
S2    S     S_3+6 0.748325 0.388890 0.670360 0.047180
O64   O     O_2   0.670754 0.388261 0.566436 -0.305337
O65   O     O_2   0.786715 0.341251 0.683021 -0.351331
O66   O     O_3   0.747552 0.388214 0.761646 -0.460489
H50   H     H_    0.722583 0.355427 0.750422 0.380637
S3    S     S_3+6 0.248071 0.107259 0.669200 0.029031
O67   O     O_2   0.282842 0.156990 0.678811 -0.342706
O68   O     O_2   0.170718 0.105237 0.565084 -0.260919
O69   O     O_3   0.247442 0.106270 0.760624 -0.506184
H51   H     H_    0.217901 0.075421 0.744607 0.378552
S4    S     S_3+6 0.249206 0.889085 0.671343 0.052719
O70   O     O_2   0.171490 0.888456 0.567782 -0.268981
O71   O     O_2   0.286818 0.841223 0.682755 -0.371950
O72   O     O_3   0.248464 0.888570 0.762773 -0.465759
H52   H     H_    0.282158 0.860528 0.811486 0.394452
O73   O     O_3   0.879688 0.552340 0.870342 -0.719018
H53   H     H_    0.884984 0.589162 0.860442 0.385956
O74   O     O_3   0.873444 0.443101 0.866140 -0.668864
H54   H     H_    0.903713 0.466132 0.927114 0.389822
O75   O     O_3   0.380940 0.052463 0.870803 -0.719242
H55   H     H_    0.385948 0.089318 0.860674 0.385165
O76   O     O_3   0.375271 0.943212 0.866950 -0.708764
H56   H     H_    0.405712 0.966279 0.927872 0.392728
S5    S     S_3+6 0.518813 0.827662 0.313190 0.009076
O77   O     O_2   0.599175 0.834829 0.381748 -0.389967
O78   O     O_2   0.496420 0.774525 0.266177 -0.252155
O79   O     O_3   0.474295 0.871284 0.216344 -0.515718
H57   H     H_    0.507555 0.901517 0.245451 0.354826
S6    S     S_3+6 0.644627 0.133509 0.635876 0.084457
O80   O     O_2   0.596735 0.126778 0.521955 -0.257573
O81   O     O_2   0.632018 0.088467 0.674535 -0.257422
O82   O     O_3   0.732607 0.133602 0.698256 -0.487103
H58   H     H_    0.760761 0.134128 0.772594 0.341153
S7    S     S_3+6 0.018900 0.327809 0.313445 0.011093
O83   O     O_2   0.099255 0.334927 0.381895 -0.390271
O84   O     O_2   0.996407 0.274700 0.266304 -0.250666
O85   O     O_3   0.974370 0.371492 0.216698 -0.509900
H59   H     H_    0.007649 0.401716 0.245849 0.354664
S8    S     S_3+6 0.143952 0.633068 0.634357 0.082405
O86   O     O_2   0.096301 0.626803 0.520407 -0.260151
O87   O     O_2   0.130837 0.587826 0.672030 -0.258308
O88   O     O_3   0.232041 0.633014 0.697238 -0.487459
H60   H     H_    0.259995 0.632640 0.771528 0.341205
S9    S     S_3+6 0.864330 0.442823 0.343340 0.093318
O89   O     O_2   0.869516 0.457474 0.427756 -0.212480
O90   O     O_2   0.893418 0.486627 0.325996 -0.266555
O91   O     O_3   0.776327 0.432292 0.234450 -0.511834
H61   H     H_    0.776756 0.420503 0.183461 0.363407
S10   S     S_3+6 0.162736 0.733458 0.908328 0.027745
O92   O     O_2   0.158139 0.788932 0.927735 -0.276815
O93   O     O_2   0.125886 0.699043 0.927082 -0.320356
O94   O     O_3   0.250869 0.716542 0.989860 -0.517215
H62   H     H_    0.271206 0.721737 0.059824 0.397388
S11   S     S_3+6 0.363738 0.942605 0.342267 0.093376
O95   O     O_2   0.369230 0.957511 0.426870 -0.212182
O96   O     O_2   0.392416 0.986330 0.324111 -0.266855
O97   O     O_3   0.275683 0.931816 0.233812 -0.511560
H63   H     H_    0.275938 0.919700 0.182804 0.363146
S12   S     S_3+6 0.663014 0.234896 0.908629 0.026546
O98   O     O_2   0.657511 0.290342 0.927050 -0.279245
O99   O     O_2   0.626882 0.200203 0.928234 -0.319082
O100  O     O_3   0.751422 0.218748 0.990263 -0.514796
H64   H     H_    0.771776 0.224156 0.060189 0.397766
O101  O     O_3   0.345214 0.843840 0.402754 -0.712998
H65   H     H_    0.309883 0.816801 0.352201 0.304920
O102  O     O_3   0.511946 0.277570 0.706140 -0.745906
H66   H     H_    0.526326 0.267058 0.770507 0.369581
O103  O     O_3   0.845394 0.343948 0.403068 -0.712870
H67   H     H_    0.810073 0.316917 0.352478 0.304905
O104  O     O_3   0.012220 0.777138 0.706408 -0.743619
H68   H     H_    0.026579 0.766569 0.770733 0.368844
O105  O     O_3   0.487657 0.673491 0.586660 -0.767343
H69   H     H_    0.537167 0.659465 0.644320 0.356004
O106  O     O_3   0.353031 0.265564 0.316926 -0.746205
H70   H     H_    0.344131 0.252801 0.257838 0.344130
O107  O     O_3   0.987370 0.173318 0.586089 -0.766968
H71   H     H_    0.036824 0.159173 0.643619 0.356159
O108  O     O_3   0.853071 0.765967 0.316995 -0.745599
H72   H     H_    0.844097 0.753317 0.257786 0.343973

loop_
_geom_bond_atom_site_label_1
_geom_bond_atom_site_label_2
_ccdc_geom_bond_type
S10   O93   D    
C124  O36   A    
C133  C137  A    
C55   C59   A    
O74   H54   S    
C136  C140  A    
O5    Zn1   S    
C128  O40   A    
O101  H65   S    
C68   H32   S    
O14   Zn6   S    
C135  C139  A    
O69   H51   S    
C46   C62   S    
O26   Zn2   S    
S4    O70   D    
C93   C121  S    
C95   C99   A    
S10   O94   S    
S2    O64   D    
O4    Zn16  S    
C3    C74   S    
C9    C13   A    
C91   O31   A    
C54   C74   A    
C11   C15   A    
C48   O28   A    
O39   Zn7   S    
O63   H49   S    
C36   H36   S    
C70   C74   A    
C139  H27   S    
C25   O105  S    
O46   Zn10  S    
C136  S8    S    
O36   Zn12  S    
C88   C95   A    
C128  O48   A    
O7    Zn3   S    
C20   C132  S    
C41   C49   A    
C4    O24   A    
C25   C29   A    
C89   C113  S    
O17   Zn9   S    
O97   H63   S    
C27   C31   A    
C83   O59   S    
O2    Zn6   S    
C131  O51   A    
C101  C110  A    
C46   O26   A    
C91   O7    A    
C17   C21   A    
C84   O60   S    
C103  C112  A    
S9    O91   S    
C19   C23   A    
O4    Zn4   S    
C78   C82   A    
C16   C20   A    
C37   H37   S    
C102  S2    S    
C132  O52   A    
C28   O108  S    
C94   C122  S    
S1    O62   D    
C18   C130  S    
C119  H23   S    
C90   O30   A    
O79   H57   S    
C120  H24   S    
O43   Zn15  S    
C30   C127  S    
C13   C133  A    
S4    O72   S    
O47   Zn11  S    
O33   Zn9   S    
C142  S12   S    
C57   C61   A    
C59   C63   A    
C60   C64   A    
O30   Zn6   S    
C3    O23   A    
C143  S9    S    
C66   C70   A    
C49   C53   A    
C51   C55   A    
C90   C114  S    
O3    Zn15  S    
O22   Zn14  S    
C105  O73   S    
C48   C64   S    
O1    Zn13  S    
O100  H64   S    
C61   C65   A    
C130  O42   A    
C34   C58   A    
C66   H30   S    
C102  C109  A    
C103  C107  A    
C2    C75   S    
C81   O57   S    
O107  H71   S    
C72   H12   S    
C47   O27   A    
C5    O101  S    
C111  C112  A    
C7    C143  A    
C97   C98   A    
O37   Zn5   S    
C85   C86   A    
C64   C68   A    
O25   Zn1   S    
C125  O45   A    
O57   H45   S    
O8    Zn4   S    
S8    O86   D    
O55   H43   S    
O24   Zn16  S    
C50   H6    S    
O3    Zn11  S    
C139  C143  A    
O1    Zn1   S    
S8    O87   D    
C107  C108  A    
O10   Zn14  S    
C2    O22   A    
O16   Zn8   S    
C8    O104  S    
O45   Zn9   S    
C44   C52   A    
S3    O68   D    
O66   H50   S    
S5    O78   D    
O12   Zn16  S    
C7    O103  S    
C28   C32   A    
C108  O76   S    
O32   Zn8   S    
C35   H35   S    
S6    O81   D    
C62   C66   A    
C33   H33   S    
C12   C16   A    
O21   Zn13  S    
S12   O98   D    
C10   C14   A    
C117  H21   S    
S11   O96   D    
C101  S1    S    
C45   O25   A    
C116  C120  A    
O48   Zn12  S    
C5    C9    A    
O75   H55   S    
C86   C93   A    
C83   C84   A    
C8    C12   A    
C124  O12   A    
O73   H53   S    
C22   O54   S    
C114  C118  A    
C4    C73   S    
C109  C114  A    
C42   C50   A    
C113  C117  A    
C78   C85   A    
C26   C30   A    
C115  C119  A    
C16   C136  A    
C93   C97   A    
O2    Zn10  S    
C90   O6    A    
C95   C123  S    
C21   C25   A    
C133  S5    S    
C141  S11   S    
C18   C22   A    
C1    C76   S    
C121  O33   A    
C1    O13   A    
C24   C28   A    
O60   H48   S    
C125  O37   A    
C48   O20   A    
C38   H38   S    
S8    O88   S    
C13   C17   A    
S7    O85   S    
S4    O71   D    
C117  C118  A    
C96   C100  A    
S2    O65   D    
C37   C41   A    
C21   O53   S    
C4    O16   A    
O19   Zn11  S    
C129  O41   A    
O44   Zn16  S    
O23   Zn15  S    
O56   H44   S    
C58   C62   A    
C87   C88   A    
S2    O66   S    
O6    Zn2   S    
S12   O100  S    
C80   C84   A    
O15   Zn7   S    
O58   H46   S    
C15   C19   A    
O13   Zn5   S    
C50   C54   A    
C122  O10   A    
C99   H15   S    
C132  O44   A    
C47   C63   S    
C27   O107  S    
C94   C98   A    
C35   C59   A    
O50   Zn2   S    
S9    O90   D    
C80   H20   S    
C123  O35   A    
C98   H14   S    
C67   H31   S    
O41   Zn13  S    
S3    O67   D    
C69   C73   A    
C111  C116  A    
C6    C142  A    
S10   O92   D    
C51   H7    S    
O88   H60   S    
C70   H10   S    
S1    O61   D    
C123  O11   A    
C121  O9    A    
C79   C88   A    
C77   H17   S    
O18   Zn10  S    
S7    O83   D    
O3    Zn7   S    
C138  C142  A    
O76   H56   S    
C53   C57   A    
O1    Zn5   S    
C130  O50   A    
C69   H9    S    
C56   C60   A    
C68   C72   A    
C34   C38   A    
C35   C39   A    
C104  C111  A    
O102  H66   S    
S6    O82   S    
C77   C81   A    
C52   H8    S    
C71   H11   S    
C47   O19   A    
O28   Zn4   S    
O35   Zn11  S    
O4    Zn8   S    
C42   H2    S    
C104  C108  A    
C89   O29   A    
O42   Zn14  S    
C137  C141  A    
O85   H59   S    
O51   Zn3   S    
C140  C144  A    
C6    C10   A    
O3    Zn3   S    
C119  C120  A    
C107  O75   S    
C105  C106  A    
O31   Zn7   S    
O49   Zn1   S    
O29   Zn5   S    
S11   O95   D    
O38   Zn6   S    
C109  C110  A    
C104  S4    S    
C79   C83   A    
C43   C51   A    
O53   H41   S    
C65   C69   A    
C45   C61   S    
C91   C115  S    
C92   O32   A    
C67   C71   A    
O94   H62   S    
C33   C37   A    
O2    Zn14  S    
C144  S10   S    
C131  O43   A    
C46   O18   A    
C41   H1    S    
O82   H58   S    
C22   C26   A    
S1    O63   S    
C89   O5    A    
C39   H39   S    
C92   O8    A    
C40   H40   S    
O104  H68   S    
C56   C76   A    
C138  H26   S    
S5    O77   D    
C14   C18   A    
C103  S3    S    
C72   C76   A    
C81   C82   A    
C135  S7    S    
O103  H67   S    
C7    C11   A    
C24   O56   S    
O34   Zn10  S    
C126  O46   A    
S12   O99   D    
C38   C42   A    
C80   C87   A    
C19   C131  S    
C15   C135  A    
S3    O69   S    
C10   C30   A    
C6    O102  S    
O2    Zn2   S    
O72   H52   S    
O11   Zn15  S    
C3    O15   A    
O4    Zn12  S    
C23   C27   A    
C1    O21   A    
O59   H47   S    
C137  H25   S    
C127  O39   A    
C11   C31   A    
C140  H28   S    
C12   C32   A    
C101  C105  A    
C63   C67   A    
C96   C124  S    
C17   C129  S    
C20   C24   A    
C36   C40   A    
C43   H3    S    
O40   Zn8   S    
C39   C43   A    
C14   C134  A    
C118  H22   S    
O52   Zn4   S    
C129  O49   A    
S7    O84   D    
C97   H13   S    
C32   C125  S    
C92   C116  S    
C85   C94   A    
C100  H16   S    
C5    C141  A    
C99   C100  A    
C40   C44   A    
C87   C96   A    
C127  O47   A    
C8    C144  A    
C110  C113  A    
O20   Zn12  S    
C77   C86   A    
C78   H18   S    
O9    Zn13  S    
S5    O79   S    
O27   Zn3   S    
O54   H42   S    
O1    Zn9   S    
C54   C58   A    
S6    O80   D    
C33   C57   A    
C122  O34   A    
C65   H29   S    
C2    O14   A    
C53   C73   A    
C79   H19   S    
C36   C60   A    
C134  C138  A    
S11   O97   S    
C126  O38   A    
C9    C29   A    
C49   H5    S    
O91   H61   S    
C26   O106  S    
C55   C75   A    
O106  H70   S    
C106  O74   S    
C71   C75   A    
O108  H72   S    
C44   H4    S    
C102  C106  A    
S9    O89   D    
C34   H34   S    
C23   O55   S    
C45   O17   A    
C29   C128  S    
C82   O58   S    
C134  S6    S    
C31   C126  S    
O105  H69   S    
C112  C115  A    
C52   C56   A    
