data_mof_unit_19217.cif
_audit_creation_date              2012-12-10T17:18:21-0500
_audit_creation_method            fapswitch 2.2
_symmetry_space_group_name_H-M    P1
_symmetry_Int_Tables_number       1
_space_group_crystal_system       triclinic
_cell_length_a                    10.110448
_cell_length_b                    10.603086
_cell_length_c                    14.974362
_cell_angle_alpha                 89.520805
_cell_angle_beta                  82.274364
_cell_angle_gamma                 93.882598
_cell_volume                      1586.81137188

loop_
_atom_site_label
_atom_site_type_symbol
_atom_type_description
_atom_site_fract_x
_atom_site_fract_y
_atom_site_fract_z
_atom_type_partial_charge
C1    C     C_R   0.554013 0.733408 0.499536 0.927592
C2    C     C_2   0.073090 0.489285 0.493042 -0.128543
C3    C     C_R   0.501293 0.498221 0.673296 0.856903
C4    C     C_R   0.498574 0.500615 0.327075 0.894548
C5    C     C_R   0.563067 0.409414 0.181872 -0.246074
C6    C     C_R   0.442621 0.592625 0.819116 -0.255987
C7    C     C_R   0.496132 0.500533 0.232088 -0.063686
C8    C     C_R   0.505155 0.498772 0.768784 -0.051134
C9    C     C_R   0.432574 0.593864 0.191835 -0.278421
C10   C     C_R   0.570321 0.406166 0.809125 -0.267627
C11   C     C_R   0.438358 0.599445 0.098156 0.099692
C12   C     C_R   0.447115 0.266244 0.512748 0.927416
C13   C     C_R   0.572364 0.405736 0.902365 0.096263
C14   C     C_R   0.504237 0.504009 0.046906 0.024471
C15   C     C_R   0.507547 0.502136 0.953453 0.025611
C16   C     C_R   0.566281 0.409556 0.089499 0.103760
C17   C     C_R   0.444215 0.595968 0.911171 0.107708
C18   C     C_R   0.380708 0.696746 0.054239 0.101483
C19   C     C_R   0.635366 0.312176 0.946648 0.091298
C20   C     C_3   0.318781 0.807644 0.103417 -0.417489
C21   C     C_3   0.427147 0.902215 0.131240 -0.345636
C22   C     C_3   0.367175 0.020644 0.171675 -0.888034
C23   C     C_R   0.383338 0.692381 0.960842 -0.277586
C24   C     C_3   0.703113 0.203045 0.899913 -0.404471
C25   C     C_3   0.601552 0.090064 0.893597 -0.337682
C26   C     C_3   0.668326 0.964715 0.891143 -0.916992
C27   C     C_3   0.659654 0.129356 0.586648 -0.345949
C28   C     C_3   0.741068 0.047230 0.640881 -0.408352
C29   C     C_3   0.872572 0.118031 0.656318 -0.883729
C30   C     C_3   0.380048 0.873569 0.637419 -0.353765
C31   C     C_3   0.354673 0.941655 0.727840 -0.394331
C32   C     C_3   0.219106 0.897084 0.780085 -0.911061
C33   C     C_R   0.630790 0.315819 0.039990 -0.261398
C34   C     C_2   0.580650 0.866470 0.514124 -0.431751
C35   C     C_2   0.426213 0.132749 0.537528 -0.430861
C36   C     C_2   0.501195 0.931559 0.574760 0.124746
C37   C     C_2   0.523735 0.068521 0.568519 0.106141
C38   C     C_2   0.926634 0.509648 0.507742 -0.131786
H1    H     H_    0.611345 0.337488 0.215260 0.141849
H2    H     H_    0.881145 0.384966 0.416600 0.158597
H3    H     H_    0.315838 0.069430 0.121582 0.261494
H4    H     H_    0.294539 0.995392 0.232645 0.263082
H5    H     H_    0.448070 0.086647 0.191146 0.249105
H6    H     H_    0.482241 0.858479 0.181388 0.220637
H7    H     H_    0.500370 0.930400 0.071356 0.232873
H8    H     H_    0.259130 0.858017 0.058945 0.200483
H9    H     H_    0.246933 0.773922 0.162833 0.195586
H10   H     H_    0.756571 0.967112 0.838280 0.270796
H11   H     H_    0.702307 0.945639 0.957153 0.259691
H12   H     H_    0.393512 0.663675 0.786246 0.144861
H13   H     H_    0.595799 0.886331 0.877398 0.255074
H14   H     H_    0.521701 0.086518 0.952541 0.232739
H15   H     H_    0.552507 0.101760 0.832336 0.207098
H16   H     H_    0.756410 0.231396 0.832677 0.187943
H17   H     H_    0.783195 0.174580 0.938669 0.206851
H18   H     H_    0.939345 0.132522 0.591265 0.261080
H19   H     H_    0.854579 0.211799 0.686118 0.260343
H20   H     H_    0.923819 0.061973 0.702581 0.249190
H21   H     H_    0.680665 0.020652 0.706173 0.240530
H22   H     H_    0.766671 0.959293 0.605039 0.234891
H23   H     H_    0.381974 0.662412 0.234530 0.155539
H24   H     H_    0.722041 0.154026 0.521115 0.219734
H25   H     H_    0.641928 0.216551 0.625859 0.212411
H26   H     H_    0.137153 0.924741 0.743054 0.263993
H27   H     H_    0.210664 0.792895 0.789877 0.259685
H28   H     H_    0.207302 0.941825 0.847211 0.250709
H29   H     H_    0.434790 0.921864 0.768861 0.217706
H30   H     H_    0.355457 0.045536 0.717642 0.238655
H31   H     H_    0.290466 0.875223 0.601870 0.205676
H32   H     H_    0.394633 0.774163 0.654254 0.210140
H33   H     H_    0.110102 0.420854 0.443992 0.165326
H34   H     H_    0.615444 0.334018 0.767155 0.138647
H35   H     H_    0.889457 0.577465 0.557218 0.166480
H36   H     H_    0.338814 0.765533 0.926309 0.156348
H37   H     H_    0.676493 0.243426 0.074684 0.148040
H38   H     H_    0.330661 0.084614 0.528531 0.144989
H39   H     H_    0.665947 0.914172 0.472228 0.140758
H40   H     H_    0.119027 0.615543 0.583077 0.159735
N1    N     N_2   0.842700 0.448880 0.462930 -0.197799
N2    N     N_2   0.157300 0.551120 0.537070 -0.195001
O1    O     O_R   0.431060 0.692470 0.507460 -0.613185
O2    O     O_R   0.568940 0.307530 0.492540 -0.621618
O3    O     O_R   0.651120 0.659650 0.483670 -0.602681
O4    O     O_R   0.348880 0.340350 0.516330 -0.601462
O5    O     O_R   0.389960 0.516440 0.644050 -0.619992
O6    O     O_R   0.610040 0.483560 0.355950 -0.608739
O7    O     O_R   0.610030 0.483620 0.620260 -0.625596
O8    O     O_R   0.389970 0.516380 0.379740 -0.613845
Zn1   Zn    Zn3+2 0.353060 0.521920 0.515880 0.930775
Zn2   Zn    Zn3+2 0.646940 0.478080 0.484120 0.924492

loop_
_geom_bond_atom_site_label_1
_geom_bond_atom_site_label_2
_ccdc_geom_bond_type
C11   C18   A    
C3    O5    A    
C24   H17   S    
C31   H29   S    
C17   C23   A    
C9    H23   S    
C36   C37   S    
C35   C37   D    
C25   H15   S    
C34   H39   S    
C30   C31   S    
C11   C14   A    
H40   N2    S    
C22   H3    S    
C4    O6    A    
C38   N1    D    
C24   H16   S    
C12   O4    A    
C15   C17   A    
N2    Zn1   S    
O3    Zn2   S    
N1    Zn2   S    
C33   H37   S    
C22   H5    S    
C5    C16   A    
C34   C36   D    
C26   H10   S    
O1    Zn1   S    
O8    Zn1   S    
C21   C22   S    
C4    C7    S    
C30   H32   S    
C1    C34   S    
C21   H7    S    
C28   H22   S    
C31   H30   S    
C35   H38   S    
C13   C19   A    
C3    O7    A    
C18   C23   A    
C24   C25   S    
C32   H26   S    
C3    C8    S    
C19   C33   A    
C26   H11   S    
C5    C7    A    
O5    Zn1   S    
C6    C8    A    
C25   C26   S    
C6    H12   S    
C27   H24   S    
C16   C33   A    
C21   H6    S    
C2    C38   S    
C31   C32   S    
H2    N1    S    
C12   O2    A    
C29   H20   S    
C12   C35   S    
C9    C11   A    
C27   H25   S    
C29   H19   S    
C5    H1    S    
O6    Zn2   S    
C14   C16   A    
O4    Zn1   S    
C23   H36   S    
C2    H33   S    
C30   H31   S    
C32   H28   S    
C28   H21   S    
C7    C9    A    
C6    C17   A    
C28   C29   S    
C10   C13   A    
C4    O8    A    
C29   H18   S    
C1    O3    A    
O2    Zn2   S    
C30   C36   S    
C13   C15   A    
C19   C24   S    
C25   H14   S    
C26   H13   S    
C22   H4    S    
C27   C37   S    
C18   C20   S    
C20   H9    S    
C2    N2    D    
C20   C21   S    
C8    C10   A    
O7    Zn2   S    
C27   C28   S    
C14   C15   A    
C1    O1    A    
C20   H8    S    
C32   H27   S    
C38   H35   S    
C10   H34   S    
