data_mof_unit_44509.cif
_audit_creation_date              2012-12-11T15:08:42-0500
_audit_creation_method            fapswitch 2.2
_symmetry_space_group_name_H-M    P1
_symmetry_Int_Tables_number       1
_space_group_crystal_system       triclinic
_cell_length_a                    26.692758
_cell_length_b                    7.106462
_cell_length_c                    11.929471
_cell_angle_alpha                 89.862039
_cell_angle_beta                  103.204234
_cell_angle_gamma                 89.742791
_cell_volume                      2203.0513598

loop_
_atom_site_label
_atom_site_type_symbol
_atom_type_description
_atom_site_fract_x
_atom_site_fract_y
_atom_site_fract_z
_atom_type_partial_charge
O1    O     O_R   0.437360 0.505910 0.042120 -0.541210
O2    O     O_R   0.562640 0.005910 0.957880 -0.528424
O3    O     O_R   0.542480 0.176660 0.157100 -0.533685
O4    O     O_R   0.457520 0.676660 0.842900 -0.545658
C1    C     C_R   0.556163 0.343718 0.198632 0.732560
C2    C     C_R   0.443761 0.844412 0.801972 0.731415
O5    O     O_R   0.436520 0.176250 0.054800 -0.522630
O6    O     O_R   0.563480 0.676250 0.945200 -0.536036
O7    O     O_R   0.455920 0.005040 0.854840 -0.527464
O8    O     O_R   0.544080 0.505040 0.145160 -0.536700
C3    C     C_R   0.417493 0.345397 0.063786 0.718982
C4    C     C_R   0.582403 0.844247 0.935312 0.722732
O9    O     O_3   0.506490 0.338900 0.934520 -0.369392
O10   O     O_3   0.493510 0.838900 0.065480 -0.368692
V1    V     V_3+5 0.498800 0.064400 0.012150 1.594107
V2    V     V_3+5 0.501200 0.564400 0.987850 1.552521
C5    C     C_R   0.677706 0.796997 0.746378 0.155194
C6    C     C_R   0.321242 0.341469 0.250409 0.157476
H1    H     H_    0.594978 0.776837 0.724465 0.146245
H2    H     H_    0.403741 0.306792 0.275436 0.157803
C7    C     C_R   0.630969 0.847990 0.896772 -0.095743
C8    C     C_R   0.368558 0.355488 0.099813 -0.100538
C9    C     C_R   0.865004 0.857063 0.206035 -0.123205
C10   C     C_R   0.132574 0.356798 0.788944 -0.122204
C11   C     C_R   0.819164 0.827653 0.238922 -0.056799
C12   C     C_R   0.178288 0.355777 0.753516 -0.067034
C13   C     C_R   0.773009 0.808454 0.156763 0.478880
C14   C     C_R   0.225737 0.361803 0.832727 0.466176
C15   C     C_R   0.771458 0.835644 0.036836 0.049077
C16   C     C_R   0.228118 0.371168 0.955195 0.049640
C17   C     C_R   0.819309 0.849701 0.004411 -0.011870
C18   C     C_R   0.180150 0.368315 0.988921 -0.006453
C19   C     C_R   0.724938 0.841627 0.948275 0.029458
C20   C     C_R   0.274723 0.374910 0.045388 0.032751
C21   C     C_R   0.726242 0.819558 0.828906 0.076921
C22   C     C_R   0.273012 0.356652 0.165545 0.080840
C23   C     C_R   0.775671 0.823834 0.800264 0.139921
C24   C     C_R   0.223607 0.356476 0.193543 0.136324
C25   C     C_R   0.820179 0.847307 0.887656 -0.176961
C26   C     C_R   0.179241 0.367504 0.105578 -0.171820
C27   C     C_R   0.677078 0.877657 0.975671 -0.107812
C28   C     C_R   0.323428 0.398557 0.020203 -0.104044
C29   C     C_R   0.631528 0.802154 0.784203 -0.086966
C30   C     C_R   0.367423 0.327576 0.213765 -0.097248
C31   C     C_R   0.866059 0.861170 0.089914 -0.053758
C32   C     C_R   0.132802 0.362535 0.905263 -0.047517
H3    H     H_    0.674537 0.930057 0.058626 0.214271
H4    H     H_    0.328255 0.457456 0.941032 0.192505
H5    H     H_    0.900231 0.867031 0.271735 0.191938
H6    H     H_    0.096656 0.352110 0.724822 0.185567
H7    H     H_    0.819992 0.810655 0.329621 0.150710
H8    H     H_    0.176594 0.348313 0.661963 0.153417
H9    H     H_    0.856839 0.857122 0.863696 0.114437
H10   H     H_    0.142501 0.368205 0.129527 0.114045
C33   C     C_R   0.090335 0.855172 0.313241 -0.132640
C34   C     C_R   0.908152 0.362371 0.687852 -0.131695
C35   C     C_R   0.408965 0.851134 0.688240 -0.130296
C36   C     C_R   0.589805 0.344622 0.314725 -0.141795
C37   C     C_R   0.102529 0.828997 0.519119 -0.079016
C38   C     C_R   0.893729 0.385770 0.481150 -0.084334
C39   C     C_R   0.069774 0.841782 0.410510 0.384877
C40   C     C_R   0.927035 0.393014 0.589330 0.386148
C41   C     C_R   0.143631 0.850932 0.325310 -0.241020
C42   C     C_R   0.855478 0.331896 0.677379 -0.238368
C43   C     C_R   0.178056 0.835815 0.435166 0.040534
C44   C     C_R   0.820380 0.329250 0.568086 0.037393
C45   C     C_R   0.156538 0.829701 0.533448 -0.105204
C46   C     C_R   0.840724 0.351363 0.468626 -0.108407
C47   C     C_R   0.232773 0.832562 0.449571 0.002874
C48   C     C_R   0.765943 0.308919 0.554822 -0.004935
C49   C     C_R   0.265967 0.831203 0.562767 -0.047222
C50   C     C_R   0.732658 0.313199 0.442326 -0.054090
C51   C     C_R   0.242515 0.840138 0.659875 0.383354
C52   C     C_R   0.755510 0.302223 0.345612 0.391825
C53   C     C_R   0.188740 0.832209 0.644420 0.321288
C54   C     C_R   0.808397 0.332130 0.358380 0.339546
C55   C     C_R   0.255229 0.834446 0.352932 -0.202791
C56   C     C_R   0.743642 0.283394 0.650562 -0.195346
C57   C     C_R   0.307524 0.855937 0.364142 -0.170073
C58   C     C_R   0.690974 0.262698 0.637452 -0.164801
C59   C     C_R   0.340826 0.862270 0.472400 0.018295
C60   C     C_R   0.657428 0.281089 0.529390 0.017844
C61   C     C_R   0.320918 0.833074 0.572224 0.087835
C62   C     C_R   0.677913 0.319078 0.431659 0.080760
C63   C     C_R   0.394135 0.893049 0.482969 0.382141
C64   C     C_R   0.603562 0.265916 0.517041 0.387082
C65   C     C_R   0.427174 0.898881 0.591691 -0.185724
C66   C     C_R   0.570510 0.289783 0.408953 -0.175387
C67   C     C_R   0.357507 0.801625 0.676284 -0.102427
C68   C     C_R   0.642672 0.369752 0.328152 -0.114160
H11   H     H_    0.347883 0.730622 0.748036 0.191803
H12   H     H_    0.655214 0.429026 0.256232 0.220837
H13   H     H_    0.467597 0.929910 0.600310 0.180988
H14   H     H_    0.529556 0.267462 0.398536 0.170777
H15   H     H_    0.321569 0.866500 0.286142 0.203153
H16   H     H_    0.676751 0.237554 0.714122 0.199994
H17   H     H_    0.084800 0.820844 0.591879 0.222013
H18   H     H_    0.910126 0.407381 0.407223 0.216647
H19   H     H_    0.156493 0.863504 0.246493 0.123673
H20   H     H_    0.843365 0.314128 0.756827 0.124054
H21   H     H_    0.233419 0.823665 0.265551 0.151757
H22   H     H_    0.765884 0.272934 0.737724 0.151457
O11   O     O_R   0.955980 0.206520 0.854760 -0.541856
O12   O     O_R   0.044020 0.706520 0.145240 -0.538831
O13   O     O_R   0.063490 0.536770 0.945200 -0.526928
O14   O     O_R   0.936510 0.036770 0.054800 -0.529759
C69   C     C_R   0.082657 0.368514 0.936897 0.712641
C70   C     C_R   0.916728 0.868985 0.060615 0.714635
O15   O     O_R   0.957530 0.536190 0.842880 -0.533931
O16   O     O_R   0.042470 0.036190 0.157120 -0.538082
O17   O     O_R   0.937350 0.707210 0.042130 -0.535117
O18   O     O_R   0.062650 0.207210 0.957870 -0.536404
C71   C     C_R   0.942624 0.368486 0.802974 0.756106
C72   C     C_R   0.056754 0.867075 0.197518 0.760249
O19   O     O_3   0.993540 0.373870 0.065440 -0.372210
O20   O     O_3   0.006460 0.873870 0.934560 -0.370960
V3    V     V_3+5 0.001200 0.648440 0.987860 1.552653
V4    V     V_3+5 0.998800 0.148440 0.012140 1.542049
Cl1   Cl    Cl    0.002934 0.843204 0.399540 -0.630558
Cl2   Cl    Cl    0.992678 0.437109 0.598233 -0.628131
Cl3   Cl    Cl    0.276290 0.888019 0.803357 -0.579996
Cl4   Cl    Cl    0.721931 0.215601 0.210240 -0.618286
Cl5   Cl    Cl    0.421609 0.924620 0.363140 -0.703506
Cl6   Cl    Cl    0.575526 0.211947 0.633499 -0.705006
C73   C     C_3   0.784878 0.807198 0.680018 -0.745074
H23   H     H_    0.826069 0.823446 0.678263 0.206408
H24   H     H_    0.774416 0.665900 0.645030 0.222896
H25   H     H_    0.764683 0.918821 0.622709 0.227097
C74   C     C_3   0.214056 0.338909 0.313630 -0.743795
H26   H     H_    0.172506 0.342708 0.314250 0.204696
H27   H     H_    0.227849 0.201650 0.351912 0.225649
H28   H     H_    0.230841 0.457444 0.368665 0.226214
C75   C     C_3   0.671258 0.764752 0.618568 -0.698651
H29   H     H_    0.692550 0.638964 0.602291 0.217899
H30   H     H_    0.630567 0.738039 0.574353 0.216647
H31   H     H_    0.682559 0.890116 0.575691 0.222420
C76   C     C_3   0.327674 0.346350 0.379873 -0.695689
H32   H     H_    0.309271 0.225654 0.411667 0.224480
H33   H     H_    0.368717 0.338830 0.426668 0.219202
H34   H     H_    0.313300 0.480631 0.406679 0.216968
Cl7   Cl    Cl    0.722276 0.716848 0.212316 -0.676540
Cl8   Cl    Cl    0.277193 0.341048 0.762804 -0.669857
Cl9   Cl    Cl    0.161510 0.839379 0.767491 -0.625310
Cl10  Cl    Cl    0.834047 0.337173 0.233434 -0.619703

loop_
_geom_bond_atom_site_label_1
_geom_bond_atom_site_label_2
_ccdc_geom_bond_type
C44   C46   A    
C41   C43   A    
C9    C31   A    
C13   C15   A    
C50   C52   A    
C69   O18   A    
C65   H13   S    
C55   H21   S    
O1    C3    A    
O2    C4    A    
O16   V4    S    
C2    O7    A    
C5    C29   A    
C75   H29   S    
C5    C75   S    
O15   V3    S    
C44   C48   A    
C12   C14   A    
O5    C3    A    
O13   C69   A    
C52   C54   A    
C1    C36   S    
C13   Cl7   S    
O11   C71   A    
C10   C12   A    
O12   V3    S    
C12   H8    S    
C64   C66   A    
C9    H5    S    
C48   C56   A    
C15   C19   A    
O20   V3    S    
C38   C40   A    
C47   C49   A    
C41   H19   S    
C37   C45   A    
C7    C29   A    
C47   C55   A    
C49   C61   A    
C8    C30   A    
O20   V4    S    
C20   C28   A    
O19   V3    S    
C33   C41   A    
C8    C28   A    
C73   H25   S    
C34   C71   S    
C34   C42   A    
C58   H16   S    
O16   C72   A    
C40   Cl2   S    
C31   C70   S    
O15   C71   A    
C74   H28   S    
O5    V1    S    
O6    V2    S    
O14   V4    S    
C51   C53   A    
C2    C35   S    
O13   V3    S    
C62   C68   A    
C39   Cl1   S    
C59   C61   A    
H1    C29   S    
C23   C73   S    
C63   C65   A    
C10   H6    S    
C61   C67   A    
C76   H34   S    
C66   H14   S    
C37   C39   A    
C16   C20   A    
C16   C18   A    
C24   C74   S    
C58   C60   A    
C49   C51   A    
C43   C45   A    
C60   C64   A    
C4    C7    S    
C35   C65   A    
C26   H10   S    
C42   C44   A    
O4    V2    S    
C6    C76   S    
C11   H7    S    
C57   H15   S    
C6    C30   A    
O18   V4    S    
C76   H33   S    
C68   H12   S    
O6    C4    A    
O19   V4    S    
C38   H18   S    
C32   C69   S    
C27   H3    S    
C55   C57   A    
O1    V2    S    
C28   H4    S    
C73   H24   S    
O2    V1    S    
C36   C68   A    
C50   C62   A    
C35   C67   A    
C75   H31   S    
C7    C27   A    
C54   Cl10  S    
O4    C2    A    
C52   Cl4   S    
H2    C30   S    
C60   C62   A    
C64   Cl6   S    
C73   H23   S    
C37   H17   S    
O12   C72   A    
O11   V4    S    
C45   C53   A    
O3    V1    S    
C57   C59   A    
C74   H26   S    
C21   C23   A    
C18   C32   A    
O3    C1    A    
C36   C66   A    
C48   C50   A    
C53   Cl9   S    
C33   C72   S    
C46   C54   A    
C76   H32   S    
C3    C8    S    
C51   Cl3   S    
C70   O17   A    
O17   V3    S    
C19   C27   A    
C22   C24   A    
O7    V1    S    
C10   C32   A    
C1    O8    A    
C23   C25   A    
C34   C40   A    
C24   C26   A    
C25   H9    S    
O14   C70   A    
C43   C47   A    
C33   C39   A    
C14   C16   A    
C19   C21   A    
C20   C22   A    
C17   C25   A    
C63   Cl5   S    
C56   C58   A    
C18   C26   A    
C42   H20   S    
C9    C11   A    
C14   Cl8   S    
C38   C46   A    
C15   C17   A    
C67   H11   S    
C17   C31   A    
O9    V2    S    
C75   H30   S    
O10   V1    S    
O8    V2    S    
C56   H22   S    
C5    C21   A    
C6    C22   A    
C59   C63   A    
C74   H27   S    
C11   C13   A    
