data_mof_unit_62363.cif
_audit_creation_date              2013-03-05T16:33:28-0500
_audit_creation_method            fapswitch 2.2
_symmetry_space_group_name_H-M    P1
_symmetry_Int_Tables_number       1
_space_group_crystal_system       triclinic
_cell_length_a                    41.641576
_cell_length_b                    35.508805
_cell_length_c                    21.749265
_cell_angle_alpha                 89.370751
_cell_angle_beta                  121.620249
_cell_angle_gamma                 90.441701
_cell_volume                      27383.3379984

loop_
_atom_site_label
_atom_site_type_symbol
_atom_site_description
_atom_site_fract_x
_atom_site_fract_y
_atom_site_fract_z
_atom_type_partial_charge
O1    O     O_R   0.444560 0.531280 0.944560 -0.624724
O2    O     O_R   0.555440 0.531280 0.055440 -0.619802
O3    O     O_R   0.944560 0.031280 0.944560 -0.624810
O4    O     O_R   0.055440 0.031280 0.055440 -0.619857
O5    O     O_R   0.444540 0.468700 0.944530 -0.617409
O6    O     O_R   0.555460 0.468700 0.055470 -0.618969
O7    O     O_R   0.944540 0.968700 0.944530 -0.617344
O8    O     O_R   0.055460 0.968700 0.055470 -0.618944
C1    C     C_R   0.426610 0.499913 0.928070 0.884708
C2    C     C_R   0.573371 0.500019 0.071919 0.889922
C3    C     C_R   0.926614 0.999916 0.928061 0.884759
C4    C     C_R   0.073368 0.000020 0.071913 0.889915
O9    O     O_R   0.500010 0.531280 0.909540 -0.620816
O10   O     O_R   0.499990 0.531280 0.090460 -0.618725
O11   O     O_R   0.000010 0.031280 0.909540 -0.620894
O12   O     O_R   0.999990 0.031280 0.090460 -0.618791
O13   O     O_R   0.499990 0.468700 0.909520 -0.616412
O14   O     O_R   0.500010 0.468700 0.090480 -0.622290
O15   O     O_R   0.999990 0.968700 0.909520 -0.616346
O16   O     O_R   0.000010 0.968700 0.090480 -0.622219
C5    C     C_R   0.500717 0.500316 0.881632 0.948694
C6    C     C_R   0.498526 0.499722 0.117646 0.950775
C7    C     C_R   0.000718 0.000316 0.881632 0.948635
C8    C     C_R   0.998527 0.999722 0.117647 0.950702
Zn1   Zn    Zn3+2 0.500000 0.541780 0.000000 0.952894
Zn2   Zn    Zn3+2 1.000000 0.041780 0.000000 0.952651
Zn3   Zn    Zn3+2 0.500000 0.458200 0.000000 0.946400
Zn4   Zn    Zn3+2 1.000000 0.958200 0.000000 0.946792
C9    C     C_R   0.465914 0.673710 0.465609 -0.162876
C10   C     C_R   0.534327 0.673801 0.536263 -0.163238
C11   C     C_R   0.965958 0.173724 0.467756 -0.163417
C12   C     C_R   0.034369 0.173764 0.538334 -0.163281
H1    H     H_    0.439367 0.688771 0.438369 0.134840
H2    H     H_    0.560891 0.688936 0.563886 0.135059
H3    H     H_    0.939419 0.188800 0.440814 0.134141
H4    H     H_    0.060943 0.188874 0.566199 0.135039
C13   C     C_R   0.000189 0.385536 0.501200 -0.093526
C14   C     C_R   0.500130 0.885559 0.501053 -0.114331
C15   C     C_1   0.500146 0.733241 0.501798 -0.068064
C16   C     C_1   0.000239 0.233230 0.504791 -0.070866
C17   C     C_R   0.500086 0.614693 0.500174 -0.040098
C18   C     C_R   0.000100 0.114695 0.500928 -0.039927
C19   C     C_2   0.528860 0.479289 0.747991 0.222753
C20   C     C_2   0.476005 0.526450 0.258146 0.222080
C21   C     C_2   0.028856 0.979285 0.747987 0.222939
C22   C     C_2   0.975994 0.026441 0.258133 0.222226
C23   C     C_2   0.499433 0.491768 0.684510 -0.364313
C24   C     C_2   0.500984 0.505859 0.315917 -0.349843
C25   C     C_2   0.999432 0.991770 0.684508 -0.364321
C26   C     C_2   0.000984 0.005862 0.315916 -0.350043
H5    H     H_    0.472102 0.495659 0.678800 0.139247
H6    H     H_    0.525563 0.493899 0.318285 0.131629
H7    H     H_    0.972101 0.995665 0.678799 0.139207
H8    H     H_    0.025569 0.993916 0.318291 0.131537
C27   C     C_2   0.523288 0.475204 0.808684 -0.170670
C28   C     C_2   0.480619 0.528402 0.195853 -0.161836
C29   C     C_2   0.023282 0.975200 0.808678 -0.170721
C30   C     C_2   0.980611 0.028396 0.195843 -0.161999
C31   C     C_2   0.504611 0.501877 0.819944 -0.379079
C32   C     C_2   0.493298 0.498496 0.178006 -0.394524
C33   C     C_2   0.004613 0.001877 0.819946 -0.379096
C34   C     C_2   0.993301 0.998495 0.178008 -0.394516
H9    H     H_    0.536572 0.451935 0.846580 0.166226
H10   H     H_    0.472600 0.554056 0.163459 0.172607
H11   H     H_    0.036558 0.951924 0.846563 0.166219
H12   H     H_    0.972582 0.054046 0.163439 0.172555
H13   H     H_    0.495086 0.527307 0.786833 0.157451
H14   H     H_    0.497801 0.471595 0.205665 0.158916
H15   H     H_    0.995095 0.027310 0.786843 0.157399
H16   H     H_    0.997813 0.971596 0.205677 0.158953
C35   C     C_R   0.174178 0.472440 0.703048 -0.171078
C36   C     C_R   0.825553 0.473990 0.293667 -0.172896
C37   C     C_R   0.674251 0.973350 0.705353 -0.171108
C38   C     C_R   0.325517 0.974540 0.291869 -0.169051
H17   H     H_    0.190305 0.449714 0.740058 0.145873
H18   H     H_    0.809247 0.452576 0.253926 0.144560
H19   H     H_    0.690400 0.951201 0.743964 0.145772
H20   H     H_    0.309212 0.953663 0.250876 0.144127
C39   C     C_R   0.134845 0.470517 0.662686 0.166405
C40   C     C_R   0.864851 0.471807 0.333955 0.154656
C41   C     C_R   0.634928 0.971304 0.664949 0.168376
C42   C     C_R   0.364830 0.972258 0.332240 0.145574
C43   C     C_R   0.114316 0.500428 0.614508 -0.073905
C44   C     C_R   0.885630 0.500079 0.385484 -0.054634
C45   C     C_R   0.614358 0.000441 0.614595 -0.077458
C46   C     C_R   0.385601 0.999826 0.385462 -0.042934
C47   C     C_R   0.133588 0.531509 0.607212 0.038725
C48   C     C_R   0.866781 0.529542 0.396946 0.057246
C49   C     C_R   0.633633 0.030889 0.605339 0.039240
C50   C     C_R   0.366657 0.028507 0.398375 0.047006
C51   C     C_R   0.172818 0.532560 0.647882 -0.137738
C52   C     C_R   0.827358 0.530680 0.356478 -0.195821
C53   C     C_R   0.672857 0.032052 0.646119 -0.137806
C54   C     C_R   0.327328 0.029892 0.357830 -0.213238
H21   H     H_    0.187652 0.556368 0.642491 0.152756
H22   H     H_    0.812463 0.553104 0.364594 0.138785
H23   H     H_    0.687681 0.055361 0.639190 0.152709
H24   H     H_    0.312689 0.051951 0.367536 0.142015
C55   C     C_R   0.192869 0.503187 0.695442 0.058582
C56   C     C_R   0.807101 0.503143 0.305086 0.082377
C57   C     C_R   0.692917 0.003437 0.695728 0.058485
C58   C     C_R   0.307056 0.003098 0.304797 0.089556
C59   C     C_1   0.232938 0.504153 0.736192 -0.043872
C60   C     C_1   0.767029 0.504254 0.264356 -0.042651
C61   C     C_1   0.732978 0.004429 0.736425 -0.043986
C62   C     C_1   0.266996 0.004281 0.264068 -0.043747
C63   C     C_1   0.266626 0.504018 0.770776 -0.060144
C64   C     C_1   0.733336 0.504228 0.229656 -0.062151
C65   C     C_1   0.766662 0.004265 0.770963 -0.060149
C66   C     C_1   0.233307 0.004285 0.229382 -0.062771
C67   C     C_R   0.325418 0.475179 0.867059 0.123588
C68   C     C_R   0.674400 0.476943 0.131182 0.123501
C69   C     C_R   0.825412 0.975315 0.867118 0.123706
C70   C     C_R   0.174365 0.977033 0.130898 0.123575
C71   C     C_R   0.365148 0.473809 0.906694 0.176871
C72   C     C_R   0.634665 0.475596 0.091419 0.184811
C73   C     C_R   0.865136 0.973869 0.906684 0.176674
C74   C     C_R   0.134633 0.975662 0.091218 0.184770
C75   C     C_R   0.385378 0.499917 0.889627 -0.085347
C76   C     C_R   0.614572 0.500237 0.110292 -0.085334
C77   C     C_R   0.885387 0.999941 0.889609 -0.085247
C78   C     C_R   0.114560 0.000246 0.110228 -0.085131
C79   C     C_R   0.366072 0.527329 0.835862 -0.248629
C80   C     C_R   0.633971 0.526329 0.165874 -0.248586
C81   C     C_R   0.866113 0.027379 0.835883 -0.248618
C82   C     C_R   0.133968 0.026310 0.165858 -0.248725
H25   H     H_    0.381321 0.547542 0.822889 0.164447
H26   H     H_    0.618779 0.545445 0.180146 0.164716
H27   H     H_    0.881383 0.047564 0.822904 0.164380
H28   H     H_    0.118785 0.045385 0.180226 0.164513
C83   C     C_R   0.327018 0.528618 0.797426 -0.185804
C84   C     C_R   0.673038 0.527617 0.204470 -0.184741
C85   C     C_R   0.827066 0.028742 0.797515 -0.185918
C86   C     C_R   0.173031 0.027622 0.204375 -0.185247
H29   H     H_    0.312543 0.549753 0.755449 0.151884
H30   H     H_    0.687604 0.547673 0.247910 0.152021
H31   H     H_    0.812614 0.049899 0.755573 0.151785
H32   H     H_    0.187609 0.047650 0.247863 0.151508
C87   C     C_R   0.306772 0.502649 0.812476 0.066986
C88   C     C_R   0.693176 0.502988 0.187712 0.066198
C89   C     C_R   0.806799 0.002822 0.812597 0.067086
C90   C     C_R   0.193152 0.003048 0.187480 0.066608
C91   C     C_R   0.500129 0.693210 0.501274 0.158790
C92   C     C_R   0.000183 0.193196 0.503838 0.159403
C93   C     C_R   0.465845 0.634531 0.465005 -0.201798
C94   C     C_R   0.534352 0.634617 0.535753 -0.196147
C95   C     C_R   0.965869 0.134554 0.466258 -0.201912
C96   C     C_R   0.034374 0.134593 0.536930 -0.196423
C97   C     C_1   0.000332 0.266889 0.505078 -0.042470
C98   C     C_1   0.500171 0.766895 0.502063 -0.043677
C99   C     C_R   0.000511 0.306944 0.504633 0.079847
C100  C     C_R   0.500244 0.806939 0.502085 0.055806
H33   H     H_    0.439061 0.619834 0.437123 0.158328
H34   H     H_    0.561114 0.619984 0.563237 0.158329
H35   H     H_    0.939078 0.119879 0.438092 0.158063
H36   H     H_    0.061130 0.119947 0.564071 0.158191
O17   O     O_R   0.531280 0.444560 0.531260 -0.620931
O18   O     O_R   0.468720 0.444560 0.468740 -0.619581
O19   O     O_R   0.031280 0.944560 0.531260 -0.621059
O20   O     O_R   0.968720 0.944560 0.468740 -0.619461
C101  C     C_R   0.499936 0.426713 0.499540 0.899139
C102  C     C_R   0.999934 0.926713 0.499541 0.899203
O21   O     O_R   0.531280 0.499990 0.621740 -0.610882
O22   O     O_R   0.468720 0.499990 0.378260 -0.611391
O23   O     O_R   0.031280 0.999990 0.621740 -0.610910
O24   O     O_R   0.968720 0.999990 0.378260 -0.611319
O25   O     O_R   0.468680 0.499990 0.559140 -0.622587
O26   O     O_R   0.531320 0.499990 0.440860 -0.622530
O27   O     O_R   0.968680 0.999990 0.559140 -0.622659
O28   O     O_R   0.031320 0.999990 0.440860 -0.622658
C103  C     C_R   0.500067 0.497917 0.619279 0.944482
C104  C     C_R   0.500051 0.501724 0.380939 0.940916
C105  C     C_R   0.000067 0.997917 0.619279 0.944486
C106  C     C_R   0.000051 0.001725 0.380939 0.941112
Zn5   Zn    Zn3+2 0.541790 0.499990 0.541780 0.945952
Zn6   Zn    Zn3+2 0.458210 0.499990 0.458220 0.945885
Zn7   Zn    Zn3+2 0.041790 0.999990 0.541780 0.945329
Zn8   Zn    Zn3+2 0.958210 0.999990 0.458220 0.945693
O29   O     O_R   0.531300 0.555420 0.531300 -0.623805
O30   O     O_R   0.468700 0.555420 0.468700 -0.626652
O31   O     O_R   0.031300 0.055420 0.531300 -0.623879
O32   O     O_R   0.968700 0.055420 0.468700 -0.626668
C107  C     C_R   0.500034 0.573448 0.499956 0.866679
C108  C     C_R   0.000035 0.073451 0.500063 0.866541
O33   O     O_R   0.999980 0.444660 0.448930 -0.635068
O34   O     O_R   0.000020 0.444660 0.551070 -0.591555
O35   O     O_R   0.499980 0.944660 0.448930 -0.624665
O36   O     O_R   0.500020 0.944660 0.551070 -0.626722
C109  C     C_R   0.000228 0.426742 0.500495 0.858121
C110  C     C_R   0.500018 0.926747 0.500312 0.842152
O37   O     O_R   0.055440 0.500090 0.504360 -0.629196
O38   O     O_R   0.944560 0.500090 0.495640 -0.593929
O39   O     O_R   0.555440 0.000090 0.504360 -0.629493
O40   O     O_R   0.444560 0.000090 0.495640 -0.605638
O41   O     O_R   0.055430 0.500110 0.606490 -0.608584
O42   O     O_R   0.944570 0.500110 0.393510 -0.616537
O43   O     O_R   0.555430 0.000110 0.606490 -0.606877
O44   O     O_R   0.444570 0.000110 0.393510 -0.614125
C111  C     C_R   0.073253 0.500039 0.573289 0.861682
C112  C     C_R   0.926729 0.499693 0.426693 0.889309
C113  C     C_R   0.573269 0.999998 0.573312 0.865618
C114  C     C_R   0.426716 0.999646 0.426678 0.905830
Zn9   Zn    Zn3+2 1.000000 0.500080 0.431790 0.938400
Zn10  Zn    Zn3+2 1.000000 0.500080 0.568210 0.981208
Zn11  Zn    Zn3+2 0.500000 0.000080 0.431790 0.941068
Zn12  Zn    Zn3+2 0.500000 0.000080 0.568210 0.954420
O45   O     O_R   0.000010 0.555520 0.448910 -0.625799
O46   O     O_R   0.999990 0.555520 0.551090 -0.619779
O47   O     O_R   0.500010 0.055520 0.448910 -0.626898
O48   O     O_R   0.499990 0.055520 0.551090 -0.617720
C115  C     C_R   0.999917 0.573523 0.499555 0.880328
C116  C     C_R   0.499929 0.073526 0.499570 0.894813
C117  C     C_R   0.998441 0.673683 0.438936 0.121235
C118  C     C_R   0.998169 0.673947 0.551096 0.085856
C119  C     C_R   0.499668 0.173680 0.440219 0.101981
C120  C     C_R   0.496703 0.174117 0.549617 0.099938
C121  C     C_R   0.999103 0.634312 0.441246 -0.240450
C122  C     C_R   0.998920 0.634763 0.552643 -0.180622
C123  C     C_R   0.500340 0.134326 0.442558 -0.237438
C124  C     C_R   0.497638 0.134746 0.551336 -0.234482
H37   H     H_    0.999465 0.619007 0.398808 0.162344
H38   H     H_    0.999103 0.620036 0.596725 0.176567
H39   H     H_    0.501745 0.119029 0.401212 0.161041
H40   H     H_    0.496810 0.119762 0.594140 0.161562
C125  C     C_R   0.999390 0.614755 0.497941 -0.120742
C126  C     C_R   0.499393 0.114765 0.497962 -0.094393
C127  C     C_R   0.997891 0.693391 0.494038 0.085959
C128  C     C_R   0.497779 0.193381 0.493897 0.111814
C129  C     C_1   0.997423 0.733554 0.492424 -0.046061
C130  C     C_1   0.497445 0.233548 0.492415 -0.010355
C131  C     C_1   0.497545 0.267178 0.492197 -0.034892
C132  C     C_1   0.997465 0.767182 0.492157 -0.038974
C133  C     C_R   0.481264 0.327619 0.429130 -0.157700
C134  C     C_R   0.515930 0.325327 0.559924 -0.153952
C135  C     C_R   0.981221 0.827625 0.429105 -0.153699
C136  C     C_R   0.015817 0.825321 0.559896 -0.161821
H41   H     H_    0.467770 0.312828 0.378146 0.148391
H42   H     H_    0.528922 0.308778 0.609403 0.149285
H43   H     H_    0.967744 0.812838 0.378118 0.149015
H44   H     H_    0.028774 0.808765 0.609367 0.141196
C137  C     C_R   0.481743 0.366973 0.430232 0.137059
C138  C     C_R   0.516955 0.364588 0.562742 0.145144
C139  C     C_R   0.981740 0.866978 0.430222 0.134983
C140  C     C_R   0.016885 0.864582 0.562729 0.149344
C141  C     C_R   0.499653 0.385607 0.497537 -0.056937
C142  C     C_R   0.999638 0.885607 0.497533 -0.057496
C143  C     C_R   0.498182 0.307166 0.493613 0.049056
C144  C     C_R   0.998084 0.807167 0.493579 0.053800
C145  C     C_R   0.975974 0.326461 0.518186 -0.199025
C146  C     C_R   0.024937 0.326171 0.489620 -0.139805
C147  C     C_R   0.474163 0.826136 0.511724 -0.139686
C148  C     C_R   0.526263 0.826501 0.491942 -0.139950
H45   H     H_    0.957042 0.310970 0.529393 0.136956
H46   H     H_    0.043981 0.310681 0.479365 0.150793
H47   H     H_    0.453913 0.810619 0.519208 0.151325
H48   H     H_    0.546465 0.811269 0.484587 0.151445
C149  C     C_R   0.975500 0.365878 0.516546 0.083709
C150  C     C_R   0.025016 0.365355 0.487575 0.047684
C151  C     C_R   0.473892 0.865356 0.511594 0.062726
C152  C     C_R   0.526392 0.865710 0.490947 0.062859
N1    N     N_3   0.304226 0.448543 0.882080 -0.469606
H49   H     H_    0.287462 0.463392 0.896189 0.187635
H50   H     H_    0.286513 0.433425 0.835051 0.187577
N2    N     N_3   0.695459 0.451725 0.114300 -0.470188
H51   H     H_    0.712319 0.467737 0.101347 0.186972
H52   H     H_    0.713075 0.435481 0.160195 0.186874
N3    N     N_3   0.804189 0.948725 0.882153 -0.469616
H53   H     H_    0.787474 0.963611 0.896333 0.187264
H54   H     H_    0.786428 0.933639 0.835109 0.187801
N4    N     N_3   0.195410 0.951871 0.113884 -0.470141
H55   H     H_    0.212242 0.967926 0.100922 0.186783
H56   H     H_    0.213054 0.935602 0.159723 0.187306
C153  C     C_3   0.385723 0.445693 0.967979 -0.849366
H57   H     H_    0.366816 0.430741 0.981750 0.252274
H58   H     H_    0.399501 0.424098 0.953019 0.250569
H59   H     H_    0.407339 0.460419 0.017566 0.227940
C154  C     C_3   0.613897 0.449166 0.028062 -0.866771
H60   H     H_    0.632719 0.435375 0.013352 0.252429
H61   H     H_    0.599813 0.426595 0.041183 0.251793
H62   H     H_    0.592495 0.465074 0.979628 0.221793
C155  C     C_3   0.885686 0.945716 0.967910 -0.849118
H63   H     H_    0.866768 0.930767 0.981655 0.252309
H64   H     H_    0.899440 0.924120 0.952898 0.250678
H65   H     H_    0.907320 0.960410 0.017523 0.227912
C156  C     C_3   0.113845 0.949268 0.027807 -0.866873
H66   H     H_    0.132649 0.935510 0.013016 0.252401
H67   H     H_    0.099778 0.926671 0.040911 0.251870
H68   H     H_    0.092425 0.965199 0.979428 0.221760
N5    N     N_3   0.998095 0.693800 0.380828 -0.454287
H69   H     H_    0.024000 0.707695 0.402435 0.184673
H70   H     H_    0.996360 0.675033 0.342476 0.178122
N6    N     N_3   0.997719 0.693430 0.608009 -0.463324
H71   H     H_    0.021264 0.711181 0.633172 0.186644
H72   H     H_    0.973496 0.710137 0.585086 0.191311
N7    N     N_3   0.500695 0.193809 0.383520 -0.457827
H73   H     H_    0.526681 0.207700 0.406864 0.184606
H74   H     H_    0.499845 0.175050 0.345962 0.180234
N8    N     N_3   0.494976 0.194726 0.604375 -0.458376
H75   H     H_    0.468511 0.207582 0.579766 0.183507
H76   H     H_    0.496508 0.176365 0.643745 0.180037
C157  C     C_3   0.463989 0.388487 0.359700 -0.889504
H77   H     H_    0.453588 0.369353 0.312890 0.233948
H78   H     H_    0.439613 0.405007 0.351988 0.259402
H79   H     H_    0.485054 0.407860 0.359693 0.229657
C158  C     C_3   0.535824 0.383444 0.635224 -0.917752
H80   H     H_    0.545632 0.362704 0.680141 0.239623
H81   H     H_    0.560789 0.399470 0.643722 0.253549
H82   H     H_    0.515673 0.402793 0.637578 0.235728
C159  C     C_3   0.964042 0.888497 0.359701 -0.889419
H83   H     H_    0.953645 0.869366 0.312890 0.234000
H84   H     H_    0.939673 0.905049 0.351942 0.259532
H85   H     H_    0.985142 0.907844 0.359753 0.229697
C160  C     C_3   0.035745 0.883434 0.635213 -0.918882
H86   H     H_    0.045520 0.862695 0.680121 0.238908
H87   H     H_    0.060731 0.899435 0.643748 0.253315
H88   H     H_    0.015603 0.902808 0.637537 0.235771
C161  C     C_3   0.567152 0.469891 0.760665 -0.830700
H89   H     H_    0.586014 0.458444 0.816026 0.219330
H90   H     H_    0.564601 0.448415 0.721889 0.242020
H91   H     H_    0.580685 0.495691 0.755132 0.250862
C162  C     C_3   0.445270 0.549495 0.256599 -0.839699
H92   H     H_    0.430333 0.566985 0.206704 0.220189
H93   H     H_    0.424097 0.530658 0.257379 0.252967
H94   H     H_    0.457529 0.568641 0.303710 0.231757
C163  C     C_3   0.067146 0.969880 0.760659 -0.831214
H95   H     H_    0.086006 0.958429 0.816018 0.219278
H96   H     H_    0.064592 0.948406 0.721877 0.242026
H97   H     H_    0.080684 0.995678 0.755134 0.250849
C164  C     C_3   0.945244 0.049466 0.256565 -0.840045
H98   H     H_    0.930298 0.066948 0.206660 0.220119
H99   H     H_    0.924080 0.030616 0.257348 0.252981
H100  H     H_    0.957488 0.068619 0.303666 0.231690
N9    N     N_3   0.949619 0.386052 0.528968 -0.428364
H101  H     H_    0.934789 0.367444 0.542832 0.178766
H102  H     H_    0.929664 0.398816 0.480159 0.175868
N10   N     N_3   0.051266 0.383825 0.473473 -0.460014
H103  H     H_    0.036228 0.398442 0.424452 0.214371
H104  H     H_    0.067252 0.402988 0.514778 0.188480
N11   N     N_3   0.445990 0.883853 0.520093 -0.460409
H105  H     H_    0.459576 0.898999 0.568200 0.213313
H106  H     H_    0.430940 0.902593 0.476921 0.183912
N12   N     N_3   0.554010 0.884546 0.481204 -0.460455
H107  H     H_    0.540178 0.899482 0.432400 0.214241
H108  H     H_    0.569009 0.903497 0.523430 0.187224
C165  C     C_3   0.116451 0.435843 0.671736 -0.911334
H109  H     H_    0.085481 0.435059 0.634323 0.241383
H110  H     H_    0.128110 0.410331 0.661354 0.236751
H111  H     H_    0.122566 0.434398 0.727907 0.249685
C166  C     C_3   0.882934 0.438413 0.321551 -0.920108
H112  H     H_    0.913641 0.436284 0.360933 0.242896
H113  H     H_    0.869964 0.411998 0.326486 0.233362
H114  H     H_    0.878136 0.440160 0.266345 0.251169
C167  C     C_3   0.616638 0.937274 0.676381 -0.915044
H115  H     H_    0.585713 0.936064 0.638704 0.243882
H116  H     H_    0.628576 0.911250 0.668329 0.236747
H117  H     H_    0.622533 0.937245 0.732433 0.249082
C168  C     C_3   0.382895 0.939497 0.318053 -0.916307
H118  H     H_    0.413536 0.936994 0.357681 0.242401
H119  H     H_    0.369699 0.912775 0.320985 0.237762
H120  H     H_    0.378367 0.942410 0.263175 0.251240
N13   N     N_3   0.113940 0.562758 0.560276 -0.460470
H121  H     H_    0.098343 0.553099 0.507186 0.207564
H122  H     H_    0.095309 0.573664 0.574083 0.180579
N14   N     N_3   0.887887 0.558411 0.448894 -0.434365
H123  H     H_    0.869740 0.576910 0.453151 0.182189
H124  H     H_    0.901956 0.574273 0.429298 0.174143
N15   N     N_3   0.614014 0.061454 0.556349 -0.460455
H125  H     H_    0.598687 0.050936 0.503868 0.208088
H126  H     H_    0.595176 0.073027 0.568996 0.180703
N16   N     N_3   0.387435 0.056753 0.451552 -0.450175
H127  H     H_    0.380195 0.083063 0.425794 0.182017
H128  H     H_    0.378839 0.056073 0.488907 0.189466

loop_
_geom_bond_atom_site_label_1
_geom_bond_atom_site_label_2
_geom_bond_distance
_ccdc_geom_bond_type
O26   Zn5   2.001093 S    
C55   C59   1.421202 S    
C30   C34   1.337776 D    
C168  H118  1.107096 S    
C27   C31   1.333420 D    
C47   N13   1.433917 S    
C25   C105  1.446895 S    
C67   C87   1.408310 A    
N9    H101  1.045668 S    
C155  H65   1.110843 S    
C145  H45   1.084149 S    
C15   C98   1.195084 T    
C21   C29   1.460743 S    
C137  C141  1.416258 A    
C13   C149  1.413930 A    
C5    C31   1.433794 S    
C47   C51   1.391795 A    
C6    C32   1.439070 S    
C9    H1    1.083741 S    
C56   C60   1.421611 S    
C153  H59   1.110844 S    
O39   C113  1.277744 A    
C34   H16   1.086899 S    
C119  C128  1.404849 A    
C133  H41   1.084471 S    
C67   N1    1.436234 S    
C119  N7    1.438364 S    
Zn10  O46   1.999449 S    
C14   C110  1.462451 S    
C10   C94   1.391542 A    
O4    C4    1.281165 A    
C95   H35   1.082973 S    
C140  C160  1.505649 S    
C46   C114  1.457930 S    
C11   C95   1.391543 A    
C37   C57   1.393609 A    
O43   Zn12  2.001455 S    
O37   Zn9   2.000019 S    
C18   C95   1.405160 A    
C37   C41   1.396253 A    
C167  H116  1.110679 S    
C121  H37   1.083150 S    
O24   C106  1.276127 A    
C138  C141  1.414570 A    
C46   C50   1.410478 A    
C53   C57   1.392238 A    
N12   H107  1.044505 S    
O25   C103  1.277226 A    
O16   Zn4   2.006686 S    
C157  H77   1.110836 S    
C35   C55   1.393940 A    
C22   C164  1.509651 S    
O13   C5    1.277877 A    
O7    Zn4   2.002473 S    
C161  H91   1.109991 S    
O15   C7    1.277875 A    
C69   N3    1.436240 S    
C134  C143  1.391937 A    
C117  N5    1.438381 S    
C71   C153  1.514574 S    
O4    Zn2   2.001770 S    
C94   H34   1.082966 S    
O38   Zn10  2.000018 S    
O9    C5    1.269678 A    
C165  H111  1.110231 S    
C135  C139  1.397652 A    
Zn8   O32   2.002248 S    
C68   N2    1.436168 S    
C168  H120  1.110147 S    
O8    Zn4   2.000769 S    
N4    H56   1.045615 S    
N8    H75   1.045564 S    
C148  C152  1.392208 A    
N1    H50   1.045614 S    
O28   C106  1.271923 A    
C157  H79   1.110659 S    
O3    Zn2   2.000080 S    
C131  C143  1.420347 S    
C44   C48   1.412923 A    
N10   H103  1.044531 S    
O11   Zn2   2.006688 S    
C14   C152  1.417169 A    
C23   C103  1.446901 S    
C29   C33   1.333420 D    
C75   C79   1.400880 A    
N6    H72   1.045665 S    
C155  H63   1.108480 S    
C156  H67   1.109464 S    
C25   H7    1.087950 S    
O38   C112  1.277862 A    
C12   C92   1.396192 A    
O3    C3    1.281536 A    
C81   H27   1.083720 S    
C24   H6    1.086977 S    
C82   C86   1.385913 A    
C37   H19   1.085107 S    
C162  H92   1.110685 S    
C82   H28   1.083760 S    
C59   C63   1.194708 T    
C19   C23   1.350950 D    
C20   C24   1.347764 D    
O40   C114  1.278175 A    
C102  C142  1.460504 S    
C166  H112  1.107271 S    
O23   Zn7   2.003494 S    
C136  C144  1.391936 A    
O21   Zn5   2.003494 S    
C35   C39   1.396389 A    
N16   H127  1.045615 S    
C160  H86   1.110829 S    
N7    H74   1.045686 S    
O5    C1    1.279772 A    
C120  C128  1.405990 A    
C12   H4    1.083736 S    
C129  C132  1.194022 T    
C97   C99   1.422245 S    
N1    H49   1.045622 S    
C160  H87   1.109289 S    
C118  N6    1.433337 S    
C52   H22   1.084148 S    
N14   H123  1.045689 S    
C80   C84   1.385994 A    
C17   C93   1.405129 A    
O36   C110  1.280070 A    
C74   C78   1.418870 A    
C163  H96   1.105887 S    
C74   C156  1.514538 S    
C31   H13   1.087663 S    
O5    Zn3   2.002473 S    
C17   C94   1.405000 A    
N2    H51   1.045610 S    
C158  H81   1.109285 S    
C27   H9    1.087238 S    
O44   C114  1.278798 A    
C28   H10   1.087009 S    
O8    C4    1.279504 A    
C139  C142  1.416263 A    
C154  H60   1.108484 S    
C22   C30   1.465593 S    
O45   C115  1.281375 A    
C164  H99   1.109672 S    
C130  C131  1.194095 T    
C99   C146  1.392804 A    
O41   C111  1.278396 A    
C159  H84   1.109544 S    
O39   Zn11  2.000019 S    
C10   H2    1.083732 S    
O13   Zn3   1.998640 S    
C118  C122  1.391618 A    
C133  C143  1.392893 A    
C18   C108  1.464816 S    
C72   C76   1.418929 A    
C132  C144  1.420261 S    
O20   C102  1.276804 A    
C77   C81   1.400881 A    
O15   Zn4   1.998640 S    
Zn12  O48   1.999449 S    
C79   H25   1.083712 S    
O26   C104  1.271913 A    
C84   H30   1.083948 S    
C162  H94   1.110941 S    
C29   H11   1.087235 S    
O35   Zn11  1.998948 S    
N5    H69   1.045586 S    
C124  C126  1.401465 A    
C118  C127  1.408221 A    
C54   C58   1.392460 A    
C134  C138  1.395472 A    
C69   C73   1.409682 A    
C19   C27   1.460747 S    
C127  C129  1.426225 S    
C166  H114  1.110158 S    
C71   C75   1.419566 A    
C158  H82   1.110617 S    
O22   C104  1.276130 A    
C166  H113  1.110751 S    
C53   H23   1.084333 S    
C135  C144  1.392874 A    
C68   C72   1.409695 A    
O18   Zn6   2.004072 S    
C61   C65   1.194550 T    
C8    C34   1.439061 S    
O14   C6    1.272787 A    
C120  C124  1.398393 A    
N3    H53   1.045622 S    
O1    Zn1   2.000080 S    
O33   C109  1.278672 A    
C155  H64   1.109542 S    
O48   C116  1.282840 A    
C38   C58   1.394038 A    
O10   C6    1.277190 A    
C154  H61   1.109464 S    
C36   C40   1.395923 A    
Zn7   O31   2.003946 S    
C153  H58   1.109540 S    
C140  C142  1.414567 A    
C123  C126  1.402498 A    
C49   C53   1.391726 A    
O32   C108  1.281127 A    
C150  N10   1.433560 S    
C21   C163  1.508387 S    
Zn6   O30   2.002248 S    
C154  H62   1.110560 S    
O27   C105  1.277221 A    
C65   C89   1.424560 S    
C51   C55   1.392511 A    
C41   C45   1.417290 A    
C121  C125  1.403146 A    
C146  H46   1.084445 S    
C43   C47   1.415351 A    
C149  N9    1.438445 S    
C100  C148  1.393101 A    
C85   H31   1.083966 S    
C40   C44   1.416687 A    
C18   C96   1.405029 A    
C128  C130  1.426296 S    
C167  H115  1.106823 S    
N13   H122  1.045729 S    
O36   Zn12  2.007004 S    
C26   H8    1.086981 S    
C41   C167  1.509908 S    
C9    C93   1.391369 A    
N12   H108  1.044992 S    
C152  N12   1.433673 S    
C54   H24   1.084255 S    
C81   C85   1.385665 A    
C9    C91   1.396023 A    
O47   C116  1.281478 A    
C19   C161  1.508393 S    
C134  H42   1.084709 S    
C161  H90   1.105886 S    
C68   C88   1.408586 A    
O35   C110  1.279067 A    
O18   C101  1.276849 A    
C147  C151  1.392765 A    
O24   Zn8   2.003494 S    
C165  H110  1.110656 S    
O21   C103  1.274096 A    
C49   N15   1.433936 S    
C45   C113  1.457032 S    
C80   H26   1.083752 S    
C116  C126  1.464465 S    
N9    H102  1.045534 S    
C168  H119  1.110740 S    
O44   Zn11  2.001472 S    
N8    H76   1.045684 S    
C38   C42   1.396705 A    
C70   N4    1.436171 S    
C42   C168  1.509680 S    
C50   C54   1.395744 A    
C157  H78   1.109540 S    
O12   Zn2   1.998642 S    
C39   C165  1.509830 S    
O28   Zn7   2.001093 S    
O1    C1    1.281671 A    
C13   C150  1.416881 A    
N10   H104  1.045266 S    
N7    H73   1.045574 S    
C45   C49   1.415959 A    
C23   H5    1.087949 S    
O41   Zn10  2.001455 S    
C42   C46   1.417131 A    
C28   C32   1.337789 D    
C156  H66   1.108482 S    
C117  C127  1.404968 A    
C119  C123  1.397732 A    
C86   C90   1.392693 A    
C20   C28   1.465599 S    
C147  H47   1.084364 S    
N11   H105  1.044512 S    
C21   C25   1.350942 D    
O19   C102  1.278261 A    
N15   H126  1.045734 S    
O42   Zn9   2.001472 S    
C151  N11   1.433612 S    
C48   N14   1.438787 S    
C11   H3    1.083730 S    
O17   C101  1.278213 A    
C60   C64   1.194872 T    
C167  H117  1.110230 S    
O31   C108  1.281525 A    
N6    H71   1.045676 S    
C79   C83   1.385804 A    
C135  H43   1.084479 S    
C145  C149  1.399751 A    
O6    C2    1.279533 A    
N16   H128  1.045548 S    
C12   C96   1.391590 A    
C84   C88   1.392730 A    
C85   C89   1.392370 A    
O33   Zn9   1.998948 S    
O34   C109  1.280716 A    
C39   C43   1.416709 A    
N3    H54   1.045612 S    
C20   C162  1.509659 S    
O46   C115  1.282846 A    
C139  C159  1.509025 S    
N14   H124  1.045735 S    
C16   C97   1.195242 T    
O22   Zn6   2.003494 S    
O2    Zn1   2.001770 S    
O10   Zn1   1.998642 S    
C73   C155  1.514567 S    
C163  H95   1.111044 S    
C2    C76   1.462409 S    
C10   C91   1.396175 A    
C123  H39   1.083256 S    
C7    C33   1.433798 S    
C4    C78   1.462167 S    
C32   H14   1.086898 S    
N2    H52   1.045613 S    
C158  H80   1.110830 S    
C38   H20   1.085095 S    
N4    H55   1.045606 S    
C17   C107  1.464577 S    
C96   H36   1.082965 S    
C120  N8    1.438357 S    
C13   C109  1.463064 S    
C164  H98   1.110686 S    
N15   H125  1.044732 S    
O42   C112  1.278609 A    
C14   C151  1.417006 A    
C99   C145  1.393677 A    
C159  H83   1.110833 S    
C44   C112  1.457458 S    
O7    C3    1.279780 A    
C70   C90   1.408570 A    
C72   C154  1.514539 S    
O37   C111  1.277352 A    
C156  H68   1.110551 S    
C83   H29   1.083961 S    
O23   C105  1.274097 A    
C11   C92   1.396108 A    
C66   C90   1.424881 S    
C73   C77   1.419497 A    
C24   C104  1.440804 S    
C30   H12   1.087009 S    
O16   C8    1.272779 A    
C69   C89   1.408315 A    
C162  H93   1.109673 S    
O43   C113  1.278565 A    
C122  C125  1.401347 A    
O30   C107  1.281030 A    
C148  H48   1.084387 S    
C93   H33   1.082978 S    
O11   C7    1.269683 A    
O12   C8    1.277194 A    
C63   C87   1.424818 S    
O9    Zn1   2.006688 S    
C3    C77   1.463250 S    
O19   Zn7   2.002379 S    
C122  H38   1.083562 S    
O29   C107  1.281499 A    
C50   N16   1.433529 S    
C57   C61   1.420956 S    
O40   Zn12  2.000018 S    
C48   C52   1.398723 A    
C83   C87   1.392461 A    
C64   C88   1.425088 S    
C117  C121  1.398315 A    
C160  H88   1.110622 S    
Zn5   O29   2.003946 S    
C40   C166  1.509880 S    
Zn9   O45   2.007479 S    
C136  H44   1.084743 S    
C78   C82   1.400467 A    
C163  H97   1.109991 S    
O6    Zn3   2.000769 S    
Zn11  O47   2.007479 S    
C138  C158  1.505676 S    
O20   Zn8   2.004072 S    
C153  H57   1.108481 S    
O34   Zn10  2.007004 S    
C36   H18   1.085094 S    
C70   C74   1.409617 A    
O17   Zn5   2.002379 S    
C133  C137  1.397663 A    
N11   H106  1.045408 S    
C15   C91   1.421612 S    
C16   C92   1.421883 S    
C1    C75   1.463486 S    
C164  H100  1.110938 S    
C98   C100  1.421867 S    
C43   C111  1.456102 S    
O2    C2    1.281267 A    
O27   Zn8   2.001095 S    
C124  H40   1.083275 S    
C52   C56   1.392701 A    
C137  C157  1.509030 S    
C36   C56   1.393457 A    
C159  H85   1.110667 S    
C33   H15   1.087664 S    
O14   Zn3   2.006686 S    
C86   H32   1.083951 S    
N13   H121  1.044805 S    
C22   C26   1.347770 D    
C26   C106  1.440817 S    
C136  C140  1.395492 A    
C101  C141  1.460508 S    
C35   H17   1.085074 S    
N5    H70   1.045633 S    
C58   C62   1.421271 S    
C161  H89   1.111045 S    
C51   H21   1.084319 S    
C62   C66   1.194742 T    
C115  C125  1.464189 S    
C67   C71   1.409742 A    
C165  H109  1.107098 S    
C146  C150  1.391648 A    
C100  C147  1.393363 A    
C76   C80   1.400498 A    
O25   Zn6   2.001095 S    
