data_mof_unit_62577.cif
_audit_creation_date              2012-10-26T17:17:15-0400
_audit_creation_method            fapswitch 2.2
_symmetry_space_group_name_H-M    P1
_symmetry_Int_Tables_number       1
_space_group_crystal_system       triclinic
_cell_length_a                    30.746784
_cell_length_b                    30.828015
_cell_length_c                    24.692314
_cell_angle_alpha                 89.999955
_cell_angle_beta                  128.130605
_cell_angle_gamma                 90.0
_cell_volume                      18410.4297456

loop_
_atom_site_label
_atom_site_type_symbol
_atom_type_description
_atom_site_fract_x
_atom_site_fract_y
_atom_site_fract_z
_atom_type_partial_charge
C1    C     C_R   0.691081 0.190793 0.500462 0.560117
C2    C     C_R   0.535633 0.251309 0.069902 0.340579
C3    C     C_R   0.597391 0.823515 0.617118 -0.099951
C4    C     C_R   0.918849 0.359406 0.425737 -0.095345
C5    C     C_R   0.081151 0.359406 0.574264 -0.095345
C6    C     C_R   0.418849 0.859406 0.425737 -0.095345
C7    C     C_R   0.581151 0.859406 0.574264 -0.095345
C8    C     C_R   0.895730 0.367420 0.459679 -0.014635
C9    C     C_R   0.104270 0.367420 0.540321 -0.014635
C10   C     C_R   0.395730 0.867420 0.459679 -0.014635
C11   C     C_R   0.604270 0.867420 0.540321 -0.014635
C12   C     C_R   0.858731 0.336615 0.453579 0.018815
C13   C     C_R   0.964367 0.751309 0.930098 0.340579
C14   C     C_R   0.141269 0.336615 0.546420 0.018815
C15   C     C_R   0.358731 0.836615 0.453579 0.018816
C16   C     C_R   0.641269 0.836615 0.546420 0.018815
C17   C     C_R   0.839882 0.342334 0.493008 -0.037728
C18   C     C_R   0.160118 0.342334 0.506992 -0.037728
C19   C     C_R   0.339882 0.842334 0.493008 -0.037728
C20   C     C_R   0.660118 0.842335 0.506992 -0.037728
C21   C     C_R   0.854447 0.379379 0.533393 -0.103896
C22   C     C_R   0.145552 0.379379 0.466607 -0.103896
C23   C     C_R   0.354448 0.879379 0.533393 -0.103896
C24   C     C_R   0.035633 0.751309 0.069902 0.340579
C25   C     C_R   0.645552 0.879379 0.466607 -0.103896
C26   C     C_R   0.888135 0.410786 0.536603 0.211549
C27   C     C_R   0.111865 0.410786 0.463397 0.211550
C28   C     C_R   0.388135 0.910786 0.536603 0.211550
C29   C     C_R   0.611865 0.910786 0.463397 0.211550
C30   C     C_R   0.908929 0.405190 0.499910 0.006318
C31   C     C_R   0.091072 0.405190 0.500090 0.006318
C32   C     C_R   0.408929 0.905190 0.499910 0.006317
C33   C     C_R   0.591072 0.905190 0.500090 0.006318
C34   C     C_R   0.058904 0.440014 0.499862 0.546626
C35   C     C_R   0.698368 0.177152 0.620954 -0.061190
C36   C     C_R   0.941096 0.440014 0.500138 0.546626
C37   C     C_R   0.558904 0.940014 0.499862 0.546626
C38   C     C_R   0.441096 0.940014 0.500138 0.546626
C39   C     C_R   0.816700 0.250372 0.632812 0.558182
C40   C     C_R   0.183300 0.250372 0.367188 0.558182
C41   C     C_R   0.316700 0.750372 0.632812 0.558182
C42   C     C_R   0.683300 0.750372 0.367188 0.558182
C43   C     C_R   0.558201 0.061034 0.499825 0.649506
C44   C     C_R   0.441799 0.061034 0.500175 0.649507
C45   C     C_R   0.058201 0.561034 0.499825 0.649506
C46   C     C_R   0.301632 0.177152 0.379046 -0.061190
C47   C     C_R   0.941799 0.561034 0.500175 0.649506
C48   C     C_R   0.649896 0.218266 0.253983 -0.142529
C49   C     C_R   0.350104 0.218266 0.746017 -0.142528
C50   C     C_R   0.149896 0.718266 0.253983 -0.142528
C51   C     C_R   0.850104 0.718265 0.746017 -0.142528
C52   C     C_R   0.613286 0.218073 0.182015 -0.122191
C53   C     C_R   0.386714 0.218073 0.817985 -0.122191
C54   C     C_R   0.113286 0.718073 0.182015 -0.122191
C55   C     C_R   0.886714 0.718073 0.817985 -0.122192
C56   C     C_R   0.574145 0.251343 0.145878 0.033825
C57   C     C_R   0.198368 0.677152 0.620954 -0.061190
C58   C     C_R   0.425855 0.251343 0.854122 0.033825
C59   C     C_R   0.074145 0.751343 0.145878 0.033825
C60   C     C_R   0.925855 0.751343 0.854122 0.033825
C61   C     C_R   0.571993 0.284647 0.182920 -0.112155
C62   C     C_R   0.428007 0.284648 0.817079 -0.112154
C63   C     C_R   0.071992 0.784648 0.182920 -0.112155
C64   C     C_R   0.928007 0.784648 0.817079 -0.112155
C65   C     C_R   0.607532 0.284185 0.254868 -0.128695
C66   C     C_R   0.392468 0.284185 0.745132 -0.128695
C67   C     C_R   0.107532 0.784184 0.254868 -0.128695
C68   C     C_R   0.801631 0.677152 0.379046 -0.061190
C69   C     C_R   0.892468 0.784185 0.745132 -0.128695
C70   C     C_3   0.820602 0.298491 0.842965 0.021642
C71   C     C_3   0.814296 0.327928 0.887137 -0.337928
C72   C     C_3   0.179398 0.298492 0.157036 0.021642
C73   C     C_3   0.185703 0.327929 0.112863 -0.337928
C74   C     C_3   0.320602 0.798490 0.842965 0.021642
C75   C     C_3   0.314296 0.827928 0.887137 -0.337929
C76   C     C_3   0.679398 0.798490 0.157035 0.021643
C77   C     C_3   0.685705 0.827928 0.112863 -0.337929
C78   C     C_3   0.582084 0.164370 0.339821 0.012233
C79   C     C_R   0.695536 0.176679 0.674961 0.224532
C80   C     C_3   0.563892 0.152954 0.268622 -0.322985
C81   C     C_3   0.417916 0.164370 0.660179 0.012234
C82   C     C_3   0.436107 0.152954 0.731378 -0.322986
C83   C     C_3   0.082084 0.664370 0.339821 0.012234
C84   C     C_3   0.063892 0.652954 0.268622 -0.322986
C85   C     C_3   0.917916 0.664370 0.660179 0.012233
C86   C     C_3   0.936108 0.652954 0.731378 -0.322986
C87   C     C_R   0.304464 0.176679 0.325039 0.224532
C88   C     C_R   0.195536 0.676679 0.674961 0.224532
C89   C     C_R   0.308918 0.190793 0.499538 0.560116
C90   C     C_R   0.804463 0.676678 0.325039 0.224532
C91   C     C_R   0.651296 0.156504 0.666349 -0.025752
C92   C     C_R   0.348704 0.156505 0.333651 -0.025751
C93   C     C_R   0.151296 0.656505 0.666349 -0.025751
C94   C     C_R   0.848704 0.656504 0.333651 -0.025752
C95   C     C_R   0.612037 0.133746 0.605882 0.234301
C96   C     C_R   0.387963 0.133746 0.394117 0.234301
C97   C     C_R   0.112037 0.633746 0.605882 0.234301
C98   C     C_R   0.887963 0.633746 0.394117 0.234301
C99   C     C_R   0.619472 0.127660 0.554801 -0.018982
C100  C     C_R   0.191081 0.690793 0.500462 0.560117
C101  C     C_R   0.380528 0.127661 0.445199 -0.018982
C102  C     C_R   0.119472 0.627660 0.554800 -0.018983
C103  C     C_R   0.880528 0.627660 0.445199 -0.018982
C104  C     C_R   0.659277 0.154164 0.559506 -0.100386
C105  C     C_R   0.340723 0.154164 0.440494 -0.100386
C106  C     C_R   0.159277 0.654164 0.559506 -0.100386
C107  C     C_R   0.840723 0.654164 0.440494 -0.100387
C108  C     C_R   0.658813 0.157674 0.502417 -0.014575
C109  C     C_R   0.341187 0.157674 0.497582 -0.014575
C110  C     C_R   0.158813 0.657674 0.502417 -0.014575
C111  C     C_R   0.808918 0.690793 0.499538 0.560116
C112  C     C_R   0.841187 0.657674 0.497582 -0.014574
C113  C     C_R   0.624089 0.131850 0.444166 0.264613
C114  C     C_R   0.375911 0.131850 0.555834 0.264614
C115  C     C_R   0.124089 0.631850 0.444166 0.264613
C116  C     C_R   0.875911 0.631850 0.555834 0.264614
C117  C     C_R   0.684140 0.250338 0.367366 0.526247
C118  C     C_R   0.315860 0.250338 0.632634 0.526246
C119  C     C_R   0.184140 0.750338 0.367366 0.526247
C120  C     C_R   0.815860 0.750338 0.632634 0.526247
C121  C     C_R   0.591864 0.100084 0.443892 0.240199
C122  C     C_R   0.646803 0.250932 0.291190 0.004418
C123  C     C_R   0.408135 0.100083 0.556108 0.240198
C124  C     C_R   0.091864 0.600084 0.443892 0.240199
C125  C     C_R   0.908136 0.600084 0.556108 0.240199
C126  C     C_R   0.588960 0.097396 0.498986 0.008700
C127  C     C_R   0.411039 0.097396 0.501013 0.008700
C128  C     C_R   0.088960 0.597396 0.498986 0.008700
C129  C     C_R   0.911039 0.597396 0.501014 0.008700
C130  C     C_R   0.905516 0.228066 0.749552 0.227856
C131  C     C_R   0.094484 0.228066 0.250448 0.227856
C132  C     C_R   0.405516 0.728066 0.749552 0.227856
C133  C     C_R   0.353197 0.250932 0.708809 0.004418
C134  C     C_R   0.594484 0.728067 0.250448 0.227856
C135  C     C_R   0.940780 0.232083 0.821162 -0.114113
C136  C     C_R   0.059220 0.232083 0.178838 -0.114113
C137  C     C_R   0.440780 0.732083 0.821162 -0.114113
C138  C     C_R   0.559220 0.732084 0.178838 -0.114113
C139  C     C_R   0.927232 0.258892 0.854527 0.013245
C140  C     C_R   0.072768 0.258892 0.145473 0.013245
C141  C     C_R   0.427232 0.758892 0.854527 0.013245
C142  C     C_R   0.572768 0.758892 0.145473 0.013245
C143  C     C_R   0.877366 0.282277 0.815555 0.270751
C144  C     C_R   0.146803 0.750932 0.291190 0.004418
C145  C     C_R   0.122634 0.282277 0.184444 0.270751
C146  C     C_R   0.377365 0.782277 0.815555 0.270750
C147  C     C_R   0.622635 0.782277 0.184444 0.270751
C148  C     C_R   0.842416 0.279140 0.743455 -0.120291
C149  C     C_R   0.157583 0.279140 0.256545 -0.120291
C150  C     C_R   0.342416 0.779140 0.743455 -0.120291
C151  C     C_R   0.657584 0.779140 0.256545 -0.120291
C152  C     C_R   0.855371 0.251872 0.709376 -0.012782
C153  C     C_R   0.144629 0.251872 0.290624 -0.012782
C154  C     C_R   0.355371 0.751872 0.709376 -0.012783
C155  C     C_R   0.853197 0.750932 0.708809 0.004418
C156  C     C_R   0.644629 0.751872 0.290624 -0.012782
C157  C     C_R   0.034923 0.261203 0.069775 0.378241
C158  C     C_R   0.965077 0.261203 0.930225 0.378240
C159  C     C_R   0.534923 0.761204 0.069775 0.378240
C160  C     C_R   0.465077 0.761203 0.930225 0.378241
C161  C     C_R   0.840978 0.301554 0.407248 -0.080875
C162  C     C_R   0.159022 0.301554 0.592752 -0.080875
C163  C     C_R   0.340978 0.801554 0.407248 -0.080875
C164  C     C_R   0.659022 0.801554 0.592752 -0.080875
C165  C     C_R   0.807764 0.309263 0.496583 0.535205
C166  C     C_R   0.464367 0.251309 0.930098 0.340579
C167  C     C_R   0.192236 0.309263 0.503417 0.535204
C168  C     C_R   0.307764 0.809263 0.496583 0.535205
C169  C     C_R   0.692236 0.809263 0.503417 0.535205
C170  C     C_R   0.862981 0.295154 0.372606 -0.106964
C171  C     C_R   0.137020 0.295154 0.627395 -0.106964
C172  C     C_R   0.362981 0.795154 0.372606 -0.106964
C173  C     C_R   0.637019 0.795154 0.627395 -0.106964
C174  C     C_R   0.902609 0.323515 0.382882 -0.099952
C175  C     C_R   0.097391 0.323515 0.617118 -0.099951
C176  C     C_R   0.402609 0.823515 0.382882 -0.099951
Cl1   Cl    Cl    0.556905 0.064085 0.372765 -0.437938
Cl2   Cl    Cl    0.098144 0.457468 0.413991 -0.482276
Cl3   Cl    Cl    0.401856 0.957468 0.586009 -0.482275
Cl4   Cl    Cl    0.598144 0.957468 0.413991 -0.482276
Cl5   Cl    Cl    0.744945 0.204602 0.751366 -0.659089
Cl6   Cl    Cl    0.255056 0.204603 0.248634 -0.659090
Cl7   Cl    Cl    0.244945 0.704602 0.751366 -0.659089
Cl8   Cl    Cl    0.755054 0.704601 0.248633 -0.659090
Cl9   Cl    Cl    0.549025 0.124979 0.590759 -0.561477
Cl10  Cl    Cl    0.450975 0.124978 0.409241 -0.561477
Cl11  Cl    Cl    0.049025 0.624979 0.590759 -0.561478
Cl12  Cl    Cl    0.443095 0.064085 0.627235 -0.437937
Cl13  Cl    Cl    0.950974 0.624978 0.409240 -0.561477
Cl14  Cl    Cl    0.056904 0.564085 0.372765 -0.437938
Cl15  Cl    Cl    0.943095 0.564085 0.627235 -0.437938
Cl16  Cl    Cl    0.927725 0.193176 0.714386 -0.531593
Cl17  Cl    Cl    0.072275 0.193176 0.285614 -0.531593
Cl18  Cl    Cl    0.427725 0.693176 0.714386 -0.531593
Cl19  Cl    Cl    0.572274 0.693177 0.285614 -0.531593
Cl20  Cl    Cl    0.901856 0.457468 0.586009 -0.482276
Cu1   Cu    Cu3+1 0.719090 0.280910 0.500010 0.974135
Cu2   Cu    Cu3+1 0.034200 0.500000 0.568440 1.130150
Cu3   Cu    Cu3+1 0.465800 0.000000 0.431560 1.130150
Cu4   Cu    Cu3+1 0.534200 0.000000 0.568440 1.130150
Cu5   Cu    Cu3+1 0.280910 0.280910 0.499990 0.974135
Cu6   Cu    Cu3+1 0.219090 0.780910 0.500010 0.974135
Cu7   Cu    Cu3+1 0.780910 0.780910 0.499990 0.974135
Cu8   Cu    Cu3+1 0.780930 0.219110 0.499990 1.064102
Cu9   Cu    Cu3+1 0.219070 0.219110 0.500010 1.064102
Cu10  Cu    Cu3+1 0.280930 0.719110 0.499990 1.064101
Cu11  Cu    Cu3+1 0.719070 0.719110 0.500010 1.064102
Cu12  Cu    Cu3+1 0.965800 0.500000 0.431560 1.130150
H1    H     H_    0.679843 0.192301 0.280470 0.144386
H2    H     H_    0.194608 0.298858 0.285870 0.156226
H3    H     H_    0.305391 0.798857 0.714129 0.156226
H4    H     H_    0.694609 0.798857 0.285870 0.156226
H5    H     H_    0.839885 0.383789 0.563361 0.174974
H6    H     H_    0.160115 0.383789 0.436639 0.174973
H7    H     H_    0.339885 0.883789 0.563361 0.174974
H8    H     H_    0.660115 0.883789 0.436639 0.174974
H9    H     H_    0.809353 0.279188 0.396138 0.138445
H10   H     H_    0.190647 0.279188 0.603862 0.138445
H11   H     H_    0.309353 0.779188 0.396137 0.138445
H12   H     H_    0.320158 0.192300 0.719530 0.144386
H13   H     H_    0.690647 0.779188 0.603862 0.138445
H14   H     H_    0.849386 0.267935 0.337866 0.127908
H15   H     H_    0.150614 0.267935 0.662135 0.127908
H16   H     H_    0.349386 0.767935 0.337865 0.127908
H17   H     H_    0.650614 0.767935 0.662135 0.127908
H18   H     H_    0.920351 0.318005 0.356865 0.134902
H19   H     H_    0.079650 0.318005 0.643136 0.134902
H20   H     H_    0.420351 0.818005 0.356865 0.134902
H21   H     H_    0.579650 0.818005 0.643136 0.134902
H22   H     H_    0.949949 0.380418 0.432306 0.123685
H23   H     H_    0.179843 0.692301 0.280470 0.144386
H24   H     H_    0.050051 0.380418 0.567694 0.123685
H25   H     H_    0.449949 0.880418 0.432306 0.123685
H26   H     H_    0.550051 0.880418 0.567694 0.123685
H27   H     H_    0.616012 0.192183 0.154583 0.143648
H28   H     H_    0.383989 0.192183 0.845417 0.143648
H29   H     H_    0.116012 0.692183 0.154583 0.143648
H30   H     H_    0.883989 0.692182 0.845417 0.143648
H31   H     H_    0.542087 0.310629 0.156215 0.142947
H32   H     H_    0.457912 0.310630 0.843785 0.142947
H33   H     H_    0.042087 0.810629 0.156214 0.142947
H34   H     H_    0.820158 0.692300 0.719530 0.144386
H35   H     H_    0.957912 0.810630 0.843785 0.142947
H36   H     H_    0.604395 0.310013 0.282018 0.143620
H37   H     H_    0.395604 0.310013 0.717982 0.143620
H38   H     H_    0.104395 0.810013 0.282018 0.143620
H39   H     H_    0.895604 0.810013 0.717982 0.143620
H40   H     H_    0.731522 0.195336 0.627683 0.154261
H41   H     H_    0.268478 0.195337 0.372317 0.154262
H42   H     H_    0.231522 0.695336 0.627683 0.154261
H43   H     H_    0.768477 0.695336 0.372316 0.154261
H44   H     H_    0.646044 0.160166 0.705642 0.182161
H45   H     H_    0.978954 0.213672 0.851184 0.178228
H46   H     H_    0.353956 0.160167 0.294358 0.182161
H47   H     H_    0.146044 0.660166 0.705642 0.182161
H48   H     H_    0.853955 0.660166 0.294357 0.182161
H49   H     H_    0.826400 0.264676 0.862379 0.203869
H50   H     H_    0.781941 0.300536 0.788965 0.167999
H51   H     H_    0.807742 0.361955 0.868780 0.172832
H52   H     H_    0.778195 0.317415 0.883878 0.124471
H53   H     H_    0.852071 0.326281 0.941689 0.190531
H54   H     H_    0.173601 0.264677 0.137623 0.203870
H55   H     H_    0.218059 0.300538 0.211035 0.167998
H56   H     H_    0.021046 0.213672 0.148816 0.178228
H57   H     H_    0.192256 0.361956 0.131218 0.172833
H58   H     H_    0.221805 0.317417 0.116123 0.124471
H59   H     H_    0.147929 0.326281 0.058310 0.190530
H60   H     H_    0.326400 0.764676 0.862379 0.203869
H61   H     H_    0.281941 0.800536 0.788965 0.168000
H62   H     H_    0.307741 0.861955 0.868780 0.172832
H63   H     H_    0.278195 0.817415 0.883878 0.124472
H64   H     H_    0.352071 0.826281 0.941689 0.190531
H65   H     H_    0.673599 0.764676 0.137620 0.203869
H66   H     H_    0.718059 0.800535 0.211034 0.168000
H67   H     H_    0.478954 0.713672 0.851184 0.178228
H68   H     H_    0.692261 0.861954 0.131222 0.172830
H69   H     H_    0.721804 0.817414 0.116121 0.124471
H70   H     H_    0.647930 0.826282 0.058311 0.190531
H71   H     H_    0.598285 0.198084 0.352569 0.136883
H72   H     H_    0.544632 0.163021 0.337470 0.156628
H73   H     H_    0.541763 0.121393 0.251732 0.204899
H74   H     H_    0.535782 0.178451 0.231141 0.110486
H75   H     H_    0.600387 0.150234 0.269718 0.173093
H76   H     H_    0.401714 0.198083 0.647431 0.136883
H77   H     H_    0.455367 0.163021 0.662530 0.156628
H78   H     H_    0.521045 0.713673 0.148816 0.178228
H79   H     H_    0.458236 0.121392 0.748267 0.204899
H80   H     H_    0.464218 0.178450 0.768859 0.110486
H81   H     H_    0.399613 0.150234 0.730282 0.173092
H82   H     H_    0.098285 0.698084 0.352569 0.136883
H83   H     H_    0.044632 0.663021 0.337470 0.156628
H84   H     H_    0.041763 0.621393 0.251732 0.204899
H85   H     H_    0.035782 0.678450 0.231141 0.110486
H86   H     H_    0.100387 0.650234 0.269718 0.173093
H87   H     H_    0.901715 0.698084 0.647431 0.136884
H88   H     H_    0.955367 0.663021 0.662529 0.156628
H89   H     H_    0.805391 0.298857 0.714129 0.156226
H90   H     H_    0.958237 0.621393 0.748268 0.204899
H91   H     H_    0.964218 0.678450 0.768859 0.110486
H92   H     H_    0.899614 0.650234 0.730283 0.173093
N1    N     N_R   0.517335 0.289211 0.034288 -0.216008
N2    N     N_R   0.054927 0.261294 0.033808 -0.182597
N3    N     N_R   0.445073 0.761295 0.966192 -0.182597
N4    N     N_R   0.554927 0.761294 0.033808 -0.182598
N5    N     N_R   0.979356 0.261091 0.034712 -0.225347
N6    N     N_R   0.020644 0.261091 0.965288 -0.225346
N7    N     N_R   0.479356 0.761092 0.034712 -0.225346
N8    N     N_R   0.520643 0.761091 0.965288 -0.225347
N9    N     N_R   0.482664 0.289211 0.965712 -0.216008
N10   N     N_R   0.017335 0.789211 0.034288 -0.216008
N11   N     N_R   0.982664 0.789211 0.965712 -0.216008
N12   N     N_R   0.482395 0.213397 0.965713 -0.219180
N13   N     N_R   0.517606 0.213397 0.034286 -0.219180
N14   N     N_R   0.982395 0.713397 0.965713 -0.219180
N15   N     N_R   0.017606 0.713397 0.034286 -0.219180
N16   N     N_R   0.945073 0.261294 0.966192 -0.182597
O1    O     O_R   0.678820 0.231020 0.500020 -0.520552
O2    O     O_R   0.483800 0.045090 0.557810 -0.406106
O3    O     O_R   0.016200 0.545090 0.442190 -0.406106
O4    O     O_R   0.983800 0.545090 0.557810 -0.406106
O5    O     O_R   0.573990 0.045100 0.557780 -0.492424
O6    O     O_R   0.426010 0.045100 0.442220 -0.492424
O7    O     O_R   0.073990 0.545100 0.557780 -0.492425
O8    O     O_R   0.926010 0.545100 0.442220 -0.492424
O9    O     O_R   0.731040 0.178820 0.500000 -0.465946
O10   O     O_R   0.268960 0.178820 0.500000 -0.465946
O11   O     O_R   0.231040 0.678820 0.500000 -0.465946
O12   O     O_R   0.321180 0.231020 0.499980 -0.520552
O13   O     O_R   0.768960 0.678820 0.500000 -0.465946
O14   O     O_R   0.673970 0.276110 0.400150 -0.517951
O15   O     O_R   0.326030 0.276110 0.599850 -0.517951
O16   O     O_R   0.173970 0.776110 0.400150 -0.517951
O17   O     O_R   0.826030 0.776110 0.599850 -0.517951
O18   O     O_R   0.726190 0.223910 0.400130 -0.514893
O19   O     O_R   0.273810 0.223910 0.599870 -0.514893
O20   O     O_R   0.226190 0.723910 0.400130 -0.514893
O21   O     O_R   0.773810 0.723910 0.599870 -0.514893
O22   O     O_R   0.768980 0.321200 0.500000 -0.506652
O23   O     O_R   0.178820 0.731020 0.500020 -0.520552
O24   O     O_R   0.231020 0.321200 0.500000 -0.506651
O25   O     O_R   0.268980 0.821200 0.500000 -0.506652
O26   O     O_R   0.731020 0.821200 0.500000 -0.506651
O27   O     O_R   0.821200 0.269000 0.499980 -0.507856
O28   O     O_R   0.178800 0.269000 0.500020 -0.507856
O29   O     O_R   0.321200 0.769000 0.499980 -0.507856
O30   O     O_R   0.678800 0.769000 0.500020 -0.507856
O31   O     O_R   0.773830 0.276110 0.599860 -0.527543
O32   O     O_R   0.226170 0.276110 0.400140 -0.527544
O33   O     O_R   0.273830 0.776110 0.599860 -0.527543
O34   O     O_R   0.821180 0.731020 0.499980 -0.520552
O35   O     O_R   0.726170 0.776110 0.400140 -0.527544
O36   O     O_R   0.826050 0.223920 0.599850 -0.432906
O37   O     O_R   0.173950 0.223920 0.400150 -0.432907
O38   O     O_R   0.326050 0.723920 0.599850 -0.432906
O39   O     O_R   0.673950 0.723920 0.400150 -0.432906
O40   O     O_R   0.016230 0.454910 0.442200 -0.476001
O41   O     O_R   0.983770 0.454910 0.557800 -0.476000
O42   O     O_R   0.516230 0.954910 0.442200 -0.476001
O43   O     O_R   0.483770 0.954910 0.557800 -0.476000
O44   O     O_3   0.866605 0.312279 0.847670 -0.541535
O45   O     O_R   0.074030 0.454920 0.557790 -0.534986
O46   O     O_3   0.133394 0.312279 0.152330 -0.541536
O47   O     O_3   0.366605 0.812279 0.847670 -0.541535
O48   O     O_3   0.633395 0.812279 0.152330 -0.541536
O49   O     O_3   0.624442 0.135486 0.388555 -0.508363
O50   O     O_3   0.375557 0.135485 0.611444 -0.508363
O51   O     O_3   0.124442 0.635486 0.388555 -0.508363
O52   O     O_3   0.875558 0.635486 0.611445 -0.508363
O53   O     O_R   0.925970 0.454920 0.442210 -0.534986
O54   O     O_R   0.574030 0.954920 0.557790 -0.534986
O55   O     O_R   0.425970 0.954920 0.442210 -0.534986
O56   O     O_R   0.516200 0.045090 0.442190 -0.406106

loop_
_geom_bond_atom_site_label_1
_geom_bond_atom_site_label_2
_ccdc_geom_bond_type
C21   C26   A    
C38   O43   A    
Cu4   O43   S    
C161  H9    S    
C107  C112  A    
C100  O23   A    
C43   O5    A    
C26   Cl20  S    
C87   Cl6   S    
C118  O19   A    
C13   C60   S    
C23   H7    S    
C135  C139  A    
C166  N9    A    
C15   C163  A    
C67   H38   S    
C95   C99   A    
C86   H91   S    
C63   H33   S    
C46   C105  A    
C29   C33   A    
C47   O8    A    
C149  C153  A    
C12   C161  A    
C146  C150  A    
C34   O45   A    
C74   H61   S    
C162  C171  A    
Cu8   O18   S    
Cu11  O13   S    
C1    O1    A    
C68   C90   A    
C115  C124  A    
C157  N2    A    
C136  C140  A    
Cu6   O23   S    
Cu2   O41   S    
Cu7   O35   S    
Cu3   Cu4   S    
C157  N5    A    
C38   O55   A    
C130  Cl16  S    
C91   H44   S    
C25   C29   A    
Cu12  O8    S    
C65   H36   S    
Cu10  O20   S    
C27   C31   A    
C61   H31   S    
C28   C32   A    
C149  H2    S    
C35   C104  A    
C83   H83   S    
C160  N8    A    
Cu3   O6    S    
Cu1   O22   S    
N14   N15   A    
C85   H88   S    
Cu2   Cu12  S    
C137  H67   S    
C120  C155  S    
C17   C21   A    
C108  C113  A    
C19   C23   A    
Cu9   O37   S    
C44   O6    A    
C16   C20   A    
C164  C173  A    
C125  Cl15  S    
C65   C122  A    
C81   O50   S    
C82   H79   S    
Cu5   O15   S    
Cu6   O33   S    
C68   H43   S    
C22   C27   A    
C130  C152  A    
C51   H34   S    
C170  C174  A    
C97   Cl11  S    
C49   C133  A    
C72   H55   S    
C41   O33   A    
C72   C73   S    
Cu11  O30   S    
C140  C145  A    
C171  H15   S    
C53   C58   A    
N2    N6    A    
Cu7   O26   S    
C59   C63   A    
C30   C36   S    
C60   C64   A    
C173  H17   S    
Cu7   Cu11  S    
C49   C53   A    
C36   O53   A    
C76   H65   S    
C51   C55   A    
C159  N4    A    
C160  N3    A    
C73   H58   S    
C125  C129  A    
C48   C52   A    
C80   H75   S    
C40   O37   A    
C103  C107  A    
C44   O2    A    
C45   O3    A    
C163  H11   S    
C111  C112  S    
C27   Cl2   S    
C62   H32   S    
C64   H35   S    
C85   C86   S    
Cu8   O36   S    
C51   C155  A    
N5    N16   A    
C47   C129  S    
Cu3   O56   S    
C102  C128  A    
C143  O44   S    
C78   C80   S    
C75   H64   S    
C71   H51   S    
C92   C96   A    
C166  N12   A    
Cu12  O53   S    
C141  C160  S    
Cu1   O31   S    
C139  C143  A    
C69   H39   S    
C70   H49   S    
C132  C154  A    
C79   C91   A    
C118  O15   A    
C57   C106  A    
C7    H26   S    
C55   H30   S    
C42   O39   A    
C131  Cl17  S    
Cu6   O16   S    
Cu4   O2    S    
C50   C144  A    
C167  O24   A    
C99   C126  A    
C54   C59   A    
C143  C148  A    
C176  H20   S    
C151  H4    S    
C62   C66   A    
Cu4   O54   S    
C11   C33   A    
C131  C136  A    
C121  Cl1   S    
C23   C28   A    
C119  O16   A    
C13   N11   A    
C77   H70   S    
C147  C151  A    
C117  C122  S    
C5    C9    A    
C82   H81   S    
C61   C65   A    
C168  O29   A    
C116  O52   S    
C123  C127  A    
C83   C84   S    
C84   H84   S    
C8    C12   A    
C158  N6    A    
C31   C34   S    
C64   C69   A    
C53   H28   S    
C109  C114  A    
C114  C123  A    
C26   C30   A    
C116  C125  A    
C21   H5    S    
C40   C153  S    
C81   H77   S    
C24   N10   A    
Cu5   O12   S    
C93   C97   A    
C112  C116  A    
C46   C87   A    
C105  C109  A    
C18   C22   A    
C142  C147  A    
C148  C152  A    
C18   C167  S    
C75   H62   S    
C72   H54   S    
C111  O13   A    
C22   H6    S    
C2    C56   S    
Cu7   O17   S    
Cu8   O27   S    
C24   C59   S    
C86   H92   S    
C35   C79   A    
C101  C127  A    
C20   C169  S    
C58   C166  S    
C165  O22   A    
C91   C95   A    
C42   O35   A    
N4    N8    A    
C113  C121  A    
C48   H1    S    
Cu1   O1    S    
Cu5   Cu9   S    
C13   N14   A    
C55   C60   A    
C172  C176  A    
Cu5   O32   S    
C159  N7    A    
C92   H46   S    
C58   C62   A    
C162  H10   S    
C44   C127  S    
C100  C110  S    
C169  O26   A    
C130  C135  A    
C142  C159  S    
C3    H21   S    
C124  Cl14  S    
C145  O46   S    
C40   O32   A    
C15   C19   A    
C35   H40   S    
C50   C54   A    
C78   H71   S    
C3    C7    A    
Cu8   O9    S    
Cu6   O25   S    
C84   H86   S    
C20   C25   A    
C94   C98   A    
C45   C128  S    
C98   C103  A    
C85   H87   S    
C100  O11   A    
C175  H19   S    
Cu1   Cu8   S    
C123  Cl12  S    
C164  H13   S    
C134  C156  A    
C111  O34   A    
C12   C17   A    
C70   C71   S    
C68   C107  A    
C82   H80   S    
C97   C102  A    
C124  C128  A    
C99   C104  A    
C4    C174  A    
C96   C101  A    
C119  C144  S    
C5    C175  A    
C98   Cl13  S    
C67   C144  A    
C90   C94   A    
C39   O36   A    
C96   Cl10  S    
C138  C142  A    
Cu4   O5    S    
C41   O38   A    
C86   H90   S    
C16   C164  A    
C79   Cl5   S    
C121  C126  A    
C158  N16   A    
Cu10  O38   S    
C9    C14   A    
C46   H41   S    
C45   O7    A    
C172  H16   S    
C11   C16   A    
C85   O52   S    
C113  O49   S    
C2    N13   A    
Cu2   O4    S    
C151  C156  A    
Cu12  O40   S    
C115  O51   S    
C103  C129  A    
C73   H57   S    
C141  C146  A    
C134  Cl19  S    
C90   Cl8   S    
C37   O42   A    
Cu12  O3    S    
C19   C168  S    
C104  C108  A    
C95   Cl9   S    
C117  O18   A    
Cu11  O21   S    
C137  C141  A    
N10   N11   A    
C119  O20   A    
C54   H29   S    
Cu2   O7    S    
C168  O25   A    
C6    C10   A    
C93   H47   S    
C84   H85   S    
C8    C30   A    
C150  H3    S    
C174  H18   S    
Cu3   O55   S    
C17   C165  S    
C75   H63   S    
C120  O17   A    
C39   O31   A    
C83   O51   S    
C2    N1    A    
C28   Cl3   S    
C33   C37   S    
C70   H50   S    
Cu10  O11   S    
C47   O4    A    
C56   C61   A    
C37   O54   A    
C132  C137  A    
C57   H42   S    
C110  C115  A    
C165  O27   A    
C145  C149  A    
C52   H27   S    
C36   O41   A    
C66   H37   S    
C71   H53   S    
C14   C162  A    
C43   O56   A    
C136  H56   S    
C14   C18   A    
C42   C156  S    
C4    C8    A    
C81   C82   S    
N12   N13   A    
C7    C11   A    
C69   C155  A    
C72   O46   S    
C80   H73   S    
C10   C15   A    
C48   C122  A    
C89   C109  S    
C77   H69   S    
C73   H59   S    
C74   H60   S    
C3    C173  A    
C139  C158  S    
C29   Cl4   S    
C32   C38   S    
C114  O50   S    
N1    N9    A    
C170  H14   S    
C132  Cl18  S    
C89   O10   A    
C77   H68   S    
C81   H76   S    
C24   N15   A    
C43   C126  S    
Cu11  O39   S    
C83   H82   S    
C78   O49   S    
C101  C105  A    
C63   C67   A    
C5    H24   S    
C74   C75   S    
C49   H12   S    
C76   H66   S    
C131  C153  A    
C76   C77   S    
Cu7   O34   S    
C120  O21   A    
C146  O47   S    
C88   Cl7   S    
N3    N7    A    
C71   H52   S    
C171  C175  A    
C39   C152  S    
Cu9   O28   S    
C4    H22   S    
C163  C172  A    
C94   H48   S    
C140  C157  S    
C66   C133  A    
Cu5   O24   S    
C147  O48   S    
C169  O30   A    
C50   H23   S    
C135  H45   S    
C148  H89   S    
C118  C133  S    
C161  C170  A    
C167  O28   A    
C6    H25   S    
Cu9   O19   S    
Cu10  O29   S    
C150  C154  A    
C70   O44   S    
C87   C92   A    
C41   C154  S    
C106  C110  A    
C88   C93   A    
C74   O47   S    
C25   H8    S    
C134  C138  A    
C34   O40   A    
Cu9   O10   S    
C138  H78   S    
C57   C88   A    
C78   H72   S    
Cu1   O14   S    
C76   O48   S    
C6    C176  A    
C80   H74   S    
Cu3   O42   S    
C102  C106  A    
C9    C31   A    
C1    C108  S    
C117  O14   A    
C10   C32   A    
Cu6   Cu10  S    
C89   O12   A    
C1    O9    A    
C52   C56   A    
Cu2   O45   S    
