data_mof_unit_21175.cif
_audit_creation_date              2012-10-26T20:38:23-0400
_audit_creation_method            fapswitch 2.2
_symmetry_space_group_name_H-M    P1
_symmetry_Int_Tables_number       1
_space_group_crystal_system       triclinic
_cell_length_a                    15.865925
_cell_length_b                    11.152382
_cell_length_c                    9.848484
_cell_angle_alpha                 111.588921
_cell_angle_beta                  98.07074
_cell_angle_gamma                 89.442525
_cell_volume                      1602.65645576

loop_
_atom_site_label
_atom_site_type_symbol
_atom_type_description
_atom_site_fract_x
_atom_site_fract_y
_atom_site_fract_z
_atom_type_partial_charge
C1    C     C_R   0.495636 0.254818 0.440771 0.557078
C2    C     C_3   0.019486 0.591977 0.445574 0.225651
C3    C     C_3   0.026401 0.386643 0.407370 0.046330
C4    C     C_3   0.972242 0.614482 0.580753 -0.017743
C5    C     C_1   0.250966 0.509962 0.506389 0.033746
C6    C     C_1   0.748620 0.488709 0.492071 0.017992
C7    C     C_3   0.036883 0.529619 0.634049 0.201288
C8    C     C_3   0.962421 0.470199 0.352953 0.223904
C9    C     C_3   0.083380 0.508271 0.499652 -0.025645
C10   C     C_3   0.915007 0.489994 0.486452 -0.053356
C11   C     C_1   0.175435 0.512741 0.505539 0.060273
C12   C     C_R   0.504263 0.745026 0.559179 0.556732
C13   C     C_1   0.823669 0.485157 0.488318 0.023128
C14   C     C_2   0.485975 0.117465 0.409255 -0.132528
C15   C     C_2   0.514222 0.882000 0.590543 -0.131470
C16   C     C_2   0.054383 0.258246 0.311184 0.605244
C17   C     C_2   0.933302 0.736327 0.672046 0.530396
C18   C     C_3   0.028125 0.268512 0.658157 0.045852
C19   C     C_3   0.021268 0.122976 0.617814 -0.258547
C20   C     C_3   0.097426 0.077767 0.696829 -0.465809
C21   C     C_3   0.979333 0.756872 0.361780 0.052575
C22   C     C_3   0.979292 0.760195 0.208600 -0.280234
C23   C     C_2   0.514804 0.065619 0.510179 0.005252
C24   C     C_3   0.906738 0.838655 0.171158 -0.474046
C25   C     C_3   0.851635 0.464771 0.164251 0.018007
C26   C     C_3   0.791843 0.344391 0.109501 -0.274490
C27   C     C_3   0.701459 0.374402 0.059303 -0.430565
C28   C     C_3   0.075792 0.660236 0.884023 0.013339
C29   C     C_3   0.127481 0.771562 0.873992 -0.264578
C30   C     C_3   0.107953 0.900490 0.988115 -0.453950
C31   C     C_2   0.413265 0.864431 0.369339 0.579951
C32   C     C_2   0.580623 0.138112 0.638087 0.582398
C33   C     C_3   0.585908 0.757971 0.994516 0.057836
C34   C     C_2   0.482522 0.934975 0.492103 0.004726
C35   C     C_3   0.656048 0.834167 0.964697 -0.258665
C36   C     C_3   0.639937 0.978258 0.018603 -0.473900
C37   C     C_3   0.382125 0.263204 0.035245 0.074328
C38   C     C_3   0.389138 0.116724 0.970256 -0.258363
C39   C     C_3   0.305434 0.046215 0.959714 -0.487977
C40   C     C_2   0.498948 0.521467 0.085784 0.118522
C41   C     C_2   0.492631 0.493017 0.921130 0.125865
C42   C     C_R   0.340123 0.503302 0.502267 0.552946
C43   C     C_R   0.659769 0.496229 0.497532 0.550535
C44   C     C_3   0.980027 0.407660 0.540920 0.246221
Cu1   Cu    Cu3+1 0.514700 0.521810 0.644910 1.024943
Cu2   Cu    Cu3+1 0.485300 0.478190 0.355090 1.003946
H1    H     H_    0.557620 0.935104 0.689520 0.115220
H2    H     H_    0.019648 0.074769 0.496607 0.179692
H3    H     H_    0.157860 0.104510 0.667904 0.151111
H4    H     H_    0.093029 0.971327 0.663074 0.201793
H5    H     H_    0.098636 0.122454 0.818236 0.161083
H6    H     H_    0.989599 0.856850 0.442925 0.177660
H7    H     H_    0.915348 0.721664 0.368946 0.125501
H8    H     H_    0.040914 0.804381 0.205157 0.167254
H9    H     H_    0.972213 0.660122 0.125441 0.188734
H10   H     H_    0.844558 0.794782 0.172778 0.144632
H11   H     H_    0.908194 0.839680 0.059404 0.171852
H12   H     H_    0.445655 0.062809 0.306971 0.123228
H13   H     H_    0.913365 0.939756 0.251912 0.191176
H14   H     H_    0.850764 0.500794 0.072870 0.164947
H15   H     H_    0.827995 0.543914 0.255579 0.102386
H16   H     H_    0.815423 0.267991 0.015315 0.191001
H17   H     H_    0.790984 0.306598 0.199044 0.182952
H18   H     H_    0.678838 0.457176 0.147732 0.179039
H19   H     H_    0.657963 0.289005 0.033035 0.210081
H20   H     H_    0.699612 0.398817 0.959354 0.190125
H21   H     H_    0.100869 0.649853 0.989997 0.157996
H22   H     H_    0.007507 0.680042 0.889267 0.170216
H23   H     H_    0.443468 0.422833 0.848302 0.134567
H24   H     H_    0.196631 0.755328 0.893229 0.167504
H25   H     H_    0.112970 0.775803 0.762440 0.200925
H26   H     H_    0.038233 0.913769 0.979967 0.204169
H27   H     H_    0.137935 0.980507 0.968214 0.150595
H28   H     H_    0.133537 0.905466 0.100989 0.142278
H29   H     H_    0.295854 0.777190 0.310753 0.340033
H30   H     H_    0.697812 0.225941 0.707105 0.336874
H31   H     H_    0.583984 0.795401 0.115295 0.141526
H32   H     H_    0.522662 0.775570 0.941146 0.163995
H33   H     H_    0.718372 0.819837 0.022259 0.166787
H34   H     H_    0.529531 0.611919 0.162846 0.136511
H35   H     H_    0.659642 0.797907 0.844559 0.199202
H36   H     H_    0.578258 0.995353 0.961426 0.166493
H37   H     H_    0.691648 0.030519 0.994649 0.161917
H38   H     H_    0.638735 0.017327 0.139596 0.167384
H39   H     H_    0.335343 0.293383 0.959962 0.114994
H40   H     H_    0.359152 0.290337 0.143585 0.188264
H41   H     H_    0.407887 0.087668 0.858279 0.194333
H42   H     H_    0.439272 0.087549 0.041397 0.178847
H43   H     H_    0.287145 0.070917 0.071371 0.156186
H44   H     H_    0.312692 0.940370 0.910808 0.166230
H45   H     H_    0.151669 0.148828 0.233487 0.324068
H46   H     H_    0.254504 0.073232 0.888324 0.148300
H47   H     H_    0.845562 0.816023 0.804757 0.329831
H48   H     H_    0.029746 0.317890 0.779350 0.190765
H49   H     H_    0.089875 0.290934 0.628338 0.156220
H50   H     H_    0.961412 0.096028 0.648409 0.210401
N1    N     N_2   0.463210 0.445420 0.137360 -0.087645
N2    N     N_2   0.536790 0.554580 0.862640 -0.069740
O1    O     O_R   0.507840 0.332340 0.577400 -0.473828
O2    O     O_R   0.140713 0.239540 0.300252 -0.728450
O3    O     O_2   0.959235 0.841450 0.679336 -0.574010
O4    O     O_R   0.867722 0.728447 0.749888 -0.718155
O5    O     O_3   0.956066 0.307594 0.585271 -0.543369
O6    O     O_3   0.047630 0.684318 0.393119 -0.548591
O7    O     O_3   0.935807 0.431907 0.199011 -0.538800
O8    O     O_3   0.086631 0.542437 0.770406 -0.591166
O9    O     O_2   0.424047 0.835242 0.240730 -0.583513
O10   O     O_R   0.337446 0.826463 0.402513 -0.687866
O11   O     O_2   0.565214 0.167707 0.764282 -0.545302
O12   O     O_R   0.492160 0.667660 0.422600 -0.488900
O13   O     O_R   0.658582 0.176439 0.612378 -0.684947
O14   O     O_3   0.605670 0.626321 0.949979 -0.506399
O15   O     O_3   0.462719 0.320419 0.047434 -0.478436
O16   O     O_R   0.483020 0.295500 0.332650 -0.494875
O17   O     O_R   0.516980 0.704500 0.667350 -0.523472
O18   O     O_R   0.391490 0.518400 0.622350 -0.527396
O19   O     O_R   0.608510 0.481600 0.377650 -0.521539
O20   O     O_R   0.366660 0.481570 0.377600 -0.503191
O21   O     O_R   0.633340 0.518430 0.622400 -0.446555
O22   O     O_2   0.001286 0.170363 0.243214 -0.517872

loop_
_geom_bond_atom_site_label_1
_geom_bond_atom_site_label_2
_ccdc_geom_bond_type
C5    C42   S    
C32   O13   S    
C31   O10   S    
C19   C20   S    
C15   H1    S    
C26   H17   S    
C8    O7    S    
C1    O1    A    
C12   O12   A    
C35   H35   S    
C25   O7    S    
C22   H8    S    
Cu1   Cu2   S    
C26   C27   S    
C20   H3    S    
C3    C9    S    
C37   H39   S    
C28   C29   S    
C28   H22   S    
C5    C11   T    
C20   H5    S    
Cu1   N2    S    
C16   O22   D    
C38   C39   S    
C30   H28   S    
C33   H32   S    
C37   O15   S    
C36   H37   S    
Cu2   O20   S    
C18   C19   S    
C17   O3    D    
C20   H4    S    
C21   O6    S    
C24   H13   S    
C35   C36   S    
C28   O8    S    
C24   H11   S    
C40   H34   S    
C25   H14   S    
H45   O2    S    
C29   C30   S    
C15   C34   D    
C12   O17   A    
Cu1   O21   S    
H29   O10   S    
C21   C22   S    
C18   H49   S    
C4    C7    S    
C44   O5    S    
C14   H12   S    
C2    C8    S    
C3    C44   S    
C31   C34   S    
N2    O14   S    
C32   O11   D    
Cu2   O16   S    
C10   C44   S    
C37   H40   S    
C28   H21   S    
C3    C8    S    
Cu1   O1    S    
C36   H36   S    
C40   N1    D    
C30   H27   S    
C19   H2    S    
C42   O20   A    
C25   C26   S    
Cu2   O19   S    
C38   H42   S    
C14   C23   D    
C2    C4    S    
C17   O4    S    
C37   C38   S    
C27   H19   S    
Cu1   O17   S    
C12   C15   S    
C2    O6    S    
C23   C34   S    
C7    O8    S    
C33   O14   S    
C25   H15   S    
C7    C44   S    
C9    C11   S    
C43   O19   A    
C4    C17   S    
C42   O18   A    
C40   C41   S    
Cu2   N1    S    
C6    C43   S    
Cu2   O12   S    
C18   H48   S    
C22   C24   S    
C1    O16   A    
C4    C10   S    
C39   H46   S    
C41   H23   S    
C29   H24   S    
C7    C9    S    
C39   H44   S    
C31   O9    D    
C16   O2    S    
C10   C13   S    
H47   O4    S    
C30   H26   S    
C22   H9    S    
C24   H10   S    
C38   H41   S    
C23   C32   S    
C26   H16   S    
C27   H20   S    
C6    C13   T    
C21   H7    S    
Cu1   O18   S    
C33   H31   S    
C36   H38   S    
H30   O13   S    
C35   H33   S    
C33   C35   S    
C18   O5    S    
C27   H18   S    
C3    C16   S    
C8    C10   S    
C41   N2    D    
C1    C14   S    
C2    C9    S    
N1    O15   S    
C39   H43   S    
C21   H6    S    
C19   H50   S    
C43   O21   A    
C29   H25   S    
