data_mof_unit_25221.cif
_audit_creation_date              2012-12-10T20:37:26-0500
_audit_creation_method            fapswitch 2.2
_symmetry_space_group_name_H-M    P1
_symmetry_Int_Tables_number       1
_space_group_crystal_system       triclinic
_cell_length_a                    15.728487
_cell_length_b                    10.668285
_cell_length_c                    9.867067
_cell_angle_alpha                 89.834871
_cell_angle_beta                  90.420323
_cell_angle_gamma                 90.278671
_cell_volume                      1655.58335544

loop_
_atom_site_label
_atom_site_type_symbol
_atom_type_description
_atom_site_fract_x
_atom_site_fract_y
_atom_site_fract_z
_atom_type_partial_charge
C1    C     C_R   0.505585 0.260138 0.500193 0.876742
C2    C     C_3   0.083213 0.498213 0.500112 0.002020
C3    C     C_3   0.971626 0.615048 0.535091 -0.210698
C4    C     C_3   0.916511 0.498508 0.501829 0.095123
C5    C     C_3   0.026330 0.580969 0.411530 0.213017
C6    C     C_3   0.969659 0.467495 0.375061 -0.248578
C7    C     C_1   0.174016 0.498534 0.499183 -0.061164
C8    C     C_1   0.825899 0.498944 0.502123 -0.043631
C9    C     C_R   0.542047 0.063049 0.617636 0.131482
C10   C     C_R   0.523893 0.129385 0.498518 -0.146430
C11   C     C_R   0.522554 0.065684 0.374046 -0.215526
C12   C     C_R   0.337981 0.499775 0.499574 0.909332
C13   C     C_R   0.518795 0.936349 0.373630 -0.231738
C14   C     C_R   0.515383 0.871986 0.497582 -0.104652
C15   C     C_R   0.533559 0.935608 0.617106 0.110960
C16   C     C_3   0.492574 0.931744 0.753022 -0.534081
C17   C     C_3   0.508105 0.072678 0.759321 0.005727
C18   C     C_R   0.442740 0.428324 0.070727 0.209470
C19   C     C_R   0.561095 0.561702 0.073226 -0.194297
C20   C     C_R   0.562265 0.560519 0.929008 0.227505
C21   C     C_R   0.442494 0.428803 0.928313 0.139531
C22   C     C_3   0.348144 0.439624 0.921547 -0.476812
C23   C     C_R   0.501586 0.740315 0.499612 0.884529
C24   C     C_3   0.348295 0.439006 0.075379 -0.495880
C25   C     C_R   0.662000 0.500006 0.500494 0.907142
C26   C     C_3   0.971293 0.412657 0.593589 -0.169088
C27   C     C_3   0.026041 0.385795 0.467962 0.211853
C28   C     C_1   0.249208 0.499092 0.498885 -0.190347
C29   C     C_1   0.750727 0.499451 0.501602 -0.197750
C30   C     C_3   0.027894 0.528157 0.622465 0.215854
H1    H     H_    0.608884 0.613982 0.129010 0.158290
H2    H     H_    0.326818 0.530209 0.877176 0.219109
H3    H     H_    0.317861 0.354849 0.876713 0.202384
H4    H     H_    0.326945 0.529179 0.119647 0.217318
H5    H     H_    0.318051 0.353893 0.119353 0.198714
H6    H     H_    0.947084 0.343512 0.668401 0.134796
H7    H     H_    0.944348 0.442625 0.273257 0.144828
H8    H     H_    0.947797 0.709137 0.563308 0.140102
H9    H     H_    0.516582 0.114618 0.278092 0.171231
H10   H     H_    0.511779 0.888543 0.277431 0.170862
N1    N     N_R   0.499430 0.499140 0.142800 -0.116905
N2    N     N_R   0.499430 0.499180 0.857150 -0.131718
O1    O     O_R   0.500010 0.316790 0.614690 -0.628002
O2    O     O_R   0.500000 0.316760 0.385350 -0.618313
O3    O     O_R   0.376780 0.500010 0.614650 -0.616031
O4    O     O_R   0.376770 0.499970 0.385310 -0.615637
O5    O     O_R   0.500000 0.683240 0.614650 -0.603519
O6    O     O_R   0.499990 0.683210 0.385310 -0.626785
O7    O     O_R   0.623230 0.500030 0.614690 -0.589990
O8    O     O_R   0.623220 0.499990 0.385350 -0.620482
Zn1   Zn    Zn3+2 0.500010 0.500020 0.653130 0.947703
Zn2   Zn    Zn3+2 0.499990 0.499980 0.346870 0.940694
N3    N     N_2   0.058685 0.263973 0.431636 -0.294601
H11   H     H_    0.102177 0.268215 0.354074 0.225376
C31   C     C_3   0.994647 0.168073 0.411589 -0.789059
H12   H     H_    0.025945 0.077142 0.390705 0.242936
H13   H     H_    0.952998 0.192556 0.324084 0.233710
H14   H     H_    0.955511 0.157015 0.504130 0.245750
H15   H     H_    0.529774 0.876531 0.828043 0.205948
H16   H     H_    0.449623 0.129977 0.769903 0.146420
N4    N     N_2   0.573823 0.100919 0.859453 -0.290074
H17   H     H_    0.552851 0.091713 0.957821 0.221450
C32   C     C_3   0.625096 0.212041 0.838294 -0.729625
H18   H     H_    0.674291 0.218607 0.919297 0.215706
H19   H     H_    0.585034 0.296469 0.842555 0.253090
H20   H     H_    0.658044 0.208102 0.739254 0.241765
N5    N     N_2   0.627133 0.626701 0.859392 -0.249639
H21   H     H_    0.628112 0.720697 0.883055 0.202026
C33   C     C_3   0.710921 0.572274 0.873658 -0.768394
H22   H     H_    0.734393 0.581268 0.979709 0.212054
H23   H     H_    0.755894 0.622114 0.805751 0.239159
H24   H     H_    0.709666 0.471667 0.844917 0.253050
N6    N     N_2   0.059218 0.669945 0.313946 -0.296575
H25   H     H_    0.102233 0.630532 0.248441 0.224666
C34   C     C_3   0.995381 0.744226 0.245394 -0.801146
H26   H     H_    0.026843 0.812774 0.177068 0.238262
H27   H     H_    0.957217 0.797067 0.320097 0.249453
H28   H     H_    0.952791 0.683037 0.183895 0.236079
N7    N     N_2   0.062499 0.560714 0.754083 -0.292364
H29   H     H_    0.106833 0.632072 0.749601 0.228652
C35   C     C_3   0.999988 0.578953 0.858769 -0.808986
H30   H     H_    0.032791 0.597028 0.956866 0.242385
H31   H     H_    0.959873 0.493689 0.870381 0.246886
H32   H     H_    0.959040 0.660509 0.833689 0.234767
H33   H     H_    0.423977 0.906468 0.746640 0.182607

loop_
_geom_bond_atom_site_label_1
_geom_bond_atom_site_label_2
_ccdc_geom_bond_type
C31   H12   S    
C32   H19   S    
C33   H24   S    
C18   C21   A    
N6    H25   S    
C20   N5    S    
C2    C7    S    
C4    C8    S    
C19   H1    S    
C35   H30   S    
N3    H11   S    
C26   C27   S    
C22   H2    S    
C12   C28   S    
C18   C24   S    
C8    C29   T    
C5    C6    S    
O3    Zn1   S    
C15   C16   S    
O4    Zn2   S    
N4    C32   S    
C33   H23   S    
C25   O8    A    
C13   H10   S    
C17   N4    S    
C1    O1    A    
C19   C20   A    
C3    H8    S    
C16   C17   S    
O7    Zn1   S    
O8    Zn2   S    
C2    C27   S    
C9    C10   A    
N1    Zn2   S    
N2    Zn1   S    
O2    Zn2   S    
C32   H20   S    
C21   C22   S    
N6    C34   S    
N4    H17   S    
C35   H31   S    
N3    C31   S    
C25   C29   S    
C24   H5    S    
C23   O5    A    
N5    H21   S    
C12   O4    A    
C4    C6    S    
C18   N1    A    
N7    C35   S    
O5    Zn1   S    
C32   H18   S    
C24   H4    S    
C7    C28   T    
C21   N2    A    
N5    C33   S    
C16   H15   S    
C14   C23   S    
C3    C30   S    
C34   H26   S    
C1    O2    A    
C4    C26   S    
C6    C27   S    
C6    H7    S    
C11   H9    S    
C34   H27   S    
C30   N7    S    
C9    C17   S    
C26   C30   S    
C31   H13   S    
C16   H33   S    
C22   C24   S    
C2    C5    S    
C3    C4    S    
C35   H32   S    
C26   H6    S    
C22   H3    S    
C23   O6    A    
C1    C10   S    
C12   O3    A    
C3    C5    S    
C20   N2    A    
C27   N3    S    
C2    C30   S    
C9    C15   A    
C11   C13   A    
O1    Zn1   S    
C5    N6    S    
C33   H22   S    
C34   H28   S    
C25   O7    A    
C10   C11   A    
C17   H16   S    
N7    H29   S    
O6    Zn2   S    
C31   H14   S    
C14   C15   A    
C13   C14   A    
C19   N1    A    
