data_mof_unit_41883.cif
_audit_creation_date              2012-10-26T19:20:32-0400
_audit_creation_method            fapswitch 2.2
_symmetry_space_group_name_H-M    P1
_symmetry_Int_Tables_number       1
_space_group_crystal_system       triclinic
_cell_length_a                    10.833662
_cell_length_b                    11.044641
_cell_length_c                    9.767176
_cell_angle_alpha                 111.203417
_cell_angle_beta                  97.476065
_cell_angle_gamma                 91.234296
_cell_volume                      1077.3227034

loop_
_atom_site_label
_atom_site_type_symbol
_atom_type_description
_atom_site_fract_x
_atom_site_fract_y
_atom_site_fract_z
_atom_type_partial_charge
C1    C     C_R   0.490943 0.253958 0.440507 0.566345
C2    C     C_R   0.738171 0.514957 0.501079 0.542599
C3    C     C_R   0.142682 0.520215 0.771885 -0.089081
C4    C     C_R   0.857318 0.479784 0.228114 -0.089081
C5    C     C_R   0.100678 0.586240 0.906386 -0.056383
C6    C     C_R   0.899321 0.413760 0.093614 -0.056383
C7    C     C_R   0.992056 0.650996 0.908058 0.243927
C8    C     C_R   0.007944 0.349004 0.091941 0.243927
C9    C     C_R   0.920334 0.640194 0.774313 -0.046253
C10   C     C_R   0.079667 0.359806 0.225686 -0.046253
C11   C     C_R   0.956036 0.563073 0.636356 -0.017310
C12   C     C_R   0.509057 0.746042 0.559493 0.566345
C13   C     C_R   0.043964 0.436927 0.363644 -0.017310
C14   C     C_R   0.076552 0.517818 0.635758 0.012008
C15   C     C_R   0.923447 0.482181 0.364241 0.012008
C16   C     C_R   0.874426 0.530209 0.500286 -0.021151
C17   C     C_R   0.125574 0.469790 0.499714 -0.021151
C18   C     C_2   0.485833 0.114645 0.406822 -0.107210
C19   C     C_2   0.514167 0.885355 0.593177 -0.107210
C20   C     C_2   0.502405 0.069564 0.516696 -0.137979
C21   C     C_2   0.497595 0.930435 0.483304 -0.137979
C22   C     C_2   0.508085 0.513013 0.081799 -0.025780
C23   C     C_2   0.491915 0.486987 0.918200 -0.025780
C24   C     C_R   0.261829 0.485043 0.498921 0.542599
Cl1   Cl    Cl    0.057555 0.259187 0.922484 -0.625185
Cl2   Cl    Cl    0.942445 0.740813 0.077515 -0.625184
Cu1   Cu    Cu3+1 0.521920 0.521810 0.644910 0.964366
Cu2   Cu    Cu3+1 0.478080 0.478190 0.355090 0.964366
H1    H     H_    0.223772 0.466217 0.775943 0.150759
H2    H     H_    0.468505 0.048459 0.291436 0.118313
H3    H     H_    0.425292 0.408904 0.843978 0.146950
H4    H     H_    0.574708 0.591096 0.156022 0.146950
H5    H     H_    0.617393 0.628409 0.935736 0.229121
H6    H     H_    0.382607 0.371591 0.064264 0.229121
H7    H     H_    0.776227 0.533782 0.224057 0.150759
H8    H     H_    0.153478 0.587900 0.009222 0.160922
H9    H     H_    0.846522 0.412099 0.990777 0.160922
H10   H     H_    0.837369 0.693552 0.779469 0.163248
H11   H     H_    0.162631 0.306448 0.220531 0.163248
H12   H     H_    0.480297 0.864494 0.367730 0.161408
H13   H     H_    0.519703 0.135506 0.632270 0.161408
H14   H     H_    0.531495 0.951541 0.708564 0.118313
N1    N     N_2   0.445130 0.445420 0.137360 -0.351926
N2    N     N_2   0.554870 0.554580 0.862640 -0.351926
O1    O     O_R   0.511700 0.332340 0.577400 -0.497303
O2    O     O_R   0.488300 0.667660 0.422600 -0.497303
O3    O     O_R   0.474680 0.295500 0.332650 -0.487661
O4    O     O_R   0.525320 0.704500 0.667350 -0.487661
O5    O     O_R   0.338170 0.518410 0.622370 -0.505003
O6    O     O_R   0.661830 0.481590 0.377630 -0.505003
O7    O     O_R   0.301150 0.481570 0.377630 -0.491741
O8    O     O_R   0.698850 0.518430 0.622370 -0.491741

loop_
_geom_bond_atom_site_label_1
_geom_bond_atom_site_label_2
_ccdc_geom_bond_type
Cu1   O4    S    
Cu2   O3    S    
C18   H2    S    
C12   O2    A    
C2    C16   S    
C11   C16   A    
C22   H4    S    
Cu2   N1    S    
C22   N1    D    
C19   H14   S    
C13   C17   A    
C12   O4    A    
Cu2   O2    S    
Cu1   O1    S    
C7    Cl2   S    
C20   H13   S    
C6    H9    S    
Cu1   O8    S    
C8    Cl1   S    
C9    C11   A    
C14   C17   A    
C1    O1    A    
C1    C18   S    
C3    C14   A    
C2    O8    A    
C24   O7    A    
C12   C19   S    
C8    C10   A    
C9    H10   S    
Cu2   O7    S    
C18   C20   D    
C13   C15   A    
C4    C15   A    
C11   C14   A    
C4    H7    S    
C17   C24   S    
H6    N1    S    
C15   C16   A    
C5    H8    S    
C7    C9    A    
Cu1   Cu2   S    
C3    H1    S    
C20   C21   S    
C4    C6    A    
C24   O5    A    
C5    C7    A    
C22   C23   S    
C1    O3    A    
C6    C8    A    
C2    O6    A    
C19   C21   D    
H5    N2    S    
Cu2   O6    S    
Cu1   N2    S    
C23   N2    D    
Cu1   O5    S    
C23   H3    S    
C10   H11   S    
C3    C5    A    
C10   C13   A    
C21   H12   S    
