data_mof_unit_40102.cif
_audit_creation_date              2012-12-11T15:53:41-0500
_audit_creation_method            fapswitch 2.2
_symmetry_space_group_name_H-M    P1
_symmetry_Int_Tables_number       1
_space_group_crystal_system       triclinic
_cell_length_a                    6.972668
_cell_length_b                    14.667441
_cell_length_c                    15.933111
_cell_angle_alpha                 90.47487
_cell_angle_beta                  89.086965
_cell_angle_gamma                 89.531005
_cell_volume                      1629.17909978

loop_
_atom_site_label
_atom_site_type_symbol
_atom_type_description
_atom_site_fract_x
_atom_site_fract_y
_atom_site_fract_z
_atom_type_partial_charge
O1    O     O_R   0.361600 0.167310 0.164620 -0.546948
O2    O     O_R   0.638400 0.832690 0.835380 -0.542468
O3    O     O_R   0.691080 0.157570 0.338750 -0.503939
O4    O     O_R   0.308920 0.842430 0.661250 -0.521257
O5    O     O_R   0.861410 0.336420 0.339360 -0.528931
O6    O     O_R   0.138590 0.663580 0.660640 -0.529193
C1    C     C_R   0.521320 0.135129 0.367155 0.817888
C2    C     C_R   0.479649 0.867787 0.635325 0.769773
O7    O     O_R   0.691320 0.156280 0.165240 -0.553727
O8    O     O_R   0.308680 0.843720 0.834760 -0.552832
O9    O     O_R   0.861640 0.335130 0.164600 -0.551560
O10   O     O_R   0.138360 0.664870 0.835400 -0.546755
C3    C     C_R   0.523261 0.133999 0.135965 0.643048
C4    C     C_R   0.476788 0.866346 0.863768 0.659960
O11   O     O_R   0.361370 0.168600 0.339370 -0.516045
O12   O     O_R   0.638630 0.831400 0.660630 -0.518463
O13   O     O_3   0.527990 0.310540 0.251980 -0.388048
O14   O     O_3   0.472010 0.689460 0.748020 -0.372446
V1    V     V_3+5 0.802830 0.240980 0.251990 1.476767
V2    V     V_3+5 0.197170 0.759020 0.748010 1.466076
O15   O     O_R   0.191360 0.346160 0.165220 -0.521563
O16   O     O_R   0.808640 0.653840 0.834780 -0.517507
C5    C     C_R   0.023216 0.366354 0.134713 0.708645
C6    C     C_R   0.977483 0.629705 0.862051 0.723248
O17   O     O_R   0.191130 0.347440 0.338740 -0.544023
O18   O     O_R   0.808870 0.652560 0.661260 -0.543030
C7    C     C_R   0.020118 0.372688 0.364534 0.772647
C8    C     C_R   0.979245 0.633730 0.630401 0.756522
V3    V     V_3+5 0.302840 0.262750 0.251990 1.466170
V4    V     V_3+5 0.697160 0.737250 0.748010 1.476051
O19   O     O_3   0.027820 0.193180 0.251990 -0.361912
O20   O     O_3   0.972180 0.806820 0.748010 -0.363555
C9    C     C_3   0.891311 0.438289 0.513929 0.400424
C10   C     C_3   0.104923 0.582348 0.471976 0.397626
C11   C     C_3   0.068411 0.470691 0.562696 -0.042672
C12   C     C_3   0.930889 0.547628 0.420887 -0.071249
C13   C     C_3   0.993119 0.569616 0.556151 -0.292732
C14   C     C_3   0.005554 0.447424 0.430356 -0.321616
C15   C     C_3   0.818367 0.537542 0.505162 0.389699
C16   C     C_3   0.179733 0.483495 0.479189 0.428909
C17   C     C_R   0.822359 0.514282 0.960128 0.501343
C18   C     C_R   0.180489 0.460164 0.019027 0.497686
C19   C     C_R   0.835452 0.457558 0.030524 -0.299833
C20   C     C_R   0.166714 0.528407 0.957871 -0.297770
H1    H     H_    0.705482 0.431760 0.058610 0.215802
H2    H     H_    0.296692 0.555832 0.931075 0.216729
C21   C     C_R   0.013874 0.430212 0.061883 -0.236993
C22   C     C_R   0.988005 0.557606 0.928043 -0.241323
C23   C     C_R   0.667481 0.007760 0.450840 0.373559
C24   C     C_R   0.340826 0.001798 0.557233 0.351375
C25   C     C_R   0.666196 0.950215 0.521826 0.333174
C26   C     C_R   0.347272 0.063656 0.490302 0.338645
C27   C     C_R   0.495436 0.940861 0.570564 -0.389943
C28   C     C_R   0.510015 0.066742 0.435929 -0.391220
C29   C     C_R   0.678550 0.023406 0.032541 -0.174717
C30   C     C_R   0.321624 0.977811 0.966501 -0.172719
H3    H     H_    0.818392 0.039752 0.056854 0.113560
H4    H     H_    0.181795 0.961503 0.942154 0.113898
C31   C     C_R   0.666412 0.959456 0.966918 -0.146276
C32   C     C_R   0.333774 0.041800 0.032100 -0.158414
H5    H     H_    0.798005 0.928518 0.942983 0.118612
H6    H     H_    0.202227 0.072851 0.055964 0.115099
C33   C     C_R   0.487725 0.935523 0.932969 -0.040986
C34   C     C_R   0.512400 0.065433 0.066281 -0.043458
C35   C     C_3   0.155419 0.430861 0.641519 -0.737565
H7    H     H_    0.188363 0.357545 0.631484 0.191735
H8    H     H_    0.289795 0.467340 0.656141 0.229059
H9    H     H_    0.053875 0.439278 0.695389 0.170241
C36   C     C_3   0.864937 0.579629 0.334645 -0.804137
H10   H     H_    0.794798 0.647506 0.338780 0.196311
H11   H     H_    0.988999 0.582464 0.290533 0.202550
H12   H     H_    0.765714 0.530178 0.306578 0.197777
O21   O     O_3   0.774096 0.361907 0.528927 -0.537030
C37   C     C_3   0.700580 0.364598 0.611786 -0.167044
H13   H     H_    0.655658 0.434181 0.632921 0.152944
H14   H     H_    0.807022 0.335641 0.655392 0.110825
H15   H     H_    0.571646 0.320894 0.614990 0.141220
O22   O     O_3   0.221693 0.660158 0.464604 -0.561499
C38   C     C_3   0.208898 0.700628 0.385259 -0.353037
H16   H     H_    0.063097 0.727943 0.374505 0.157181
H17   H     H_    0.257087 0.653233 0.334494 0.146485
H18   H     H_    0.306450 0.759963 0.383518 0.142678
O23   O     O_3   0.631723 0.569640 0.525167 -0.529251
C39   C     C_3   0.617367 0.664403 0.509432 -0.032855
H19   H     H_    0.578209 0.678207 0.444022 0.111578
H20   H     H_    0.750239 0.702319 0.520420 0.059018
H21   H     H_    0.505910 0.694104 0.551971 0.177129
O24   O     O_3   0.368927 0.452793 0.464139 -0.520960
C40   C     C_3   0.434255 0.483009 0.384704 -0.005958
H22   H     H_    0.322550 0.490816 0.336390 0.057635
H23   H     H_    0.544649 0.434416 0.361266 0.163568
H24   H     H_    0.497897 0.550387 0.389412 0.151674
O25   O     O_3   0.646578 0.525407 0.922916 -0.537633
C41   C     C_3   0.639642 0.465819 0.852737 -0.202502
H25   H     H_    0.665833 0.393684 0.870748 0.102499
H26   H     H_    0.744618 0.485090 0.802850 0.109764
H27   H     H_    0.494816 0.470177 0.825167 0.140322
O26   O     O_3   0.357739 0.422042 0.034508 -0.540126
C42   C     C_3   0.372348 0.338500 0.989695 -0.198438
H28   H     H_    0.348380 0.347871 0.921397 0.106389
H29   H     H_    0.270003 0.287156 0.014329 0.112932
H30   H     H_    0.518717 0.309898 0.997233 0.133027
O27   O     O_3   0.828728 0.009421 0.399014 -0.505688
C43   C     C_3   0.793343 0.957989 0.325263 -0.211129
H31   H     H_    0.712623 0.998698 0.279079 0.131525
H32   H     H_    0.714131 0.893690 0.337545 0.071443
H33   H     H_    0.933205 0.938975 0.295621 0.143173
O28   O     O_3   0.180742 0.003209 0.609868 -0.493491
C44   C     C_3   0.225821 0.046884 0.686583 -0.126671
H34   H     H_    0.333496 0.102268 0.679873 0.058318
H35   H     H_    0.278577 0.996751 0.732636 0.122859
H36   H     H_    0.092672 0.078043 0.713394 0.136097
O29   O     O_3   0.836719 0.916209 0.553891 -0.504128
C45   C     C_3   0.938684 0.860275 0.496093 0.007465
H37   H     H_    0.050269 0.900166 0.462738 0.169236
H38   H     H_    0.844799 0.825261 0.450635 0.022853
H39   H     H_    0.015433 0.807100 0.531772 0.139194
O30   O     O_3   0.186260 0.116516 0.475151 -0.498723
C46   C     C_3   0.203915 0.201543 0.516209 -0.067134
H40   H     H_    0.343898 0.234814 0.502626 0.104675
H41   H     H_    0.181008 0.194813 0.584761 0.102662
H42   H     H_    0.089473 0.247470 0.493589 0.164148

loop_
_geom_bond_atom_site_label_1
_geom_bond_atom_site_label_2
_ccdc_geom_bond_type
V4    O20   S    
O25   C41   S    
C29   C31   A    
C10   C13   S    
O13   V3    S    
O21   C37   S    
C39   H21   S    
O4    C2    A    
V1    O19   S    
C43   H32   S    
C45   H37   S    
O9    V1    S    
C25   O29   S    
C37   H14   S    
C10   C16   S    
C11   C13   S    
C39   H20   S    
O3    C1    A    
C18   O26   S    
C11   C35   S    
C7    C14   S    
O12   V4    S    
C23   C28   A    
O26   C42   S    
O28   C44   S    
C32   H6    S    
O9    C5    A    
C36   H11   S    
O7    C3    A    
O30   C46   S    
C9    C11   S    
O5    C7    A    
O7    V1    S    
O6    C8    A    
C42   H28   S    
C20   H2    S    
C23   C25   A    
C37   H15   S    
C24   C26   A    
O3    V1    S    
O14   V4    S    
C40   H23   S    
C10   C12   S    
C1    O11   A    
C2    O12   A    
C24   O28   S    
C17   C19   A    
C41   H25   S    
C18   C20   A    
C43   H31   S    
C26   C28   A    
O11   V3    S    
C46   H41   S    
O15   C5    A    
O17   V3    S    
C17   O25   S    
C31   H5    S    
C24   C27   A    
C5    C21   S    
C37   H13   S    
C6    C22   S    
C39   H19   S    
O8    C4    A    
C44   H36   S    
O8    V2    S    
C38   H17   S    
O22   C38   S    
C41   H27   S    
C35   H8    S    
O15   V3    S    
C30   C32   A    
C25   C27   A    
C36   H12   S    
O23   C39   S    
C35   H9    S    
C29   C34   A    
O10   V2    S    
O1    V3    S    
C30   C33   A    
C9    C15   S    
C40   H24   S    
C41   H26   S    
C19   H1    S    
C9    O21   S    
C42   H29   S    
O18   V4    S    
C29   H3    S    
O16   C6    A    
O1    C3    A    
C12   C36   S    
O29   C45   S    
V2    O20   S    
C46   H42   S    
O16   V4    S    
O18   C8    A    
C12   C15   S    
C2    C27   S    
C23   O27   S    
C38   H18   S    
C45   H38   S    
C46   H40   S    
O5    V1    S    
O17   C7    A    
O6    V2    S    
O10   C6    A    
C31   C33   A    
C9    C14   S    
O2    V4    S    
C32   C34   A    
C16   O24   S    
C44   H35   S    
C11   C16   S    
C15   O23   S    
V3    O19   S    
C44   H34   S    
C10   O22   S    
C14   C16   S    
C3    C34   S    
C8    C13   S    
C4    C33   S    
C12   C14   S    
O13   V1    S    
C17   C22   A    
C30   H4    S    
O14   V2    S    
C18   C21   A    
C36   H10   S    
O2    C4    A    
C45   H39   S    
C38   H16   S    
O4    V2    S    
C42   H30   S    
O24   C40   S    
C13   C15   S    
C35   H7    S    
O27   C43   S    
C1    C28   S    
C40   H22   S    
C19   C21   A    
C43   H33   S    
C20   C22   A    
C26   O30   S    
