data_mof_unit_53530.cif
_audit_creation_date              2012-12-11T15:28:34-0500
_audit_creation_method            fapswitch 2.2
_symmetry_space_group_name_H-M    P1
_symmetry_Int_Tables_number       1
_space_group_crystal_system       triclinic
_cell_length_a                    6.956331
_cell_length_b                    19.598688
_cell_length_c                    23.342054
_cell_angle_alpha                 95.957297
_cell_angle_beta                  91.515929
_cell_angle_gamma                 88.320666
_cell_volume                      3162.91494878

loop_
_atom_site_label
_atom_site_type_symbol
_atom_type_description
_atom_site_fract_x
_atom_site_fract_y
_atom_site_fract_z
_atom_type_partial_charge
O1    O     O_R   0.617180 0.809390 0.808140 -0.522426
O2    O     O_R   0.382820 0.190610 0.191860 -0.522426
O3    O     O_R   0.293300 0.672410 0.795490 -0.523589
O4    O     O_R   0.706700 0.327590 0.204510 -0.523589
O5    O     O_R   0.117220 0.690610 0.691850 -0.523454
O6    O     O_R   0.882780 0.309390 0.308150 -0.523453
C1    C     C_R   0.466073 0.647920 0.805697 0.728123
C2    C     C_R   0.533926 0.352080 0.194302 0.728124
O7    O     O_R   0.287840 0.807750 0.814460 -0.524546
O8    O     O_R   0.712160 0.192250 0.185540 -0.524545
O9    O     O_R   0.111720 0.826910 0.710960 -0.535338
O10   O     O_R   0.888280 0.173090 0.289040 -0.535338
C3    C     C_R   0.456546 0.830748 0.833176 0.716280
C4    C     C_R   0.543454 0.169251 0.166824 0.716279
O11   O     O_R   0.622680 0.673080 0.789040 -0.529506
O12   O     O_R   0.377320 0.326920 0.210960 -0.529506
O13   O     O_3   0.448820 0.756130 0.716020 -0.365736
O14   O     O_3   0.551180 0.243870 0.283980 -0.365736
V1    V     V_3+5 0.176220 0.748860 0.756300 1.466644
V2    V     V_3+5 0.823780 0.251140 0.243700 1.466645
O15   O     O_R   0.781670 0.827580 0.704500 -0.537822
O16   O     O_R   0.218330 0.172420 0.295500 -0.537823
C5    C     C_R   0.947069 0.852034 0.694324 0.689521
C6    C     C_R   0.052931 0.147966 0.305676 0.689521
O17   O     O_R   0.787130 0.692240 0.685530 -0.527156
O18   O     O_R   0.212870 0.307760 0.314470 -0.527156
C7    C     C_R   0.956048 0.669217 0.666784 0.717358
C8    C     C_R   0.043952 0.330783 0.333216 0.717358
V3    V     V_3+5 0.675510 0.751130 0.743690 1.446423
V4    V     V_3+5 0.324490 0.248870 0.256310 1.446423
O19   O     O_3   0.952780 0.743870 0.783980 -0.350390
O20   O     O_3   0.047220 0.256130 0.216020 -0.350390
C9    C     C_1   0.966478 0.617155 0.614732 -0.202236
C10   C     C_1   0.033522 0.382845 0.385268 -0.202236
C11   C     C_1   0.978066 0.573645 0.571919 0.018297
C12   C     C_1   0.021934 0.426355 0.428081 0.018297
C13   C     C_1   0.993380 0.521854 0.521315 0.018220
C14   C     C_1   0.006620 0.478146 0.478685 0.018220
C15   C     C_R   0.943328 0.914183 0.663623 -0.050375
C16   C     C_R   0.056672 0.085817 0.336377 -0.050375
C17   C     C_R   0.846601 0.033471 0.662027 -0.141897
C18   C     C_R   0.153398 0.966529 0.337973 -0.141897
C19   C     C_R   0.868124 0.975334 0.691296 -0.159624
C20   C     C_R   0.131876 0.024666 0.308704 -0.159624
C21   C     C_R   0.996612 0.911447 0.605680 -0.212141
C22   C     C_R   0.003388 0.088553 0.394319 -0.212141
C23   C     C_R   0.971834 0.969890 0.574204 0.087602
C24   C     C_R   0.028166 0.030110 0.425796 0.087602
C25   C     C_R   0.895861 0.031223 0.603953 0.127734
C26   C     C_R   0.104139 0.968777 0.396047 0.127734
C27   C     C_R   0.016251 0.969526 0.514351 0.056609
C28   C     C_R   0.983749 0.030474 0.485649 0.056609
C29   C     C_R   0.908707 0.089760 0.517810 -0.182473
C30   C     C_R   0.091292 0.910239 0.482189 -0.182473
C31   C     C_R   0.866427 0.089954 0.575585 -0.182871
C32   C     C_R   0.133573 0.910046 0.424415 -0.182871
C33   C     C_R   0.492797 0.585430 0.835922 -0.131761
C34   C     C_R   0.507203 0.414569 0.164077 -0.131761
C35   C     C_R   0.660908 0.475429 0.837960 0.491264
C36   C     C_R   0.339093 0.524571 0.162039 0.491264
C37   C     C_R   0.590301 0.529026 0.807831 -0.186963
C38   C     C_R   0.409701 0.470975 0.192168 -0.186963
C39   C     C_R   0.446861 0.584211 0.893956 -0.063747
C40   C     C_R   0.553137 0.415788 0.106044 -0.063747
C41   C     C_R   0.504295 0.527733 0.924876 0.061704
C42   C     C_R   0.495704 0.472267 0.075123 0.061704
C43   C     C_R   0.637571 0.478430 0.898573 -0.095848
C44   C     C_R   0.362429 0.521569 0.101426 -0.095849
C45   C     C_R   0.446055 0.522038 0.982610 -0.082733
C46   C     C_R   0.553944 0.477961 0.017389 -0.082733
C47   C     C_R   0.721774 0.443850 0.994108 0.355182
C48   C     C_R   0.278224 0.556148 0.005892 0.355180
C49   C     C_R   0.754223 0.439387 0.934562 0.413135
C50   C     C_R   0.245775 0.560612 0.065437 0.413136
H1    H     H_    0.619391 0.370076 0.084219 0.157326
H2    H     H_    0.380606 0.629923 0.915781 0.157326
C51   C     C_1   0.467336 0.882813 0.885234 -0.193515
C52   C     C_1   0.532663 0.117187 0.114766 -0.193515
C53   C     C_1   0.478752 0.926330 0.928059 0.023507
C54   C     C_1   0.521248 0.073670 0.071941 0.023507
C55   C     C_1   0.493602 0.978138 0.978678 0.024389
C56   C     C_1   0.506397 0.021862 0.021322 0.024389
H3    H     H_    0.808293 0.136790 0.598305 0.142528
H4    H     H_    0.191706 0.863210 0.401695 0.142528
Cl1   Cl    Cl    0.914463 0.418467 0.039544 -0.576414
Cl2   Cl    Cl    0.085535 0.581531 0.960455 -0.576414
H5    H     H_    0.949291 0.137371 0.413706 0.097459
H6    H     H_    0.050709 0.862629 0.586294 0.097459
H7    H     H_    0.175731 0.022143 0.264314 0.116423
H8    H     H_    0.824269 0.977857 0.735686 0.116423
H9    H     H_    0.787751 0.080208 0.684676 0.137391
H10   H     H_    0.212249 0.919792 0.315324 0.137391
H11   H     H_    0.879908 0.137338 0.499563 0.128275
H12   H     H_    0.120092 0.862662 0.500437 0.128275
Cl3   Cl    Cl    0.967857 0.395842 0.909502 -0.442167
Cl4   Cl    Cl    0.032140 0.604156 0.090497 -0.442168
H13   H     H_    0.381740 0.472062 0.237740 0.143402
H14   H     H_    0.618263 0.527938 0.762260 0.143402
Cl5   Cl    Cl    0.760572 0.404155 0.795362 -0.520068
Cl6   Cl    Cl    0.239431 0.595846 0.204637 -0.520069

loop_
_geom_bond_atom_site_label_1
_geom_bond_atom_site_label_2
_ccdc_geom_bond_type
C34   C38   A    
C42   C44   A    
C39   C41   A    
C35   Cl5   S    
C29   C31   A    
C37   H14   S    
O4    C2    A    
V1    O19   S    
C55   C56   T    
C23   C25   A    
C7    C9    S    
C16   C22   A    
O9    V1    S    
C11   C13   S    
O3    C1    A    
C32   H4    S    
C52   C54   T    
C39   H2    S    
O12   V4    S    
O13   V3    S    
C36   C38   A    
O9    C5    A    
O7    C3    A    
C2    C34   S    
C47   Cl1   S    
O7    V1    S    
O6    C8    A    
O8    V2    S    
C41   C43   A    
O11   V3    S    
C46   C47   A    
C43   C49   A    
C18   H10   S    
C15   C21   A    
C35   C43   A    
C51   C53   T    
C8    C10   S    
C2    O12   A    
O5    C7    A    
C34   C40   A    
C17   C19   A    
C18   C20   A    
C17   C25   A    
C33   C39   A    
C22   C24   A    
C21   C23   A    
O17   V3    S    
C3    C51   S    
C35   C37   A    
C19   H8    S    
C29   H11   S    
C27   C28   A    
C50   Cl4   S    
C21   H6    S    
C48   C50   A    
O8    C4    A    
C47   C49   A    
O13   V1    S    
C15   C19   A    
C1    O11   A    
C25   C31   A    
O15   V3    S    
C26   C32   A    
C40   C42   A    
C45   C48   A    
C13   C14   T    
C38   H13   S    
C48   Cl2   S    
C16   C20   A    
O10   V2    S    
O1    V3    S    
O3    V1    S    
C36   C44   A    
C18   C26   A    
O14   V4    S    
C54   C56   S    
C17   H9    S    
O18   V4    S    
O15   C5    A    
O16   C6    A    
O1    C3    A    
C49   Cl3   S    
C31   H3    S    
C28   C29   A    
C53   C55   S    
C22   H5    S    
V2    O20   S    
C6    C16   S    
O16   V4    S    
C36   Cl6   S    
C23   C27   A    
C30   C32   A    
C33   C37   A    
O5    V1    S    
O17   C7    A    
O6    V2    S    
O10   C6    A    
O18   C8    A    
O2    V4    S    
C27   C30   A    
C12   C14   S    
V3    O19   S    
V4    O20   S    
C42   C46   A    
C41   C45   A    
C24   C26   A    
C9    C11   T    
C40   H1    S    
C1    C33   S    
O14   V2    S    
C4    C52   S    
C45   C46   A    
O2    C4    A    
C30   H12   S    
O4    V2    S    
C24   C28   A    
C10   C12   T    
C44   C50   A    
C5    C15   S    
C20   H7    S    
