data_mof_unit_23196.cif
_audit_creation_date              2012-10-26T19:24:22-0400
_audit_creation_method            fapswitch 2.2
_symmetry_space_group_name_H-M    P1
_symmetry_Int_Tables_number       1
_space_group_crystal_system       triclinic
_cell_length_a                    27.799403
_cell_length_b                    10.855455
_cell_length_c                    9.5783
_cell_angle_alpha                 90.024876
_cell_angle_beta                  90.647
_cell_angle_gamma                 92.464221
_cell_volume                      2887.63481282

loop_
_atom_site_label
_atom_site_type_symbol
_atom_type_description
_atom_site_fract_x
_atom_site_fract_y
_atom_site_fract_z
_atom_type_partial_charge
C1    C     C_R   0.503335 0.262752 0.501102 0.553847
C2    C     C_R   0.972400 0.387994 0.517169 0.018735
C3    C     C_R   0.976622 0.615727 0.508263 0.019029
C4    C     C_R   0.407599 0.499516 0.499836 0.555936
C5    C     C_R   0.949250 0.502171 0.512297 0.033968
C6    C     C_R   0.943341 0.277608 0.514120 -0.139738
C7    C     C_R   0.893417 0.279428 0.511245 -0.111096
C8    C     C_R   0.870355 0.391108 0.510817 0.023789
C9    C     C_R   0.898089 0.502797 0.511257 -0.027253
C10   C     C_R   0.874518 0.615110 0.510488 0.024485
C11   C     C_R   0.823976 0.613625 0.509306 0.398293
C12   C     C_R   0.277197 0.438095 0.400340 -0.061438
C13   C     C_R   0.819898 0.393802 0.509038 0.398989
C14   C     C_R   0.721261 0.498464 0.379058 -0.057655
C15   C     C_R   0.671080 0.497664 0.376983 -0.145098
C16   C     C_R   0.496682 0.737245 0.500863 0.532123
C17   C     C_R   0.671120 0.509016 0.630102 -0.146485
C18   C     C_R   0.721303 0.510092 0.631758 -0.057262
C19   C     C_R   0.746423 0.504488 0.506359 0.247884
C20   C     C_R   0.023525 0.387680 0.523622 0.018894
C21   C     C_R   0.050873 0.500890 0.513069 0.033781
C22   C     C_R   0.027699 0.614770 0.502607 0.018617
C23   C     C_R   0.253968 0.497991 0.508567 0.240725
C24   C     C_R   0.048526 0.277700 0.541092 -0.140865
C25   C     C_R   0.106576 0.721963 0.483311 -0.111913
C26   C     C_R   0.951701 0.726772 0.510755 -0.140076
C27   C     C_R   0.901735 0.726175 0.511559 -0.112217
C28   C     C_R   0.592512 0.500778 0.500751 0.533656
C29   C     C_R   0.056678 0.724085 0.485473 -0.140480
C30   C     C_R   0.521795 0.117339 0.763762 -0.095697
C31   C     C_R   0.512055 0.057311 0.889522 -0.129957
C32   C     C_R   0.488064 0.942557 0.888656 -0.122567
C33   C     C_R   0.478201 0.882747 0.762161 -0.091651
C34   C     C_R   0.102035 0.500190 0.512747 -0.027142
C35   C     C_R   0.492696 0.937153 0.633725 0.027605
C36   C     C_R   0.507378 0.062894 0.634265 0.027158
C37   C     C_R   0.506561 0.128466 0.505541 -0.008612
C38   C     C_R   0.502329 0.063557 0.379381 -0.152662
C39   C     C_R   0.498100 0.936338 0.379238 -0.161701
C40   C     C_R   0.176202 0.390015 0.526680 0.395185
C41   C     C_R   0.493610 0.871530 0.505079 -0.004989
C42   C     C_R   0.563435 0.665421 0.145984 -0.097672
C43   C     C_R   0.594008 0.747075 0.074523 -0.171689
C44   C     C_R   0.594024 0.746782 0.930734 -0.162533
C45   C     C_R   0.125661 0.388660 0.527135 0.025260
C46   C     C_R   0.563385 0.665026 0.857658 -0.079682
C47   C     C_R   0.531002 0.581485 0.926160 0.129098
C48   C     C_R   0.531167 0.581158 0.075722 0.105649
C49   C     C_R   0.469199 0.423440 0.073641 0.381248
C50   C     C_R   0.471381 0.420655 0.923844 -0.019708
C51   C     C_R   0.180148 0.608168 0.496289 0.397247
C52   C     C_R   0.281355 0.557124 0.614667 -0.060914
C53   C     C_R   0.331498 0.557770 0.611487 -0.148683
C54   C     C_R   0.327340 0.438267 0.397719 -0.152391
C55   C     C_3   0.395480 0.303667 0.076413 -0.025044
C56   C     C_R   0.098501 0.278450 0.542580 -0.113266
C57   C     C_3   0.363435 0.407851 0.025119 -0.295060
C58   C     C_3   0.312972 0.358003 0.985329 -0.461062
C59   C     C_R   0.129703 0.611003 0.497818 0.024624
C60   C     C_R   0.354826 0.499622 0.501772 0.005711
C61   C     C_R   0.645520 0.502445 0.502615 0.003382
Cu1   Cu    Cu3+1 0.500000 0.499990 0.640660 0.902386
Cu2   Cu    Cu3+1 0.500000 0.500010 0.359340 0.985574
H1    H     H_    0.344654 0.387667 0.317154 0.134555
H2    H     H_    0.541976 0.204390 0.770218 0.150400
H3    H     H_    0.522130 0.101246 0.987704 0.115134
H4    H     H_    0.256350 0.391015 0.318706 0.130888
H5    H     H_    0.478131 0.898378 0.986120 0.114464
H6    H     H_    0.458006 0.795712 0.767195 0.147644
H7    H     H_    0.497956 0.888811 0.279720 0.135891
H8    H     H_    0.566857 0.672903 0.256031 0.186387
H9    H     H_    0.618079 0.810621 0.131483 0.132491
H10   H     H_    0.618128 0.809992 0.875070 0.134282
H11   H     H_    0.566930 0.671320 0.747792 0.189331
H12   H     H_    0.263733 0.602517 0.699506 0.131640
H13   H     H_    0.449547 0.355911 0.862626 0.124338
H14   H     H_    0.115793 0.191584 0.555841 0.164729
H15   H     H_    0.652372 0.492875 0.277197 0.133283
H16   H     H_    0.740643 0.494199 0.281868 0.124674
H17   H     H_    0.872909 0.192261 0.509105 0.168450
H18   H     H_    0.957932 0.187419 0.511100 0.106579
H19   H     H_    0.030642 0.188921 0.556496 0.106285
H20   H     H_    0.352052 0.604445 0.694089 0.120258
H21   H     H_    0.374312 0.245340 0.150832 0.160750
H22   H     H_    0.404351 0.239451 0.991128 0.115391
H23   H     H_    0.127008 0.808335 0.469920 0.168030
H24   H     H_    0.360807 0.479098 0.107460 0.180406
H25   H     H_    0.379051 0.454244 0.931959 0.149645
H26   H     H_    0.314920 0.287970 0.901205 0.171743
H27   H     H_    0.291186 0.434622 0.946764 0.157728
H28   H     H_    0.294860 0.315671 0.077438 0.149075
H29   H     H_    0.969663 0.816553 0.514625 0.105525
H30   H     H_    0.652451 0.513319 0.728509 0.131108
H31   H     H_    0.884489 0.813799 0.513032 0.164747
H32   H     H_    0.740712 0.514865 0.730397 0.124736
H33   H     H_    0.042024 0.813354 0.470534 0.107306
H34   H     H_    0.502643 0.111027 0.279883 0.148919
N1    N     N_R   0.202339 0.498717 0.510770 -0.397702
N2    N     N_R   0.797909 0.503997 0.508335 -0.399989
N3    N     N_R   0.500460 0.501210 0.147910 -0.230796
N4    N     N_R   0.500480 0.501290 0.852040 -0.281228
O1    O     O_R   0.500000 0.319640 0.618810 -0.517437
O2    O     O_R   0.569730 0.499970 0.618800 -0.524881
O3    O     O_R   0.569740 0.499990 0.381230 -0.527303
O4    O     O_2   0.199064 0.283674 0.542956 -0.500047
O5    O     O_3   0.437275 0.348137 0.150278 -0.538122
O6    O     O_2   0.792985 0.287313 0.508198 -0.488065
O7    O     O_2   0.206817 0.713828 0.479158 -0.495810
O8    O     O_2   0.801027 0.720688 0.508767 -0.490837
O9    O     O_R   0.500000 0.319660 0.381240 -0.455121
O10   O     O_R   0.430260 0.500010 0.618770 -0.512556
O11   O     O_R   0.430270 0.500030 0.381200 -0.450818
O12   O     O_R   0.500000 0.680340 0.618760 -0.534994
O13   O     O_R   0.500000 0.680360 0.381190 -0.529726

loop_
_geom_bond_atom_site_label_1
_geom_bond_atom_site_label_2
_ccdc_geom_bond_type
C10   C27   A    
C31   H3    S    
C55   H22   S    
C8    C13   A    
C47   N4    A    
C22   C29   A    
C11   O8    S    
C35   C36   A    
C13   O6    S    
C52   H12   S    
C16   O12   A    
C57   C58   S    
C7    C8    A    
C39   C41   A    
C54   C60   A    
C12   C23   A    
C26   C27   A    
C37   C38   A    
C36   C37   A    
C40   N1    A    
C30   C31   A    
C31   C32   A    
C15   H15   S    
C26   H29   S    
C11   N2    A    
C18   C19   A    
Cu2   O11   S    
C24   H19   S    
C42   H8    S    
C17   C61   A    
Cu2   O13   S    
Cu1   O10   S    
C20   C24   A    
C45   C56   A    
C51   O7    S    
C58   H28   S    
C33   H6    S    
C32   H5    S    
Cu1   N4    S    
C28   C61   S    
C51   N1    A    
C4    O11   A    
C6    H18   S    
C21   C22   A    
C18   H32   S    
C2    C6    A    
C38   H34   S    
C53   C60   A    
C44   C46   A    
C25   C29   A    
C40   C45   A    
C48   N3    A    
C12   H4    S    
C55   O5    S    
C2    C20   A    
Cu1   O12   S    
C19   N2    S    
C8    C9    A    
C21   C34   A    
Cu2   N3    S    
C56   H14   S    
C57   H24   S    
C13   N2    A    
C43   C44   A    
C5    C9    A    
Cu1   Cu2   S    
C50   H13   S    
C1    O9    A    
C28   O3    A    
C47   C48   A    
C4    C60   S    
C17   C18   A    
C15   C61   A    
C34   C45   A    
C42   C48   A    
C14   H16   S    
C58   H27   S    
C6    C7    A    
C4    O10   A    
C55   C57   S    
C34   C59   A    
C2    C5    A    
C51   C59   A    
C42   C43   A    
C46   H11   S    
C52   C53   A    
Cu1   O2    S    
C9    C10   A    
C43   H9    S    
C46   C47   A    
C14   C19   A    
C3    C26   A    
Cu2   O3    S    
C3    C5    A    
C16   O13   A    
C29   H33   S    
C49   O5    S    
C1    C37   S    
C24   C56   A    
C57   H25   S    
C30   C36   A    
C53   H20   S    
C32   C33   A    
Cu2   O9    S    
C27   H31   S    
C49   N3    A    
C28   O2    A    
C23   C52   A    
C38   C39   A    
C54   H1    S    
C1    O1    A    
C25   H23   S    
C33   C35   A    
C39   H7    S    
C44   H10   S    
C35   C41   A    
C58   H26   S    
C30   H2    S    
C10   C11   A    
C23   N1    S    
C17   H30   S    
C20   C21   A    
C50   N4    A    
C49   C50   A    
C14   C15   A    
C7    H17   S    
C3    C22   A    
C25   C59   A    
C55   H21   S    
C16   C41   S    
C12   C54   A    
C40   O4    S    
Cu1   O1    S    
