data_mof_unit_46381.cif
_audit_creation_date              2012-12-10T18:58:09-0500
_audit_creation_method            fapswitch 2.2
_symmetry_space_group_name_H-M    P1
_symmetry_Int_Tables_number       1
_space_group_crystal_system       triclinic
_cell_length_a                    10.69988
_cell_length_b                    9.961388
_cell_length_c                    15.832546
_cell_angle_alpha                 90.166028
_cell_angle_beta                  91.921139
_cell_angle_gamma                 91.362862
_cell_volume                      1686.08514063

loop_
_atom_site_label
_atom_site_type_symbol
_atom_type_description
_atom_site_fract_x
_atom_site_fract_y
_atom_site_fract_z
_atom_type_partial_charge
C1    C     C_R   0.872579 0.505617 0.498466 -0.416150
C2    C     C_R   0.128326 0.499235 0.501504 -0.404236
C3    C     C_R   0.260675 0.499044 0.500951 0.999025
C4    C     C_R   0.739728 0.501767 0.500287 1.027343
C5    C     C_R   0.499590 0.499683 0.339556 0.869115
C6    C     C_R   0.500658 0.500307 0.660372 0.905988
C7    C     C_R   0.597247 0.573514 0.958673 0.131527
C8    C     C_R   0.413546 0.419064 0.040881 0.134372
C9    C     C_R   0.597019 0.571711 0.046956 0.139300
C10   C     C_R   0.410792 0.425058 0.952792 0.136812
C11   C     C_R   0.503507 0.500931 0.912772 -0.057840
C12   C     C_R   0.504829 0.494786 0.086990 -0.055409
C13   C     C_1   0.503243 0.502030 0.823670 0.069329
C14   C     C_1   0.502343 0.496126 0.176162 0.081323
C15   C     C_1   0.500649 0.498305 0.251087 -0.098037
C16   C     C_1   0.502186 0.501349 0.748753 -0.092813
C17   C     C_R   0.521124 0.072112 0.573262 0.324429
C18   C     C_R   0.468230 0.927268 0.428234 0.374474
C19   C     C_R   0.473814 0.070280 0.427402 0.347229
C20   C     C_R   0.531148 0.928607 0.572090 0.312435
C21   C     C_R   0.059661 0.418482 0.443521 0.349829
C22   C     C_R   0.941763 0.601686 0.547292 0.404114
C23   C     C_R   0.930822 0.411068 0.448249 0.366365
C24   C     C_R   0.070744 0.590643 0.554373 0.381345
N1    N     N_R   0.500000 0.857200 0.500000 -0.210665
N2    N     N_R   0.500000 0.142800 0.500000 -0.203056
O1    O     O_R   0.316770 0.614620 0.499990 -0.641679
O2    O     O_R   0.683230 0.385380 0.500010 -0.584679
O3    O     O_R   0.683230 0.614620 0.500010 -0.596770
O4    O     O_R   0.316770 0.385380 0.499990 -0.610706
O5    O     O_R   0.499980 0.614630 0.378020 -0.573394
O6    O     O_R   0.500020 0.385370 0.621980 -0.576134
O7    O     O_R   0.500020 0.614630 0.621980 -0.542577
O8    O     O_R   0.499980 0.385370 0.378020 -0.555838
Zn1   Zn    Zn3+2 0.500000 0.653120 0.500000 1.012438
Zn2   Zn    Zn3+2 0.500000 0.346880 0.500000 1.022690
O9    O     O_3   0.535114 0.140093 0.648938 -0.569730
C25   C     C_3   0.422436 0.126160 0.692326 -0.207842
H1    H     H_    0.433320 0.182981 0.752448 0.207341
H2    H     H_    0.401010 0.019817 0.708764 0.169210
H3    H     H_    0.342592 0.168947 0.655273 0.155870
O10   O     O_3   0.437270 0.859901 0.353884 -0.527775
C26   C     C_3   0.307071 0.830593 0.349290 -0.203594
H4    H     H_    0.288846 0.723535 0.363233 0.179728
H5    H     H_    0.272510 0.846133 0.283307 0.174095
H6    H     H_    0.250002 0.893148 0.391264 0.067974
O11   O     O_3   0.458160 0.135727 0.351377 -0.541627
C27   C     C_3   0.329725 0.155752 0.333981 -0.076779
H7    H     H_    0.319480 0.256333 0.305716 0.200334
H8    H     H_    0.270009 0.150571 0.390413 0.134344
H9    H     H_    0.294193 0.082963 0.285436 0.163489
O12   O     O_3   0.559709 0.858057 0.645282 -0.572065
C28   C     C_3   0.670251 0.907489 0.687217 -0.095651
H10   H     H_    0.728017 0.820885 0.705939 0.217158
H11   H     H_    0.645733 0.960439 0.745940 0.195388
H12   H     H_    0.729122 0.975633 0.648567 0.114992
I1    I     I_    0.735242 0.683292 0.120984 -0.242055
I2    I     I_    0.265276 0.323449 0.879300 -0.288445
I3    I     I_    0.737460 0.685381 0.893579 -0.258744
I4    I     I_    0.283297 0.292629 0.104528 -0.325600
O13   O     O_3   0.117525 0.349160 0.380842 -0.622251
C29   C     C_3   0.114258 0.428176 0.306931 -0.260751
H13   H     H_    0.187937 0.508634 0.311202 0.125561
H14   H     H_    0.021160 0.472561 0.292991 0.199087
H15   H     H_    0.133309 0.362967 0.252543 0.213593
O14   O     O_3   0.883746 0.701682 0.591186 -0.556256
C30   C     C_3   0.879773 0.819559 0.540948 -0.286115
H16   H     H_    0.781965 0.839225 0.520415 0.198451
H17   H     H_    0.937240 0.817997 0.483358 0.112232
H18   H     H_    0.912922 0.906612 0.579993 0.145456
O15   O     O_3   0.860772 0.326032 0.394591 -0.557758
C31   C     C_3   0.871689 0.192701 0.423563 -0.168453
H19   H     H_    0.849488 0.183238 0.491583 0.125922
H20   H     H_    0.966336 0.153869 0.412717 0.167614
H21   H     H_    0.803211 0.127992 0.387202 0.186116
O16   O     O_3   0.138802 0.654477 0.619741 -0.556481
C32   C     C_3   0.167595 0.789449 0.599155 -0.153406
H22   H     H_    0.156501 0.813660 0.530629 0.092124
H23   H     H_    0.266714 0.811515 0.618195 0.184841
H24   H     H_    0.109912 0.856932 0.636680 0.170962

loop_
_geom_bond_atom_site_label_1
_geom_bond_atom_site_label_2
_ccdc_geom_bond_type
C6    O6    A    
C28   H11   S    
C28   H10   S    
C7    C11   A    
O9    C25   S    
C17   N2    A    
O6    Zn2   S    
C22   C24   A    
C10   I2    S    
C18   O10   S    
C25   H1    S    
C19   O11   S    
C32   H24   S    
C20   N1    A    
C17   C20   A    
C18   C19   A    
C19   N2    A    
C22   O14   S    
C29   H14   S    
C4    O2    A    
C27   H9    S    
O8    Zn2   S    
C4    O3    A    
C27   H8    S    
O14   C30   S    
C1    C22   A    
C18   N1    A    
C31   H21   S    
C7    I3    S    
C26   H6    S    
C32   H23   S    
C30   H16   S    
C23   O15   S    
O16   C32   S    
C25   H3    S    
C31   H20   S    
C24   O16   S    
O1    Zn1   S    
C32   H22   S    
C30   H17   S    
C3    O4    A    
C26   H4    S    
C29   H13   S    
O11   C27   S    
C8    C12   A    
C5    O8    A    
C2    C21   A    
C17   O9    S    
C26   H5    S    
N1    Zn1   S    
N2    Zn2   S    
C27   H7    S    
C12   C14   S    
C1    C23   A    
C21   C23   A    
C2    C24   A    
O5    Zn1   S    
O10   C26   S    
O12   C28   S    
C28   H12   S    
C7    C9    A    
C29   H15   S    
C21   O13   S    
C31   H19   S    
O3    Zn1   S    
C6    O7    A    
O4    Zn2   S    
C30   H18   S    
C1    C4    S    
C3    O1    A    
C2    C3    S    
O15   C31   S    
C20   O12   S    
C8    I4    S    
C25   H2    S    
C11   C13   S    
O7    Zn1   S    
C9    I1    S    
O13   C29   S    
C9    C12   A    
C5    C15   S    
C10   C11   A    
C6    C16   S    
O2    Zn2   S    
C8    C10   A    
C13   C16   T    
C14   C15   T    
C5    O5    A    
