data_mof_unit_20296.cif
_audit_creation_date              2012-12-11T14:08:15-0500
_audit_creation_method            fapswitch 2.2
_symmetry_space_group_name_H-M    P1
_symmetry_Int_Tables_number       1
_space_group_crystal_system       triclinic
_cell_length_a                    10.951785
_cell_length_b                    10.967081
_cell_length_c                    18.619879
_cell_angle_alpha                 90.718287
_cell_angle_beta                  89.977125
_cell_angle_gamma                 59.965446
_cell_volume                      1935.90966938

loop_
_atom_site_label
_atom_site_type_symbol
_atom_type_description
_atom_site_fract_x
_atom_site_fract_y
_atom_site_fract_z
_atom_type_partial_charge
C1    C     C_R   0.243711 0.643066 0.610933 0.561978
C2    C     C_3   0.872180 0.594164 0.769045 -0.301431
C3    C     C_3   0.730858 0.696611 0.807214 0.019837
C4    C     C_3   0.684250 0.659927 0.672997 -0.032159
C5    C     C_3   0.644035 0.817430 0.686030 -0.050059
C6    C     C_3   0.844215 0.560843 0.692730 -0.086482
C7    C     C_2   0.674399 0.166115 0.673254 -0.018280
C8    C     C_2   0.680008 0.177646 0.831112 -0.149124
C9    C     C_2   0.789509 0.150436 0.788785 -0.120989
C10   C     C_2   0.770063 0.182170 0.711832 0.323480
C11   C     C_2   0.195456 0.658322 0.685710 0.054375
C12   C     C_R   0.656821 0.625614 0.599698 0.576807
C13   C     C_2   0.220175 0.648357 0.847839 -0.136408
C14   C     C_2   0.231476 0.542058 0.806219 0.005373
C15   C     C_2   0.255937 0.541903 0.728099 0.310710
C16   C     C_2   0.651579 0.644478 0.317154 -0.012491
C17   C     C_2   0.629245 0.666217 0.158056 0.307414
C18   C     C_2   0.702610 0.547886 0.194808 -0.093654
C19   C     C_2   0.675090 0.539867 0.270351 0.370199
C20   C     C_2   0.680264 0.129305 0.335436 -0.093662
C21   C     C_2   0.654129 0.140021 0.181024 -0.120644
C22   C     C_2   0.627739 0.056141 0.222834 -0.153634
C23   C     C_R   0.627714 0.229969 0.602700 0.610685
C24   C     C_2   0.610650 0.074941 0.300747 0.000838
C25   C     C_2   0.119955 0.681916 0.345718 -0.100169
C26   C     C_2   0.112723 0.692365 0.191104 -0.069233
C27   C     C_2   0.040402 0.805586 0.234842 -0.140218
C28   C     C_2   0.071696 0.801530 0.310530 -0.146482
C29   C     C_R   0.701192 0.104963 0.898745 0.563762
C30   C     C_R   0.758199 0.712354 0.883379 0.559285
C31   C     C_R   0.125428 0.702273 0.910173 0.588306
C32   C     C_R   0.675617 0.105030 0.105586 0.541686
C33   C     C_R   0.691676 0.688972 0.094527 0.557580
C34   C     C_R   0.214878 0.651654 0.404901 0.558180
C35   C     C_R   0.086375 0.713662 0.115408 0.561818
C36   C     C_R   0.642025 0.621260 0.392817 0.588657
C37   C     C_R   0.622715 0.220062 0.398337 0.610734
C38   C     C_3   0.629928 0.635950 0.803007 -0.215753
C39   C     C_3   0.596424 0.622017 0.724629 -0.266371
C40   C     C_3   0.662921 0.840432 0.767309 0.222801
Cr1   Cr    Cr6+3 0.393010 0.398050 0.501480 1.129395
Cr2   Cr    Cr6+3 0.398820 0.707980 0.501630 1.095501
Cr3   Cr    Cr6+3 0.708140 0.393940 0.496850 1.136085
Cr4   Cr    Cr6+3 0.937950 0.938450 0.008940 1.057636
Cr5   Cr    Cr6+3 0.626180 0.937030 0.994750 1.114005
Cr6   Cr    Cr6+3 0.937790 0.625760 0.001410 1.052383
H1    H     H_    0.529735 0.705217 0.832574 0.194113
H2    H     H_    0.733420 0.885830 0.772225 0.129524
H3    H     H_    0.720396 0.836250 0.656014 0.136803
H4    H     H_    0.895560 0.099327 0.810226 0.184358
H5    H     H_    0.573367 0.233319 0.810095 0.163237
H6    H     H_    0.614987 0.122729 0.698130 0.117919
H7    H     H_    0.253163 0.719159 0.826420 0.109641
H8    H     H_    0.679458 0.530584 0.828441 0.140213
H9    H     H_    0.794415 0.457055 0.171300 0.121854
H10   H     H_    0.639303 0.743986 0.299759 0.103170
H11   H     H_    0.613167 0.973408 0.198751 0.197155
H12   H     H_    0.670714 0.223110 0.202300 0.150514
H13   H     H_    0.768045 0.131107 0.309173 0.124781
H14   H     H_    0.967758 0.908610 0.213279 0.157887
H15   H     H_    0.620410 0.511825 0.714414 0.148642
H16   H     H_    0.074539 0.891497 0.333728 0.176680
H17   H     H_    0.186969 0.588068 0.210396 0.111429
H18   H     H_    0.108122 0.595945 0.323921 0.115845
H19   H     H_    0.481435 0.689763 0.715479 0.185939
H20   H     H_    0.941040 0.641346 0.768666 0.151532
H21   H     H_    0.929982 0.493212 0.798290 0.194587
H22   H     H_    0.863225 0.451171 0.693881 0.218350
O1    O     O_R   0.507110 0.256280 0.580300 -0.428748
O2    O     O_R   0.524640 0.695370 0.425100 -0.491345
O3    O     O_R   0.735890 0.504390 0.415980 -0.459416
O4    O     O_R   0.690560 0.277820 0.422350 -0.463974
O5    O     O_3   0.499990 0.499990 0.499980 -0.299950
O6    O     O_R   0.089190 0.825870 0.932320 -0.493451
O7    O     O_R   0.819070 0.053960 0.931440 -0.499173
O8    O     O_R   0.607070 0.076440 0.916460 -0.452846
O9    O     O_R   0.647110 0.806550 0.917690 -0.438580
O10   O     O_R   0.837080 0.593860 0.915300 -0.527583
O11   O     O_R   0.064770 0.636080 0.932550 -0.480019
O12   O     O_R   0.280830 0.527190 0.577940 -0.438953
O13   O     O_R   0.068250 0.829200 0.092940 -0.491858
O14   O     O_R   0.799650 0.057040 0.080330 -0.504760
O15   O     O_R   0.586130 0.079760 0.077080 -0.488556
O16   O     O_R   0.627700 0.809630 0.066580 -0.457165
O17   O     O_R   0.816140 0.597180 0.075920 -0.549734
O18   O     O_R   0.045360 0.639170 0.081440 -0.492129
O19   O     O_3   0.833980 0.833750 0.001700 -0.304099
O20   O     O_R   0.261360 0.738990 0.584270 -0.473531
O21   O     O_R   0.532590 0.694780 0.574370 -0.494315
O22   O     O_R   0.744470 0.503750 0.577000 -0.478659
O23   O     O_R   0.698520 0.277230 0.571620 -0.452524
O24   O     O_R   0.498530 0.256920 0.419280 -0.473620
O25   O     O_R   0.272880 0.527780 0.428680 -0.504532
O26   O     O_R   0.252780 0.739630 0.423250 -0.498108
C41   C     C_2   0.951561 0.556096 0.639424 0.578433
O27   O     O_2   0.072945 0.458294 0.641792 -0.423786
O28   O     O_R   0.912543 0.656932 0.585840 -0.711441
H23   H     H_    0.993660 0.637799 0.552567 0.338292
F1    F     F_    0.851825 0.228290 0.681014 -0.626349
C42   C     C_2   0.236348 0.414977 0.837082 0.630746
O29   O     O_2   0.207773 0.340476 0.799549 -0.415965
O30   O     O_R   0.281253 0.375988 0.907698 -0.682625
H24   H     H_    0.282581 0.286330 0.921775 0.348497
F2    F     F_    0.347840 0.413679 0.698760 -0.595211
C43   C     C_2   0.100650 0.803603 0.713117 0.493221
O31   O     O_2   0.996304 0.831097 0.748889 -0.603892
O32   O     O_R   0.133164 0.908727 0.698080 -0.603813
H25   H     H_    0.068195 0.001454 0.722991 0.383637
F3    F     F_    0.691922 0.415236 0.293460 -0.645311
F4    F     F_    0.506658 0.774880 0.184982 -0.617242
C44   C     C_2   0.515590 0.034708 0.337587 0.595365
O33   O     O_2   0.420085 0.033116 0.304339 -0.462683
O34   O     O_R   0.538177 0.994018 0.409498 -0.675017
H26   H     H_    0.465817 0.970453 0.428526 0.349370
F5    F     F_    0.535341 0.936539 0.799319 -0.577051
C45   C     C_2   0.499928 0.924306 0.657747 0.655783
O35   O     O_2   0.392043 0.938947 0.685469 -0.386879
O36   O     O_R   0.491343 0.004562 0.598258 -0.676702
H27   H     H_    0.390408 0.070989 0.583434 0.361816

loop_
_geom_bond_atom_site_label_1
_geom_bond_atom_site_label_2
_ccdc_geom_bond_type
Cr3   O5    S    
C7    C10   D    
Cr3   O4    S    
C3    C30   S    
C41   O27   D    
C23   O1    A    
C44   O33   D    
C1    C11   S    
C34   O25   A    
C17   F4    S    
C22   H11   S    
O28   H23   S    
C35   O13   A    
C29   O8    A    
C2    C6    S    
C25   C28   D    
C43   O32   S    
C26   C27   D    
Cr5   O8    S    
C8    C29   S    
C12   O22   A    
Cr5   O19   S    
C7    H6    S    
Cr6   O19   S    
Cr4   O14   S    
C27   H14   S    
Cr6   O11   S    
C35   O18   A    
C40   F5    S    
C31   O11   A    
Cr2   O2    S    
C45   O35   D    
C18   C19   S    
C33   O17   A    
O36   H27   S    
C30   O9    A    
C11   C15   D    
Cr1   O25   S    
C20   C24   D    
C3    C38   S    
C8    C9    D    
C11   C43   S    
O32   H25   S    
C15   F2    S    
C4    C12   S    
Cr4   O19   S    
C9    C10   S    
C36   O3    A    
C25   C34   S    
Cr6   O17   S    
C1    O20   A    
C6    H22   S    
C21   C22   D    
C39   H19   S    
C5    H3    S    
Cr5   O15   S    
C24   C44   S    
C17   C33   S    
Cr1   O12   S    
C36   O2    A    
C13   H7    S    
C19   F3    S    
C39   H15   S    
C21   C32   S    
Cr3   O22   S    
C12   O21   A    
C4    C6    S    
C2    H21   S    
Cr6   O10   S    
C31   O6    A    
Cr3   O23   S    
C25   H18   S    
Cr4   O7    S    
C26   H17   S    
C16   H10   S    
C38   H8    S    
C4    C39   S    
C42   O30   S    
C17   C18   D    
C44   O34   S    
C20   H13   S    
Cr4   O6    S    
C8    H5    S    
C38   H1    S    
C18   H9    S    
C3    C40   S    
Cr4   O13   S    
C5    C45   S    
C22   C24   S    
C5    C40   S    
Cr5   O16   S    
Cr2   O20   S    
Cr1   O1    S    
O34   H26   S    
C40   H2    S    
C32   O15   A    
Cr2   O5    S    
Cr3   O3    S    
C37   O24   A    
Cr2   O26   S    
C13   C31   S    
C9    H4    S    
C34   O26   A    
C4    C5    S    
C2    H20   S    
C41   O28   S    
C14   C42   S    
C29   O7    A    
C32   O14   A    
C43   O31   D    
Cr2   O21   S    
C2    C3    S    
C21   H12   S    
C16   C36   S    
C20   C37   S    
C38   C39   S    
C16   C19   D    
C7    C23   S    
C42   O29   D    
C45   O36   S    
C10   F1    S    
C23   O23   A    
O30   H24   S    
C33   O16   A    
Cr1   O5    S    
C30   O10   A    
C26   C35   S    
Cr1   O24   S    
C6    C41   S    
C37   O4    A    
C27   C28   S    
C1    O12   A    
C14   C15   S    
Cr5   O9    S    
C13   C14   D    
Cr6   O18   S    
C28   H16   S    
