data_mof_unit_22531.cif
_audit_creation_date              2012-12-11T14:47:54-0500
_audit_creation_method            fapswitch 2.2
_symmetry_space_group_name_H-M    P1
_symmetry_Int_Tables_number       1
_space_group_crystal_system       triclinic
_cell_length_a                    11.536996
_cell_length_b                    11.510602
_cell_length_c                    19.575292
_cell_angle_alpha                 90.548866
_cell_angle_beta                  90.344306
_cell_angle_gamma                 60.040806
_cell_volume                      2252.10030122

loop_
_atom_site_label
_atom_site_type_symbol
_atom_type_description
_atom_site_fract_x
_atom_site_fract_y
_atom_site_fract_z
_atom_type_partial_charge
C1    C     C_R   0.640584 0.117308 0.599290 0.546662
C2    C     C_1   0.653354 0.149461 0.668662 0.004257
C3    C     C_R   0.525976 0.741417 0.289216 -0.176477
C4    C     C_R   0.612622 0.745965 0.598668 0.548647
C5    C     C_R   0.537133 0.731253 0.219673 -0.153949
C6    C     C_R   0.663001 0.677106 0.190181 -0.008399
C7    C     C_R   0.775773 0.648664 0.229871 -0.127945
C8    C     C_R   0.764472 0.664749 0.300616 0.251130
C9    C     C_R   0.639107 0.705733 0.330214 0.054317
C10   C     C_R   0.142284 0.292587 0.305615 -0.112351
C11   C     C_R   0.121631 0.309824 0.236491 -0.128411
C12   C     C_1   0.641606 0.703991 0.668048 0.005097
C13   C     C_R   0.129656 0.205808 0.195593 0.030444
C14   C     C_R   0.158404 0.083545 0.225215 -0.144037
C15   C     C_R   0.183674 0.064616 0.294999 -0.144978
C16   C     C_R   0.241232 0.145199 0.598288 0.548643
C17   C     C_R   0.179490 0.168166 0.335034 0.030726
C18   C     C_R   0.790232 0.089071 0.307239 -0.147050
C19   C     C_R   0.803301 0.107069 0.238973 -0.128957
C20   C     C_R   0.691043 0.195956 0.199948 0.034531
C21   C     C_R   0.566809 0.272910 0.231168 -0.139065
C22   C     C_R   0.553292 0.253566 0.299931 -0.128788
C23   C     C_1   0.126221 0.198988 0.859180 0.003181
C24   C     C_R   0.664502 0.157936 0.337416 0.031615
C25   C     C_R   0.081450 0.231405 0.928457 0.547478
C26   C     C_R   0.683739 0.604574 0.929416 0.544070
C27   C     C_R   0.708182 0.206886 0.930073 0.547327
C28   C     C_R   0.644578 0.113812 0.403055 0.545755
C29   C     C_R   0.081257 0.237253 0.125945 0.545382
C30   C     C_R   0.682197 0.615240 0.124126 0.551447
C31   C     C_R   0.712744 0.214209 0.128967 0.549244
C32   C     C_R   0.614939 0.741997 0.401401 0.577622
C33   C     C_R   0.241679 0.141543 0.402041 0.547220
C34   C     C_1   0.171669 0.170262 0.727705 -0.030368
C35   C     C_1   0.669954 0.646596 0.860060 0.004728
C36   C     C_1   0.654924 0.683807 0.728460 -0.031005
C37   C     C_1   0.663195 0.666795 0.799673 -0.030897
C38   C     C_3   0.945376 0.693820 0.321598 -0.008771
C39   C     C_3   0.032186 0.693248 0.380527 -0.349999
C40   C     C_1   0.149872 0.182420 0.798891 -0.030464
C41   C     C_1   0.195664 0.160787 0.667448 0.003851
C42   C     C_1   0.678265 0.191644 0.860691 0.003597
C43   C     C_1   0.658768 0.167156 0.729013 -0.030665
C44   C     C_1   0.665545 0.181128 0.800267 -0.030613
Cr1   Cr    Cr6+3 0.404720 0.198220 0.499960 1.025447
Cr2   Cr    Cr6+3 0.698290 0.897110 0.500380 1.034766
Cr3   Cr    Cr6+3 0.396970 0.904720 0.499610 1.023306
Cr4   Cr    Cr6+3 0.926180 0.152240 0.028110 1.025492
Cr5   Cr    Cr6+3 0.921340 0.452070 0.027460 1.025553
Cr6   Cr    Cr6+3 0.626260 0.447120 0.028700 1.031023
H1    H     H_    0.427297 0.779010 0.310654 0.139429
H2    H     H_    0.210595 0.968520 0.317028 0.113198
H3    H     H_    0.877315 0.016958 0.335541 0.120904
H4    H     H_    0.875903 0.800277 0.307423 0.141073
H5    H     H_    0.012055 0.639983 0.277727 0.106030
H6    H     H_    0.105860 0.588533 0.394758 0.146925
H7    H     H_    0.086941 0.745376 0.365185 0.080296
H8    H     H_    0.968817 0.745806 0.425548 0.183824
H9    H     H_    0.902327 0.050553 0.216883 0.135793
H10   H     H_    0.480537 0.344648 0.202287 0.121742
H11   H     H_    0.454674 0.308287 0.322628 0.133519
H12   H     H_    0.449002 0.755117 0.189472 0.137372
H13   H     H_    0.873807 0.604003 0.206769 0.124477
H14   H     H_    0.136447 0.375161 0.335360 0.156589
H15   H     H_    0.096119 0.406458 0.215574 0.125327
H16   H     H_    0.160839 0.003433 0.194632 0.115598
O1    O     O_R   0.267740 0.231990 0.575440 -0.503432
O2    O     O_R   0.596140 0.579600 0.952720 -0.506480
O3    O     O_R   0.639070 0.321380 0.958660 -0.493161
O4    O     O_R   0.527280 0.186680 0.570530 -0.493692
O5    O     O_R   0.821240 0.124490 0.104360 -0.528118
O6    O     O_R   0.036900 0.167320 0.097830 -0.507650
O7    O     O_R   0.056190 0.349890 0.102870 -0.526260
O8    O     O_R   0.797670 0.565150 0.097930 -0.510742
O9    O     O_R   0.595880 0.584540 0.104260 -0.516766
O10   O     O_R   0.638830 0.325960 0.099140 -0.499329
O11   O     O_3   0.824590 0.350480 0.028090 -0.253903
O12   O     O_R   0.685970 0.784630 0.430010 -0.459761
O13   O     O_R   0.728090 0.003480 0.576380 -0.508447
O14   O     O_R   0.682970 0.789220 0.570490 -0.494382
O15   O     O_R   0.499290 0.771920 0.575530 -0.504235
O16   O     O_R   0.285330 0.030900 0.569730 -0.493997
O17   O     O_R   0.270980 0.227040 0.423900 -0.527384
O18   O     O_R   0.530280 0.182090 0.430050 -0.507530
O19   O     O_R   0.731330 0.998530 0.424830 -0.530242
O20   O     O_3   0.875621 0.627960 0.341985 -0.553266
O21   O     O_R   0.502530 0.766960 0.423990 -0.540257
O22   O     O_R   0.288330 0.026310 0.429250 -0.507516
O23   O     O_3   0.499990 0.000020 0.499980 -0.258507
O24   O     O_R   0.821500 0.119550 0.952820 -0.503953
O25   O     O_R   0.037130 0.162750 0.957360 -0.494261
O26   O     O_R   0.056440 0.344950 0.951330 -0.503723
O27   O     O_R   0.797900 0.560570 0.957460 -0.494464

loop_
_geom_bond_atom_site_label_1
_geom_bond_atom_site_label_2
_ccdc_geom_bond_type
C28   O18   A    
C19   C20   A    
C7    C8    A    
Cr2   O23   S    
C42   C44   T    
C38   O20   S    
C18   C24   A    
C5    C6    A    
C22   C24   A    
C13   C29   S    
C36   C37   S    
C35   C37   T    
Cr6   O3    S    
C4    O14   A    
C38   C39   S    
C30   O8    A    
C29   O7    A    
C10   C17   A    
C23   C40   T    
C39   H7    S    
C27   O24   A    
C1    C2    S    
Cr3   O16   S    
C9    C32   S    
C38   H5    S    
C8    C9    A    
Cr4   O25   S    
Cr1   O1    S    
C4    C12   S    
Cr1   O23   S    
C8    O20   S    
C18   H3    S    
C29   O6    A    
C26   O27   A    
C31   O5    A    
Cr4   O24   S    
C13   C14   A    
Cr3   O23   S    
Cr1   O17   S    
C34   C41   T    
C17   C33   S    
Cr4   O6    S    
C25   O25   A    
C4    O15   A    
C21   H10   S    
Cr2   O12   S    
C3    H1    S    
C18   C19   A    
C19   H9    S    
C39   H8    S    
Cr3   O21   S    
Cr4   O11   S    
C43   C44   S    
C3    C9    A    
Cr6   O10   S    
C39   H6    S    
C38   H4    S    
C2    C43   T    
C16   O16   A    
C14   H16   S    
C16   O1    A    
C15   H2    S    
C33   O17   A    
C7    H13   S    
C6    C30   S    
C1    O13   A    
C34   C40   S    
Cr1   O18   S    
C12   C36   T    
Cr5   O26   S    
Cr6   O11   S    
C15   C17   A    
C25   O26   A    
Cr1   O4    S    
C14   C15   A    
C33   O22   A    
C10   H14   S    
C24   C28   S    
C3    C5    A    
C27   O3    A    
C6    C7    A    
C1    O4    A    
C26   O2    A    
Cr3   O22   S    
Cr2   O19   S    
Cr6   O9    S    
C22   H11   S    
Cr2   O14   S    
C30   O9    A    
C11   C13   A    
C27   C42   S    
C31   O10   A    
Cr2   O13   S    
Cr5   O11   S    
C5    H12   S    
Cr5   O7    S    
Cr3   O15   S    
C10   C11   A    
C32   O12   A    
C26   C35   S    
C32   O21   A    
C23   C25   S    
C20   C21   A    
C28   O19   A    
Cr5   O8    S    
Cr4   O5    S    
Cr5   O27   S    
C21   C22   A    
Cr6   O2    S    
C16   C41   S    
C11   H15   S    
C20   C31   S    
