data_mof_unit_23498.cif
_audit_creation_date              2013-03-05T15:48:53-0500
_audit_creation_method            fapswitch 2.2
_symmetry_space_group_name_H-M    P1
_symmetry_Int_Tables_number       1
_space_group_crystal_system       triclinic
_cell_length_a                    15.919012
_cell_length_b                    13.025522
_cell_length_c                    11.831165
_cell_angle_alpha                 101.506457
_cell_angle_beta                  94.082202
_cell_angle_gamma                 93.043766
_cell_volume                      2392.13869013

loop_
_atom_site_label
_atom_site_type_symbol
_atom_site_description
_atom_site_fract_x
_atom_site_fract_y
_atom_site_fract_z
_atom_type_partial_charge
O1    O     O_R   0.504390 0.354460 0.582000 -0.539821
O2    O     O_R   0.493940 0.341410 0.386200 -0.571313
C1    C     C_R   0.499429 0.299540 0.477154 0.821235
O3    O     O_R   0.384660 0.506540 0.597940 -0.577366
O4    O     O_R   0.374210 0.493480 0.402140 -0.549072
C2    C     C_R   0.340536 0.500739 0.499960 0.841105
Cu1   Cu    Cu3+1 0.506190 0.507730 0.615930 1.006971
Cu2   Cu    Cu3+1 0.493810 0.492270 0.384070 1.007840
O5    O     O_R   0.506060 0.658590 0.613800 -0.566563
O6    O     O_R   0.495610 0.645540 0.418000 -0.587571
O7    O     O_R   0.625790 0.506520 0.597860 -0.575698
O8    O     O_R   0.615340 0.493460 0.402060 -0.578399
C3    C     C_R   0.500055 0.701633 0.523370 0.828536
C4    C     C_R   0.659417 0.500675 0.500218 0.815992
C5    C     C_3   0.051423 0.465630 0.602308 -0.312523
C6    C     C_3   0.041547 0.447030 0.385699 -0.245274
C7    C     C_3   0.943896 0.433271 0.394801 -0.262411
H1    H     H_    0.054590 0.379185 0.574145 0.175757
H2    H     H_    0.064174 0.366819 0.382025 0.141829
H3    H     H_    0.933840 0.356774 0.421017 0.187892
C8    C     C_1   0.748665 0.504963 0.500997 -0.053381
C9    C     C_3   0.084438 0.518309 0.501940 0.013430
C10   C     C_3   0.956675 0.488674 0.614820 -0.243750
C11   C     C_3   0.916642 0.517468 0.499788 -0.048923
C12   C     C_3   0.953725 0.634148 0.494381 -0.186924
C13   C     C_3   0.057362 0.637501 0.519641 -0.023044
C14   C     C_1   0.823979 0.510238 0.500737 0.085937
C15   C     C_1   0.176637 0.511961 0.501116 0.082724
C16   C     C_1   0.251577 0.506266 0.500280 0.004171
H4    H     H_    0.953734 0.558696 0.684532 0.234881
C17   C     C_R   0.499760 0.817701 0.539277 -0.172227
C18   C     C_R   0.494461 0.185967 0.462454 -0.106203
C19   C     C_R   0.413834 0.021114 0.389654 -0.118616
C20   C     C_R   0.424778 0.128574 0.397285 -0.155425
C21   C     C_R   0.552985 0.135742 0.523387 -0.052501
C22   C     C_R   0.531878 0.031615 0.535082 0.014176
C23   C     C_R   0.467126 0.970604 0.458137 0.065551
C24   C     C_R   0.454786 0.861984 0.455153 -0.071454
C25   C     C_R   0.548511 0.884988 0.633060 -0.088623
C26   C     C_R   0.567852 0.990807 0.628217 -0.068501
H5    H     H_    0.359632 0.980003 0.336202 0.172518
H6    H     H_    0.377666 0.167189 0.353784 0.174622
N1    N     N_R   0.515490 0.519350 0.790130 -0.172397
N2    N     N_R   0.484510 0.480650 0.209890 -0.238569
C27   C     C_R   0.412437 0.404533 0.017870 0.006879
C28   C     C_R   0.425083 0.410160 0.140268 0.171254
C29   C     C_R   0.536963 0.542477 0.157396 0.302295
C30   C     C_R   0.529443 0.533772 0.034243 0.010560
C31   C     C_R   0.465601 0.467343 0.964065 0.010079
C32   C     C_R   0.458917 0.463551 0.841198 0.072907
C33   C     C_R   0.580896 0.579332 0.859012 0.323521
C34   C     C_R   0.586629 0.588913 0.979096 -0.264600
H7    H     H_    0.409837 0.414179 0.785157 0.141829
H8    H     H_    0.639345 0.637469 0.027814 0.163978
C35   C     C_2   0.908957 0.400112 0.655810 0.856752
O9    O     O_2   0.873446 0.419912 0.745214 -0.553503
O10   O     O_R   0.906088 0.296639 0.593453 -0.761779
H9    H     H_    0.872588 0.245881 0.630694 0.365982
C36   C     C_2   0.105122 0.490148 0.718057 0.896956
O11   O     O_2   0.075557 0.531926 0.807151 -0.537154
O12   O     O_R   0.188016 0.459979 0.723453 -0.766931
H10   H     H_    0.217937 0.482884 0.803785 0.336194
C37   C     C_2   0.917843 0.660358 0.378667 0.942954
O13   O     O_2   0.841293 0.664268 0.361784 -0.568733
O14   O     O_R   0.967925 0.687194 0.295637 -0.731490
H11   H     H_    0.933874 0.704094 0.226710 0.368532
C38   C     C_2   0.393205 0.794968 0.366560 0.866699
O15   O     O_2   0.397427 0.795616 0.263872 -0.577617
O16   O     O_R   0.331904 0.729419 0.400948 -0.761933
H12   H     H_    0.294845 0.686220 0.332964 0.347007
C39   C     C_2   0.572383 0.849801 0.741794 0.852205
O17   O     O_2   0.646239 0.857943 0.780490 -0.561345
O18   O     O_R   0.509338 0.813632 0.803591 -0.712695
H13   H     H_    0.532619 0.796854 0.879318 0.337035
C40   C     C_2   0.613057 0.062806 0.730598 0.890444
O19   O     O_2   0.575207 0.130851 0.788863 -0.571298
O20   O     O_R   0.698913 0.054201 0.758087 -0.673777
H14   H     H_    0.722600 0.108359 0.828589 0.350861
C41   C     C_2   0.640077 0.184985 0.558784 0.824576
O21   O     O_2   0.700543 0.134768 0.529778 -0.548632
O22   O     O_R   0.653507 0.286297 0.626378 -0.721435
H15   H     H_    0.715604 0.309579 0.644383 0.344933
C42   C     C_3   0.653555 0.630104 0.811125 -0.646393
H16   H     H_    0.685477 0.696993 0.875777 0.221308
H17   H     H_    0.701456 0.572157 0.788533 0.249832
H18   H     H_    0.632890 0.662329 0.735787 0.257717
C43   C     C_3   0.344732 0.329086 0.943494 -0.766631
H19   H     H_    0.304767 0.284671 0.992607 0.254927
H20   H     H_    0.301389 0.373477 0.897043 0.227084
H21   H     H_    0.374689 0.270922 0.879644 0.249141
C44   C     C_2   0.378674 0.331279 0.189368 0.878964
O23   O     O_2   0.405981 0.244597 0.182976 -0.592875
O24   O     O_R   0.299335 0.350571 0.228995 -0.717696
H22   H     H_    0.272614 0.288637 0.256682 0.321638
C45   C     C_3   0.605528 0.620586 0.226011 -0.667623
H23   H     H_    0.609388 0.633016 0.319512 0.263689
H24   H     H_    0.668411 0.595251 0.201429 0.235847
H25   H     H_    0.596437 0.699648 0.207141 0.202993
C46   C     C_2   0.071564 0.473443 0.274155 0.901233
O25   O     O_2   0.145499 0.464141 0.254764 -0.565597
O26   O     O_R   0.016773 0.504828 0.191885 -0.702312
H26   H     H_    0.045964 0.518621 0.122413 0.366535
C47   C     C_2   0.889981 0.409166 0.279758 0.947014
O27   O     O_2   0.831625 0.461807 0.259711 -0.551101
O28   O     O_R   0.906610 0.321708 0.196635 -0.724666
H27   H     H_    0.867140 0.311751 0.123572 0.357272
C48   C     C_2   0.092991 0.693179 0.644682 0.885287
O29   O     O_2   0.047789 0.722046 0.722514 -0.546716
O30   O     O_R   0.180634 0.706955 0.671420 -0.745000
H28   H     H_    0.197073 0.741753 0.755226 0.361493
C49   C     C_3   0.105535 0.702034 0.443491 -0.711293
H29   H     H_    0.080133 0.780599 0.449697 0.266581
H30   H     H_    0.173886 0.716093 0.471294 0.258754
H31   H     H_    0.105104 0.662941 0.352223 0.268205
C50   C     C_2   0.917101 0.721255 0.581155 0.895049
O31   O     O_2   0.867072 0.701338 0.648988 -0.558893
O32   O     O_R   0.941170 0.826267 0.581205 -0.727772
H32   H     H_    0.913355 0.877336 0.641065 0.373881

loop_
_geom_bond_atom_site_label_1
_geom_bond_atom_site_label_2
_geom_bond_distance
_ccdc_geom_bond_type
C5    H1    1.113628 S    
C35   O9    1.223399 D    
C37   O14   1.393460 S    
O24   H22   1.013837 S    
O18   H13   1.013537 S    
C45   H23   1.082379 S    
C20   H6    1.081074 S    
C11   C14   1.474093 S    
C43   H19   1.106679 S    
O22   H15   1.013369 S    
C45   H25   1.110970 S    
Cu1   Cu2   2.702373 S    
C49   H30   1.108828 S    
O20   H14   1.013809 S    
Cu1   O7    1.931486 S    
O26   H26   1.014012 S    
C4    C8    1.418168 S    
C22   C23   1.419005 A    
C27   C43   1.519609 S    
C12   C50   1.540125 S    
O4    C2    1.298367 A    
O7    C4    1.297752 A    
C50   O31   1.223840 D    
C7    H3    1.108204 S    
C12   C37   1.553354 S    
O5    C3    1.303301 A    
C5    C9    1.591460 S    
C46   O25   1.222744 D    
C34   H8    1.079727 S    
C6    C7    1.569123 S    
C50   O32   1.400637 S    
C29   C30   1.434571 A    
C48   O29   1.221492 D    
Cu1   N1    2.030327 S    
O12   H10   1.013176 S    
N2    C29   1.390496 A    
C5    C10   1.564962 S    
C8    C14   1.197515 T    
C36   O11   1.223806 D    
C9    C15   1.475041 S    
C48   O30   1.402413 S    
O16   H12   1.014017 S    
O3    Cu1   1.930087 S    
N2    C28   1.382590 A    
C36   O12   1.397465 S    
C7    C11   1.586706 S    
C38   O15   1.223227 D    
C32   H7    1.079997 S    
C10   H4    1.106454 S    
C22   C26   1.414507 A    
C11   C12   1.615948 S    
O3    C2    1.298593 A    
C44   O23   1.221564 D    
C41   O22   1.396915 S    
C28   C44   1.468864 S    
C12   C13   1.652279 S    
C27   C28   1.434402 A    
C19   C23   1.408239 A    
C33   C34   1.397136 A    
C38   O16   1.397651 S    
C21   C22   1.415884 A    
C18   C20   1.394309 A    
C40   O19   1.223075 D    
C18   C21   1.404595 A    
C23   C24   1.411074 A    
C44   O24   1.396118 S    
C42   H16   1.110938 S    
C27   C31   1.414851 A    
Cu2   O8    1.930086 S    
C42   H18   1.095935 S    
C19   C20   1.385333 A    
C47   O28   1.398968 S    
C40   O20   1.397795 S    
C30   C31   1.403848 A    
C46   O26   1.396796 S    
O8    C4    1.297410 A    
O14   H11   1.014229 S    
C35   O10   1.398167 S    
C33   C42   1.502579 S    
C25   C26   1.409560 A    
C39   O18   1.398366 S    
Cu1   O5    1.970319 S    
C15   C16   1.199820 T    
C6    C9    1.584022 S    
C49   H29   1.111015 S    
C42   H17   1.110073 S    
O1    Cu1   1.954540 S    
C5    C36   1.529048 S    
C3    C17   1.486092 S    
C6    C46   1.530276 S    
O2    Cu2   1.970319 S    
Cu2   N2    2.030092 S    
C37   O13   1.226149 D    
O6    C3    1.308262 A    
C13   C48   1.563651 S    
O4    Cu2   1.931487 S    
C45   H24   1.110764 S    
N1    C32   1.373870 A    
C10   C35   1.524957 S    
O28   H27   1.013966 S    
C26   C40   1.488486 S    
C19   H5    1.081346 S    
C17   C24   1.416797 A    
C43   H20   1.107964 S    
O2    C1    1.299561 A    
C7    C47   1.523928 S    
C39   O17   1.222251 D    
O32   H32   1.013945 S    
N1    C33   1.377473 A    
O10   H9    1.013842 S    
C6    H2    1.116824 S    
C21   C41   1.491536 S    
C17   C25   1.420838 A    
C49   H31   1.097512 S    
C1    C18   1.451872 S    
C10   C11   1.582581 S    
C41   O21   1.223312 D    
C30   C34   1.404408 A    
C2    C16   1.422017 S    
C24   C38   1.489777 S    
Cu2   O6    1.954539 S    
C31   C32   1.440711 A    
C9    C13   1.610663 S    
C43   H21   1.110585 S    
C47   O27   1.220869 D    
C29   C45   1.520493 S    
O1    C1    1.297202 A    
O30   H28   1.014006 S    
C13   C49   1.561538 S    
C25   C39   1.481070 S    
