data_mof_unit_51429.cif
_audit_creation_date              2012-12-10T17:37:45-0500
_audit_creation_method            fapswitch 2.2
_symmetry_space_group_name_H-M    P1
_symmetry_Int_Tables_number       1
_space_group_crystal_system       triclinic
_cell_length_a                    12.322305
_cell_length_b                    13.236719
_cell_length_c                    17.320643
_cell_angle_alpha                 105.330054
_cell_angle_beta                  74.222106
_cell_angle_gamma                 116.740592
_cell_volume                      2394.53226014

loop_
_atom_site_label
_atom_site_type_symbol
_atom_type_description
_atom_site_fract_x
_atom_site_fract_y
_atom_site_fract_z
_atom_type_partial_charge
C1    C     C_R   0.144645 0.713478 0.507060 0.777937
C2    C     C_R   0.872860 0.506543 0.794609 -0.195246
C3    C     C_R   0.898663 0.447675 0.155698 -0.156765
C4    C     C_R   0.904594 0.463146 0.236995 -0.248348
C5    C     C_R   0.120165 0.488134 0.199638 0.167658
C6    C     C_R   0.111788 0.470973 0.117927 -0.162036
C7    C     C_R   0.002676 0.452693 0.096065 0.144744
C8    C     C_2   0.945940 0.494249 0.987271 -0.227923
C9    C     C_2   0.002172 0.443881 0.010322 -0.222588
C10   C     C_R   0.014419 0.483783 0.260301 -0.043536
C11   C     C_R   0.736060 0.976267 0.391845 -0.191038
C12   C     C_R   0.987127 0.503799 0.652303 0.787765
C13   C     C_R   0.774850 0.165147 0.471030 -0.048893
C14   C     C_R   0.178430 0.915804 0.559246 -0.188189
C15   C     C_R   0.255348 0.031169 0.574517 -0.146230
C16   C     C_R   0.381661 0.068359 0.545987 -0.183292
C17   C     C_R   0.433600 0.990400 0.498462 0.079570
C18   C     C_R   0.352794 0.875145 0.474941 0.083050
C19   C     C_R   0.562958 0.023287 0.472724 0.073399
C20   C     C_R   0.608586 0.944677 0.417748 0.167193
C21   C     C_R   0.526550 0.836394 0.387763 -0.240542
C22   C     C_R   0.400619 0.802646 0.414970 -0.200965
C23   C     C_R   0.855922 0.286417 0.487957 0.802875
C24   C     C_R   0.648706 0.131816 0.500683 -0.254320
C25   C     C_R   0.818970 0.086462 0.417933 -0.194518
C26   C     C_R   0.226052 0.836306 0.511364 -0.103171
C27   C     C_R   0.640889 0.674452 0.629671 -0.301835
C28   C     C_R   0.250764 0.352064 0.389702 0.066638
C29   C     C_R   0.349772 0.319921 0.365849 -0.255527
C30   C     C_R   0.449287 0.375657 0.407208 -0.194154
C31   C     C_R   0.451136 0.464959 0.473446 -0.005667
C32   C     C_R   0.347285 0.494979 0.495675 0.291871
C33   C     C_R   0.551408 0.525308 0.518515 -0.038120
C34   C     C_R   0.012813 0.495680 0.347372 0.792706
C35   C     C_R   0.545324 0.613959 0.584339 0.178837
C36   C     C_R   0.443830 0.641840 0.604881 -0.288437
C37   C     C_R   0.347245 0.583698 0.561795 -0.191800
C38   C     C_R   0.658202 0.502118 0.501658 0.018623
C39   C     C_R   0.742757 0.647338 0.610072 0.066329
C40   C     C_R   0.978656 0.505228 0.738240 -0.027111
C41   C     C_R   0.076206 0.504577 0.764506 -0.211786
C42   C     C_R   0.067100 0.502670 0.845718 -0.146360
C43   C     C_R   0.959235 0.499399 0.901583 0.190634
C44   C     C_R   0.863504 0.503961 0.875969 -0.173895
Cu1   Cu    Cu3+1 0.900140 0.524980 0.518800 0.934159
Cu2   Cu    Cu3+1 0.099860 0.475020 0.481200 0.922834
H1    H     H_    0.159819 0.506034 0.722475 0.154810
H2    H     H_    0.191756 0.475043 0.070895 0.123399
H3    H     H_    0.916711 0.111382 0.394201 0.148252
H4    H     H_    0.559811 0.777268 0.343071 0.145284
H5    H     H_    0.771348 0.916711 0.349707 0.134233
H6    H     H_    0.620030 0.193178 0.545276 0.147869
H7    H     H_    0.081604 0.888499 0.586580 0.152142
H8    H     H_    0.435398 0.159108 0.560639 0.129391
H9    H     H_    0.217320 0.091882 0.610846 0.142519
H10   H     H_    0.341734 0.720001 0.386439 0.171450
H11   H     H_    0.816782 0.693863 0.644813 0.120464
H12   H     H_    0.822042 0.457553 0.281710 0.158089
H13   H     H_    0.438608 0.709495 0.655290 0.152611
H14   H     H_    0.636747 0.742371 0.680062 0.136198
H15   H     H_    0.670636 0.436369 0.452657 0.120210
H16   H     H_    0.173967 0.308070 0.357293 0.121623
H17   H     H_    0.523263 0.347146 0.386163 0.132998
H18   H     H_    0.349321 0.251394 0.315106 0.143629
H19   H     H_    0.273937 0.611403 0.583049 0.206627
H20   H     H_    0.057947 0.403546 0.965657 0.144453
H21   H     H_    0.780685 0.503437 0.918656 0.122841
H22   H     H_    0.812491 0.430975 0.139521 0.134271
H23   H     H_    0.796657 0.507835 0.775736 0.151960
H24   H     H_    0.890002 0.534235 0.032267 0.147181
H25   H     H_    0.145241 0.505102 0.864476 0.122851
N1    N     N_R   0.749710 0.562810 0.547300 -0.179131
N2    N     N_R   0.249640 0.437820 0.453210 -0.204931
O1    O     O_R   0.025490 0.682370 0.523640 -0.578472
O2    O     O_R   0.194150 0.640180 0.491890 -0.604829
O3    O     O_R   0.905900 0.523560 0.631310 -0.587646
O4    O     O_R   0.074570 0.481370 0.599560 -0.600654
O5    O     O_R   0.805850 0.359820 0.508110 -0.588630
O6    O     O_R   0.974510 0.317630 0.476360 -0.585388
O7    O     O_R   0.925430 0.518630 0.400440 -0.587180
O8    O     O_R   0.094100 0.476440 0.368690 -0.589207
C45   C     C_3   0.243081 0.513961 0.219236 -0.849971
H26   H     H_    0.272263 0.594695 0.263504 0.228964
H27   H     H_    0.236557 0.441904 0.244092 0.243436
H28   H     H_    0.316806 0.525584 0.164363 0.213758

loop_
_geom_bond_atom_site_label_1
_geom_bond_atom_site_label_2
_ccdc_geom_bond_type
C24   H6    S    
C41   C42   A    
C19   C20   A    
C18   C26   A    
C8    C43   S    
C36   H13   S    
Cu1   Cu2   S    
C6    H2    S    
Cu1   O3    S    
C5    C6    A    
C1    O1    A    
C36   C37   A    
C3    C7    A    
C27   H14   S    
C30   C31   A    
C11   C25   A    
C15   C16   A    
C39   H11   S    
C13   C23   S    
C9    H20   S    
C21   H4    S    
C17   C19   A    
C3    H22   S    
C27   C39   A    
C8    C9    D    
C37   H19   S    
C39   N1    A    
C31   C33   A    
Cu1   O5    S    
C34   O8    A    
C2    H23   S    
C38   H15   S    
C34   O7    A    
C29   H18   S    
C21   C22   A    
Cu1   N1    S    
C13   C25   A    
C28   N2    A    
Cu2   O2    S    
C16   H8    S    
C38   N1    A    
C11   C20   A    
C1    O2    A    
C2    C44   A    
C32   N2    A    
C16   C17   A    
C22   H10   S    
C27   C35   A    
C13   C24   A    
Cu1   O1    S    
C35   C36   A    
C15   H9    S    
C12   C40   S    
C43   C44   A    
C29   C30   A    
Cu2   O8    S    
C31   C32   A    
C12   O4    A    
C17   C18   A    
C41   H1    S    
C10   C34   S    
C32   C37   A    
C14   C26   A    
C40   C41   A    
C45   H27   S    
C12   O3    A    
C1    C26   S    
C42   C43   A    
C4    C10   A    
C3    C4    A    
C7    C9    S    
C28   C29   A    
C18   C22   A    
Cu2   O4    S    
C6    C7    A    
C45   H28   S    
C8    H24   S    
C33   C38   A    
C19   C24   A    
C5    C10   A    
C5    C45   S    
Cu2   O6    S    
C42   H25   S    
C33   C35   A    
Cu1   O7    S    
C23   O5    A    
C25   H3    S    
C11   H5    S    
C2    C40   A    
C14   H7    S    
C20   C21   A    
C45   H26   S    
C4    H12   S    
C14   C15   A    
C44   H21   S    
C23   O6    A    
C30   H17   S    
Cu2   N2    S    
C28   H16   S    
