data_mof_unit_6171.cif
_audit_creation_date              2012-12-10T20:38:19-0500
_audit_creation_method            fapswitch 2.2
_symmetry_space_group_name_H-M    P1
_symmetry_Int_Tables_number       1
_space_group_crystal_system       triclinic
_cell_length_a                    9.855934
_cell_length_b                    10.686193
_cell_length_c                    16.715242
_cell_angle_alpha                 90.176173
_cell_angle_beta                  85.073592
_cell_angle_gamma                 89.564048
_cell_volume                      1753.9230035

loop_
_atom_site_label
_atom_site_type_symbol
_atom_type_description
_atom_site_fract_x
_atom_site_fract_y
_atom_site_fract_z
_atom_type_partial_charge
C1    C     C_R   0.500119 0.740213 0.497210 0.881977
C2    C     C_R   0.343123 0.545414 0.781819 -0.199744
C3    C     C_R   0.432730 0.667582 0.160078 -0.248537
C4    C     C_R   0.421376 0.617675 0.236501 -0.208649
C5    C     C_R   0.653070 0.537887 0.216093 -0.298772
C6    C     C_R   0.665510 0.588611 0.138765 0.568188
C7    C     C_R   0.551775 0.647749 0.109538 0.084545
C8    C     C_2   0.444468 0.621874 0.986582 -0.250088
C9    C     C_2   0.549490 0.667075 0.023275 -0.180892
C10   C     C_R   0.530020 0.549702 0.264173 -0.097868
C11   C     C_R   0.381478 0.937475 0.477018 0.137394
C12   C     C_R   0.481059 0.500956 0.653535 0.864904
C13   C     C_R   0.502482 0.871523 0.483165 -0.104485
C14   C     C_R   0.627450 0.934250 0.472594 -0.224252
C15   C     C_R   0.628053 0.063687 0.472378 -0.226499
C16   C     C_R   0.503699 0.128766 0.482679 -0.108546
C17   C     C_R   0.382190 0.065263 0.476804 0.134143
C18   C     C_3   0.250115 0.074912 0.527485 -0.466071
C19   C     C_3   0.249358 0.933256 0.527908 -0.504188
C20   C     C_R   0.918302 0.527629 0.568461 0.223065
C21   C     C_R   0.937894 0.461638 0.434417 -0.145199
C22   C     C_R   0.081842 0.461650 0.434405 -0.143456
C23   C     C_R   0.500949 0.259941 0.496932 0.885166
C24   C     C_R   0.060933 0.527133 0.568635 0.219214
C25   C     C_3   0.057850 0.646839 0.614779 -0.525959
C26   C     C_3   0.904104 0.647285 0.614311 -0.501981
C27   C     C_R   0.518884 0.506918 0.346923 0.886015
C28   C     C_R   0.469760 0.518584 0.740291 -0.036508
C29   C     C_R   0.588159 0.520811 0.780971 -0.216890
C30   C     C_R   0.581157 0.556007 0.860952 -0.143854
C31   C     C_R   0.455405 0.590157 0.901274 0.201317
C32   C     C_R   0.336089 0.581053 0.862069 -0.173529
H1    H     H_    0.686657 0.497098 0.750809 0.152078
H2    H     H_    0.723956 0.884643 0.470668 0.169206
H3    H     H_    0.724773 0.111563 0.470409 0.172336
H4    H     H_    0.261045 0.116665 0.587614 0.206319
H5    H     H_    0.167980 0.116554 0.494204 0.204575
H6    H     H_    0.260214 0.893136 0.588367 0.204867
H7    H     H_    0.166519 0.893555 0.494744 0.201824
H8    H     H_    0.891745 0.432578 0.381048 0.147645
H9    H     H_    0.143814 0.432492 0.381005 0.153438
H10   H     H_    0.092173 0.635065 0.675781 0.194538
H11   H     H_    0.327429 0.632844 0.274002 0.166834
H12   H     H_    0.107100 0.723804 0.579447 0.215457
H13   H     H_    0.850634 0.634892 0.674967 0.198107
H14   H     H_    0.864393 0.725072 0.578682 0.215042
H15   H     H_    0.738171 0.487231 0.237747 0.159212
H16   H     H_    0.642960 0.694861 0.989100 0.174317
H17   H     H_    0.237814 0.602787 0.893355 0.127653
H18   H     H_    0.346067 0.716501 0.138923 0.154586
H19   H     H_    0.250196 0.541677 0.752026 0.146900
H20   H     H_    0.351643 0.593528 0.021450 0.156702
H21   H     H_    0.674072 0.554139 0.891001 0.147882
N1    N     N_R   0.857140 0.500860 0.500530 -0.106413
N2    N     N_R   0.142780 0.500820 0.500530 -0.105675
O1    O     O_R   0.385310 0.683210 0.499990 -0.615557
O2    O     O_R   0.614650 0.683240 0.500000 -0.622179
O3    O     O_R   0.371780 0.500000 0.615800 -0.617114
O4    O     O_R   0.601120 0.500040 0.615800 -0.615217
O5    O     O_R   0.385350 0.316760 0.500000 -0.613761
O6    O     O_R   0.614690 0.316790 0.500010 -0.619413
O7    O     O_R   0.398880 0.499960 0.384200 -0.627832
O8    O     O_R   0.628220 0.500000 0.384200 -0.624067
Zn1   Zn    Zn3+2 0.346870 0.499980 0.499990 0.939304
Zn2   Zn    Zn3+2 0.653130 0.500020 0.500010 0.940790
O9    O     O_3   0.781479 0.565529 0.088079 -0.617308
C33   C     C_3   0.886416 0.643473 0.110883 -0.369713
H22   H     H_    0.856167 0.744058 0.109609 0.161206
H23   H     H_    0.976683 0.630533 0.067147 0.196608
H24   H     H_    0.917609 0.618005 0.171165 0.166860

loop_
_geom_bond_atom_site_label_1
_geom_bond_atom_site_label_2
_ccdc_geom_bond_type
C10   C27   S    
C14   H2    S    
O7    Zn1   S    
O1    Zn1   S    
C29   C30   A    
C19   H6    S    
O6    Zn2   S    
C6    C7    A    
C16   C23   S    
C11   C13   A    
C8    H20   S    
C31   C32   A    
C6    O9    S    
C21   N1    A    
O5    Zn1   S    
C33   H24   S    
C12   O3    A    
N2    Zn1   S    
O8    Zn2   S    
C17   C18   S    
C5    C10   A    
N1    Zn2   S    
C21   C22   A    
O4    Zn2   S    
C24   N2    A    
C2    C32   A    
C5    H15   S    
C30   C31   A    
C11   C19   S    
C22   N2    A    
C21   H8    S    
C20   C26   S    
C12   C28   S    
C5    C6    A    
C19   H7    S    
C25   H12   S    
C15   H3    S    
C28   C29   A    
C27   O7    A    
C4    H11   S    
O9    C33   S    
C25   H10   S    
C3    C7    A    
C12   O4    A    
O3    Zn1   S    
C23   O5    A    
C30   H21   S    
C32   H17   S    
C22   H9    S    
C1    C13   S    
C2    H19   S    
C26   H14   S    
C4    C10   A    
C33   H22   S    
C29   H1    S    
C3    H18   S    
C23   O6    A    
C24   C25   S    
C9    H16   S    
C20   N1    A    
C18   C19   S    
O2    Zn2   S    
C7    C9    S    
C20   C24   A    
C14   C15   A    
C27   O8    A    
C2    C28   A    
C26   H13   S    
C25   C26   S    
C13   C14   A    
C8    C31   S    
C18   H4    S    
C1    O1    A    
C11   C17   A    
C3    C4    A    
C15   C16   A    
C16   C17   A    
C18   H5    S    
C8    C9    D    
C33   H23   S    
C1    O2    A    
