data_mof_unit_54727.cif
_audit_creation_date              2013-03-05T16:23:16-0500
_audit_creation_method            fapswitch 2.2
_symmetry_space_group_name_H-M    P1
_symmetry_Int_Tables_number       1
_space_group_crystal_system       triclinic
_cell_length_a                    27.389315
_cell_length_b                    10.538584
_cell_length_c                    9.793434
_cell_angle_alpha                 89.142689
_cell_angle_beta                  89.15012
_cell_angle_gamma                 91.122295
_cell_volume                      2825.63966178

loop_
_atom_site_label
_atom_site_type_symbol
_atom_site_description
_atom_site_fract_x
_atom_site_fract_y
_atom_site_fract_z
_atom_type_partial_charge
O1    O     O_R   0.500000 0.313960 0.616610 -0.585458
O2    O     O_R   0.500000 0.686040 0.383390 -0.595057
O3    O     O_R   0.500020 0.313950 0.383350 -0.633291
O4    O     O_R   0.499980 0.686050 0.616650 -0.592968
C1    C     C_R   0.500654 0.257850 0.501007 0.976537
C2    C     C_R   0.500029 0.742089 0.498865 0.982068
O5    O     O_R   0.428750 0.500030 0.616610 -0.608018
O6    O     O_R   0.571250 0.499970 0.383390 -0.627476
O7    O     O_R   0.428770 0.500020 0.383360 -0.551434
O8    O     O_R   0.571230 0.499980 0.616640 -0.590340
C3    C     C_R   0.405990 0.505583 0.499911 0.921214
C4    C     C_R   0.593752 0.501313 0.499093 0.927084
Zn1   Zn    Zn3+2 0.499990 0.500010 0.655740 1.020178
Zn2   Zn    Zn3+2 0.500010 0.499990 0.344260 1.007558
C5    C     C_R   0.176134 0.469159 0.415249 0.519446
C6    C     C_R   0.822307 0.671140 0.505177 0.501633
O9    O     O_2   0.199682 0.361856 0.384058 -0.583137
O10   O     O_2   0.798347 0.748557 0.590615 -0.584341
N1    N     N_R   0.201105 0.568226 0.471264 -0.346501
N2    N     N_R   0.797575 0.575689 0.441506 -0.344642
C7    C     C_R   0.179127 0.679293 0.502897 0.524614
C8    C     C_R   0.820447 0.495924 0.353345 0.535521
C9    C     C_R   0.282683 0.611091 0.381034 -0.242467
C10   C     C_R   0.728073 0.445601 0.526771 -0.255843
C11   C     C_R   0.333422 0.598817 0.386627 0.477146
C12   C     C_R   0.677110 0.423674 0.542014 0.454133
C13   C     C_R   0.322577 0.478953 0.600365 -0.290608
C14   C     C_R   0.664762 0.634097 0.440535 -0.244487
C15   C     C_R   0.272394 0.494653 0.594781 -0.102395
C16   C     C_R   0.714601 0.653586 0.425542 -0.080851
C17   C     C_R   0.252611 0.559785 0.484412 0.266822
C18   C     C_R   0.746312 0.558990 0.466763 0.253987
C19   C     C_R   0.102409 0.591826 0.422922 -0.124228
C20   C     C_R   0.897655 0.600542 0.401957 -0.124683
C21   C     C_R   0.126351 0.479097 0.389352 0.010118
C22   C     C_R   0.872641 0.686914 0.484658 0.010288
C23   C     C_R   0.100267 0.379064 0.330685 -0.163956
C24   C     C_R   0.898479 0.784518 0.548539 -0.150422
C25   C     C_R   0.129249 0.694936 0.476706 -0.144370
C26   C     C_R   0.871252 0.506035 0.331624 -0.139402
C27   C     C_R   0.353315 0.527980 0.496053 -0.117331
C28   C     C_R   0.646206 0.519530 0.495523 -0.092831
H1    H     H_    0.337051 0.424488 0.683348 0.205042
H2    H     H_    0.640402 0.707805 0.407125 0.196395
H3    H     H_    0.248795 0.453618 0.674120 0.155328
H4    H     H_    0.728632 0.741081 0.379107 0.159744
H5    H     H_    0.117959 0.291666 0.303986 0.169838
H6    H     H_    0.879906 0.852344 0.611990 0.186863
C29   C     C_R   0.974385 0.509388 0.325273 -0.024044
C30   C     C_R   0.026915 0.708773 0.451078 -0.025111
C31   C     C_R   0.975281 0.705839 0.458032 0.093833
C32   C     C_R   0.025368 0.499631 0.342424 0.097011
C33   C     C_R   0.949218 0.606358 0.393391 0.068971
C34   C     C_R   0.051512 0.600636 0.404113 0.071049
C35   C     C_R   0.947465 0.423459 0.245421 -0.334279
C36   C     C_R   0.054882 0.815043 0.491903 -0.332048
C37   C     C_R   0.896459 0.424686 0.243105 0.538617
C38   C     C_R   0.105749 0.810801 0.498786 0.548350
O11   O     O_2   0.793937 0.406379 0.288918 -0.528707
O12   O     O_2   0.205599 0.772989 0.560577 -0.530439
C39   C     C_R   0.050730 0.389346 0.306403 -0.218209
C40   C     C_R   0.948879 0.795034 0.534095 -0.221077
H7    H     H_    0.754404 0.375731 0.556232 0.146270
H8    H     H_    0.266070 0.657828 0.294846 0.134997
H9    H     H_    0.965188 0.355043 0.181610 0.153297
H10   H     H_    0.038253 0.904350 0.515115 0.154775
H11   H     H_    0.032696 0.306569 0.265688 0.142364
H12   H     H_    0.966538 0.869524 0.590709 0.147439
C41   C     C_3   0.497106 0.036041 0.630175 0.130875
C42   C     C_3   0.504032 0.962278 0.367917 0.073548
C43   C     C_3   0.538514 0.956767 0.569827 0.088577
C44   C     C_3   0.461834 0.042340 0.427447 -0.048649
C45   C     C_3   0.500325 0.876772 0.496359 -0.274820
C46   C     C_3   0.500702 0.123011 0.502555 -0.313179
C47   C     C_3   0.458931 0.954748 0.556004 0.412589
C48   C     C_3   0.541729 0.044258 0.443028 0.419494
C49   C     C_3   0.498088 0.385703 0.051010 -0.119469
C50   C     C_3   0.502168 0.614502 0.948902 -0.108740
C51   C     C_3   0.537026 0.439919 0.950075 -0.160999
C52   C     C_3   0.463095 0.560201 0.049783 -0.123036
H13   H     H_    0.568299 0.390868 0.902610 0.176074
H14   H     H_    0.432151 0.611050 0.095885 0.199513
H15   H     H_    0.495849 0.289236 0.097795 0.187904
H16   H     H_    0.504060 0.710893 0.901589 0.207181
N3    N     N_3   0.499960 0.500030 0.863290 -0.108633
N4    N     N_3   0.500040 0.499970 0.136710 -0.107231
C53   C     C_3   0.461099 0.445912 0.955832 0.284095
C54   C     C_3   0.539076 0.554100 0.044518 0.266962
I1    I     I_    0.492278 0.088956 0.838680 -0.292027
I2    I     I_    0.508072 0.900565 0.161440 -0.316655
O13   O     O_3   0.420645 0.890176 0.628936 -0.620754
C55   C     C_3   0.374366 0.936620 0.596298 0.094281
H17   H     H_    0.346840 0.865632 0.635292 0.174843
H18   H     H_    0.368993 0.941910 0.484732 0.143070
C56   C     C_3   0.364613 0.063215 0.666056 -0.334658
H19   H     H_    0.369570 0.051640 0.777877 0.259426
H20   H     H_    0.390897 0.137530 0.627809 0.245223
C57   C     C_3   0.312802 0.107067 0.639398 -0.869565
H21   H     H_    0.307600 0.123602 0.528311 0.286053
H22   H     H_    0.306346 0.197070 0.693569 0.272728
H23   H     H_    0.285668 0.034700 0.677486 0.273869
O14   O     O_3   0.588485 0.086502 0.397169 -0.630423
C58   C     C_3   0.586292 0.163283 0.278354 0.128000
H24   H     H_    0.590939 0.264007 0.307889 0.182770
H25   H     H_    0.551411 0.153405 0.222421 0.165177
C59   C     C_3   0.628588 0.129071 0.183205 -0.315904
H26   H     H_    0.663740 0.145828 0.235999 0.229089
H27   H     H_    0.625641 0.026735 0.157835 0.262094
C60   C     C_3   0.628567 0.207696 0.051338 -0.916375
H28   H     H_    0.594799 0.187087 0.993706 0.285415
H29   H     H_    0.660571 0.182866 0.986858 0.263587
H30   H     H_    0.630956 0.310571 0.074190 0.271520
I3    I     I_    0.396098 0.347074 0.901776 -0.345299
I4    I     I_    0.606297 0.640314 0.105087 -0.321997
O15   O     O_3   0.654774 0.310830 0.590756 -0.642731
C61   C     C_3   0.686194 0.223693 0.654039 0.120835
H31   H     H_    0.663577 0.165573 0.727361 0.193769
H32   H     H_    0.714435 0.270481 0.717665 0.116355
C62   C     C_3   0.707652 0.133209 0.548493 -0.382910
H33   H     H_    0.677616 0.076314 0.503197 0.281283
H34   H     H_    0.726381 0.187129 0.464083 0.236200
C63   C     C_3   0.743821 0.043315 0.613661 -0.843156
H35   H     H_    0.774774 0.097939 0.657570 0.250619
H36   H     H_    0.758402 0.979145 0.534681 0.292463
H37   H     H_    0.725487 0.984901 0.695460 0.289095
O16   O     O_3   0.363569 0.642481 0.279681 -0.633410
C64   C     C_3   0.355264 0.770810 0.242993 0.051834
H38   H     H_    0.390789 0.822989 0.248643 0.206292
H39   H     H_    0.329507 0.820413 0.312420 0.120465
C65   C     C_3   0.337345 0.778652 0.095683 -0.338467
H40   H     H_    0.363873 0.732546 0.026368 0.240698
H41   H     H_    0.301727 0.727420 0.087688 0.221065
C66   C     C_3   0.331349 0.915963 0.048321 -0.859813
H42   H     H_    0.305953 0.965742 0.117892 0.268618
H43   H     H_    0.316119 0.917729 0.943883 0.260497
H44   H     H_    0.367312 0.966568 0.045568 0.303688
O17   O     O_3   0.871577 0.336266 0.165437 -0.593852
C67   C     C_3   0.876392 0.367635 0.024450 0.075314
H45   H     H_    0.875852 0.277338 0.967341 0.167677
H46   H     H_    0.911540 0.417272 0.996141 0.114317
C68   C     C_3   0.833302 0.447391 0.977972 -0.302408
H47   H     H_    0.798485 0.396005 0.003885 0.260622
H48   H     H_    0.833775 0.539217 0.032328 0.221681
C69   C     C_3   0.835484 0.473746 0.824163 -0.949376
H49   H     H_    0.869533 0.527412 0.795652 0.272408
H50   H     H_    0.803714 0.531184 0.794111 0.293700
H51   H     H_    0.834152 0.383330 0.767320 0.253624
O18   O     O_3   0.132045 0.918990 0.533677 -0.593444
C70   C     C_3   0.135468 0.003963 0.420037 0.095215
H52   H     H_    0.144039 0.099947 0.459676 0.190531
H53   H     H_    0.100337 0.012161 0.364717 0.106058
C71   C     C_3   0.176783 0.967283 0.321172 -0.340207
H54   H     H_    0.211975 0.966381 0.376206 0.261506
H55   H     H_    0.169460 0.870915 0.280924 0.206655
C72   C     C_3   0.181453 0.059965 0.200362 -0.917844
H56   H     H_    0.146555 0.063569 0.144191 0.259598
H57   H     H_    0.210616 0.028385 0.129356 0.270589
H58   H     H_    0.191327 0.156322 0.236037 0.307064
I5    I     I_    0.599796 0.884951 0.678237 -0.309166
I6    I     I_    0.407552 0.129701 0.301165 -0.387172

loop_
_geom_bond_atom_site_label_1
_geom_bond_atom_site_label_2
_geom_bond_distance
_ccdc_geom_bond_type
C29   C33   1.413817 A    
O16   C64   1.417661 S    
C72   H57   1.110498 S    
C44   C46   1.550374 S    
C56   H19   1.110694 S    
C51   N3    1.479524 S    
O7    Zn2   1.982857 S    
N1    C17   1.422887 S    
C64   H39   1.115394 S    
C56   C57   1.525954 S    
O2    C2    1.283677 A    
C5    N1    1.363440 A    
C19   C25   1.412769 A    
C46   C48   1.524121 S    
O1    C1    1.285147 A    
C6    N2    1.365348 A    
N1    C7    1.364293 A    
C10   C12   1.415710 A    
C52   C53   1.527202 S    
C32   C39   1.412236 A    
C68   H48   1.111372 S    
C43   C48   1.535997 S    
N4    C54   1.488561 S    
C13   C15   1.389422 A    
C59   H26   1.111906 S    
C49   H15   1.109046 S    
O15   C61   1.413396 S    
O4    Zn1   1.991999 S    
C61   H31   1.110543 S    
C14   C28   1.398020 A    
C1    C46   1.420887 S    
C41   C43   1.538045 S    
C13   C27   1.400350 A    
C12   O15   1.400783 S    
C52   N4    1.478548 S    
C60   H29   1.110446 S    
C61   H32   1.112767 S    
C66   H44   1.110670 S    
C4    C28   1.445538 S    
C41   C47   1.536520 S    
C23   H5    1.082794 S    
C24   H6    1.083502 S    
C47   O13   1.417081 S    
N3    C53   1.487180 S    
C72   H58   1.108629 S    
C45   C47   1.527441 S    
C42   I2    2.135350 S    
C31   C40   1.411740 A    
C69   H51   1.110985 S    
C41   I1    2.127691 S    
C5    C21   1.396260 A    
C51   C54   1.529305 S    
C35   H9    1.078976 S    
C32   C34   1.418799 A    
O5    C3    1.311017 A    
C62   H34   1.109669 S    
C48   O14   1.412260 S    
C72   H56   1.110879 S    
O18   C70   1.418831 S    
Zn2   N4    2.032618 S    
C7    O12   1.349295 S    
C69   H50   1.110442 S    
C60   H28   1.110161 S    
C70   C71   1.537280 S    
C11   C27   1.418427 A    
O13   C55   1.407153 S    
C43   C45   1.525921 S    
C29   C35   1.409761 A    
C25   C38   1.409457 A    
C14   H2    1.083879 S    
C55   C56   1.534215 S    
C30   C36   1.410580 A    
C15   H3    1.082861 S    
C31   C33   1.418945 A    
C9    C17   1.391832 A    
C65   H41   1.110070 S    
C11   O16   1.391246 S    
C10   C18   1.403485 A    
C50   H16   1.110150 S    
C39   H11   1.078578 S    
C7    C25   1.406150 A    
C71   C72   1.525204 S    
C38   O18   1.386448 S    
O6    C4    1.298033 A    
C29   C32   1.414477 A    
C8    C26   1.406282 A    
C42   C45   1.537299 S    
C55   H18   1.105374 S    
C30   C31   1.414549 A    
C49   C51   1.539132 S    
C37   O17   1.386729 S    
C41   C46   1.539607 S    
C58   H25   1.112199 S    
C30   C34   1.414460 A    
O7    C3    1.295334 A    
C49   C53   1.527530 S    
O3    Zn2   1.992001 S    
O8    C4    1.297722 A    
C50   N3    1.480162 S    
O4    C2    1.287987 A    
C9    H8    1.081591 S    
C71   H55   1.110551 S    
C49   N4    1.478669 S    
C10   H7    1.079883 S    
C57   H22   1.109597 S    
C35   C37   1.397863 A    
C42   C48   1.536294 S    
C66   H42   1.110937 S    
C20   C26   1.412966 A    
C60   H30   1.111168 S    
C65   C66   1.525650 S    
O1    Zn1   2.003427 S    
C63   H36   1.110034 S    
C64   H38   1.110738 S    
C67   C68   1.532936 S    
C8    O11   1.349232 S    
C12   C28   1.405488 A    
C2    C45   1.419078 S    
C51   H13   1.108912 S    
N2    C18   1.429066 S    
C62   C63   1.524341 S    
C50   C54   1.529516 S    
C19   C34   1.413538 A    
C5    O9    1.349471 S    
C68   C69   1.527701 S    
O6    Zn2   1.994066 S    
C26   C37   1.410962 A    
C21   C23   1.397373 A    
C16   H4    1.083088 S    
N2    C8    1.367781 A    
C69   H49   1.111059 S    
O3    C1    1.287695 A    
O8    Zn1   1.982860 S    
C23   C39   1.386992 A    
C62   H33   1.110199 S    
C56   H20   1.110442 S    
C67   H46   1.115922 S    
C57   H23   1.110923 S    
C43   I5    2.143788 S    
O17   C67   1.418586 S    
C44   I6    2.159092 S    
C61   C62   1.535125 S    
C40   H12   1.078748 S    
C63   H37   1.110894 S    
C70   H53   1.115411 S    
C65   H40   1.110796 S    
C64   C65   1.532321 S    
C14   C16   1.381776 A    
C15   C17   1.393840 A    
C68   H47   1.111531 S    
C6    C22   1.396561 A    
C16   C18   1.394062 A    
C44   C47   1.550135 S    
C59   H27   1.112009 S    
C36   H10   1.079361 S    
C22   C24   1.397892 A    
C55   H17   1.111176 S    
C19   C21   1.408999 A    
C52   H14   1.105911 S    
C36   C38   1.397402 A    
C3    C27   1.467418 S    
C58   C59   1.527974 S    
C50   C52   1.541609 S    
C9    C11   1.400034 A    
C54   I4    2.133109 S    
O14   C58   1.410019 S    
O2    Zn2   2.003425 S    
C53   I3    2.122885 S    
C67   H45   1.110942 S    
C13   H1    1.073116 S    
O5    Zn1   1.994061 S    
C71   H54   1.111438 S    
C20   C22   1.408519 A    
C20   C33   1.413600 A    
C6    O10   1.349640 S    
C57   H21   1.110923 S    
Zn1   N3    2.032617 S    
C58   H24   1.109771 S    
C66   H43   1.110352 S    
C42   C44   1.555807 S    
C63   H35   1.110914 S    
C70   H52   1.110930 S    
C24   C40   1.387676 A    
C59   C60   1.523937 S    
