data_mof_unit_48594.cif
_audit_creation_date              2013-03-05T16:47:42-0500
_audit_creation_method            fapswitch 2.2
_symmetry_space_group_name_H-M    P1
_symmetry_Int_Tables_number       1
_space_group_crystal_system       triclinic
_cell_length_a                    10.89282
_cell_length_b                    12.966093
_cell_length_c                    11.732651
_cell_angle_alpha                 98.42177
_cell_angle_beta                  94.983017
_cell_angle_gamma                 90.43533
_cell_volume                      1632.67675153

loop_
_atom_site_label
_atom_site_type_symbol
_atom_site_description
_atom_site_fract_x
_atom_site_fract_y
_atom_site_fract_z
_atom_type_partial_charge
O1    O     O_R   0.506570 0.354460 0.582000 -0.515152
O2    O     O_R   0.493430 0.645540 0.418000 -0.515219
O3    O     O_R   0.490940 0.341410 0.386200 -0.610761
O4    O     O_R   0.509060 0.658590 0.613800 -0.610799
C1    C     C_R   0.494291 0.300127 0.480044 0.895272
C2    C     C_R   0.505715 0.699871 0.519953 0.894166
O5    O     O_R   0.327460 0.506540 0.597900 -0.561527
O6    O     O_R   0.672540 0.493460 0.402100 -0.561499
O7    O     O_R   0.311830 0.493480 0.402100 -0.589947
O8    O     O_R   0.688170 0.506520 0.597900 -0.589847
C3    C     C_R   0.262141 0.501157 0.498772 0.830034
C4    C     C_R   0.737859 0.498853 0.501229 0.830857
Cu1   Cu    Cu3+1 0.509250 0.507730 0.615930 1.029200
Cu2   Cu    Cu3+1 0.490750 0.492270 0.384070 1.029209
H1    H     H_    0.166269 0.480137 0.956076 0.166085
H2    H     H_    0.833780 0.520006 0.043963 0.166133
C5    C     C_R   0.155525 0.575477 0.121199 -0.130059
C6    C     C_R   0.844495 0.424622 0.878863 -0.130303
H3    H     H_    0.182349 0.646619 0.091020 0.166557
H4    H     H_    0.817675 0.353494 0.909072 0.166491
C7    C     C_R   0.127522 0.577840 0.235595 -0.039726
C8    C     C_R   0.872482 0.422223 0.764457 -0.039604
H5    H     H_    0.130014 0.651335 0.292739 0.205601
H6    H     H_    0.869983 0.348713 0.707344 0.205799
C9    C     C_R   0.092592 0.485902 0.275185 0.108394
C10   C     C_R   0.907408 0.514142 0.724826 0.108374
C11   C     C_R   0.083810 0.391773 0.198436 -0.181763
C12   C     C_R   0.916199 0.608288 0.801545 -0.181868
H7    H     H_    0.054212 0.320588 0.226997 0.149335
H8    H     H_    0.945797 0.679459 0.772955 0.149379
C13   C     C_R   0.110518 0.389831 0.083675 -0.153304
C14   C     C_R   0.889508 0.610266 0.916315 -0.153306
H9    H     H_    0.102993 0.317304 0.024476 0.156553
H10   H     H_    0.897043 0.682806 0.975491 0.156536
C15   C     C_R   0.146190 0.481661 0.045062 -0.103026
C16   C     C_R   0.853843 0.518454 0.954969 -0.102972
C17   C     C_R   0.923240 0.488156 0.397567 -0.170791
C18   C     C_R   0.076760 0.511846 0.602438 -0.170756
H11   H     H_    0.864536 0.479536 0.317082 0.188823
H12   H     H_    0.135465 0.520464 0.682923 0.188811
C19   C     C_R   0.871998 0.497920 0.503756 -0.059690
C20   C     C_R   0.128002 0.502088 0.496249 -0.059832
C21   C     C_R   0.950290 0.509118 0.607981 -0.015059
C22   C     C_R   0.049709 0.490891 0.392025 -0.015101
C23   C     C_R   0.520531 0.811798 0.528192 -0.124626
C24   C     C_R   0.479610 0.188184 0.471778 -0.124583
C25   C     C_R   0.348959 0.033653 0.429734 -0.087961
C26   C     C_R   0.651301 0.966268 0.570087 -0.088079
C27   C     C_R   0.365873 0.139717 0.426866 0.093859
C28   C     C_R   0.634319 0.860215 0.573027 0.094133
C29   C     C_R   0.574373 0.131896 0.521579 0.312351
C30   C     C_R   0.425850 0.868100 0.478343 0.312542
C31   C     C_R   0.556818 0.024812 0.523521 -0.036714
C32   C     C_R   0.443425 0.975163 0.476385 -0.036486
H13   H     H_    0.260353 0.997744 0.397248 0.197713
H14   H     H_    0.739977 0.002101 0.602433 0.197807
N1    N     N_R   0.523180 0.519350 0.790130 -0.237827
N2    N     N_R   0.476820 0.480650 0.209870 -0.237810
C33   C     C_R   0.415409 0.381835 0.023490 -0.259654
C34   C     C_R   0.584585 0.618168 0.976509 -0.259629
C35   C     C_R   0.419313 0.395783 0.144522 0.024621
C36   C     C_R   0.580678 0.604222 0.855478 0.024623
C37   C     C_R   0.532592 0.554518 0.156344 0.514639
C38   C     C_R   0.467415 0.445479 0.843657 0.514523
C39   C     C_R   0.529439 0.543858 0.033610 -0.082417
C40   C     C_R   0.470559 0.456144 0.966391 -0.082411
H15   H     H_    0.624050 0.662037 0.814013 0.147819
H16   H     H_    0.375934 0.337972 0.185986 0.147788
H17   H     H_    0.367868 0.313262 0.975647 0.204527
H18   H     H_    0.632124 0.686743 0.024351 0.204520
N3    N     N_R   0.403339 0.357660 0.775914 0.119706
O9    O     O_R   0.452126 0.266039 0.771996 -0.347097
O10   O     O_R   0.286168 0.363858 0.746069 -0.408126
N4    N     N_R   0.596703 0.642319 0.224089 0.119735
O11   O     O_R   0.547958 0.733956 0.228008 -0.346896
O12   O     O_R   0.713875 0.636088 0.253911 -0.408262
N5    N     N_R   0.313436 0.815460 0.427349 0.097357
O13   O     O_R   0.245800 0.766968 0.489728 -0.411304
O14   O     O_R   0.284121 0.808917 0.316565 -0.370727
N6    N     N_R   0.686853 0.184541 0.572465 0.097740
O15   O     O_R   0.753390 0.234397 0.510516 -0.411846
O16   O     O_R   0.716742 0.190390 0.683086 -0.371059
C41   C     C_3   0.740527 0.798941 0.618240 -0.802546
H19   H     H_    0.824766 0.848451 0.644693 0.234196
H20   H     H_    0.715606 0.765474 0.694928 0.222470
H21   H     H_    0.763430 0.735011 0.550030 0.234876
C42   C     C_3   0.259652 0.200937 0.381596 -0.802723
H22   H     H_    0.175433 0.151401 0.355148 0.234172
H23   H     H_    0.236710 0.264881 0.449757 0.234875
H24   H     H_    0.284579 0.234367 0.304901 0.222494

loop_
_geom_bond_atom_site_label_1
_geom_bond_atom_site_label_2
_geom_bond_distance
_ccdc_geom_bond_type
O5    Cu1   1.972818 S    
C42   H22   1.110683 S    
C37   C39   1.423693 A    
C2    C23   1.447130 S    
C11   H7    1.083046 S    
C27   C42   1.510507 S    
N1    C36   1.360174 A    
C25   C27   1.391814 A    
N5    O13   1.301993 A    
O5    C3    1.302099 A    
C24   C27   1.408988 A    
N4    O12   1.300087 A    
C36   H15   1.078522 S    
O1    C1    1.291912 A    
C14   C16   1.398381 A    
C8    H6    1.080551 S    
C18   C20   1.398390 A    
C33   C40   1.410030 A    
Cu1   N1    2.019539 S    
C3    C20   1.459065 S    
C34   C36   1.401835 A    
C38   N3    1.428947 S    
O4    Cu1   1.959896 S    
C29   N6    1.436801 S    
C28   C41   1.510582 S    
C13   H9    1.082164 S    
N2    C35   1.360169 A    
C26   C28   1.391919 A    
Cu1   Cu2   2.688014 S    
C19   C21   1.417271 A    
O2    C2    1.291882 A    
C20   C22   1.417260 A    
C9    C22   1.478959 S    
H1    C15   1.082569 S    
C30   C32   1.403685 A    
C10   C21   1.478973 S    
N5    O14   1.301456 A    
C26   C31   1.403428 A    
Cu2   N2    2.019538 S    
C33   C35   1.401834 A    
N4    O11   1.301396 A    
C11   C13   1.398723 A    
C12   C14   1.398721 A    
N6    O16   1.301390 A    
N3    O10   1.300089 A    
C23   C30   1.403698 A    
C31   C32   1.418048 A    
C24   C29   1.403983 A    
C5    C7    1.398087 A    
C29   C31   1.403890 A    
C38   C40   1.423689 A    
O7    Cu2   1.978506 S    
C4    C19   1.459060 S    
C41   H19   1.110694 S    
C34   H18   1.081722 S    
O6    C4    1.302104 A    
O7    C3    1.289850 A    
O3    Cu2   1.959895 S    
O8    C4    1.289840 A    
C33   H17   1.081722 S    
C25   C32   1.403276 A    
O4    C2    1.290789 A    
C41   H20   1.107501 S    
C34   C39   1.410033 A    
C7    H5    1.080580 S    
C13   C15   1.398394 A    
O1    Cu1   1.968273 S    
C30   N5    1.436544 S    
N1    C38   1.383632 A    
C25   H13   1.082075 S    
N2    C37   1.383634 A    
C26   H14   1.082018 S    
C7    C9    1.402701 A    
O6    Cu2   1.972818 S    
C6    C8    1.398079 A    
N6    O15   1.301328 A    
O3    C1    1.290772 A    
O8    Cu1   1.978506 S    
C37   N4    1.428957 S    
C9    C11   1.403898 A    
C1    C24   1.447162 S    
C10   C12   1.403896 A    
C17   C22   1.385193 A    
C12   H8    1.083037 S    
N3    O9    1.301399 A    
C17   H11   1.084532 S    
H2    C16   1.082565 S    
C18   H12   1.084533 S    
C35   H16   1.078513 S    
C23   C28   1.408994 A    
C5    H3    1.082207 S    
C6    H4    1.082197 S    
C17   C19   1.398383 A    
O2    Cu2   1.968274 S    
C18   C21   1.385201 A    
C41   H21   1.110544 S    
C39   C40   1.401836 A    
C8    C10   1.402698 A    
C42   H24   1.107351 S    
C42   H23   1.110427 S    
C5    C15   1.397152 A    
C6    C16   1.397139 A    
C14   H10   1.082160 S    
