data_mof_unit_12144.cif
_audit_creation_date              2012-12-11T14:43:40-0500
_audit_creation_method            fapswitch 2.2
_symmetry_space_group_name_H-M    P1
_symmetry_Int_Tables_number       1
_space_group_crystal_system       triclinic
_cell_length_a                    20.734606
_cell_length_b                    7.095587
_cell_length_c                    16.615923
_cell_angle_alpha                 91.257407
_cell_angle_beta                  92.533144
_cell_angle_gamma                 90.118853
_cell_volume                      2441.61614719

loop_
_atom_site_label
_atom_site_type_symbol
_atom_type_description
_atom_site_fract_x
_atom_site_fract_y
_atom_site_fract_z
_atom_type_partial_charge
O1    O     O_R   0.564840 0.505290 0.579830 -0.526874
O2    O     O_R   0.435160 0.005290 0.420170 -0.519841
O3    O     O_R   0.556720 0.179930 0.409350 -0.542759
O4    O     O_R   0.443280 0.679930 0.590650 -0.508508
C1    C     C_R   0.572048 0.343971 0.383381 0.813502
C2    C     C_R   0.429112 0.847352 0.618778 0.807056
O5    O     O_R   0.572280 0.175810 0.578530 -0.523308
O6    O     O_R   0.427720 0.675810 0.421470 -0.525584
O7    O     O_R   0.450830 0.001920 0.590540 -0.551421
O8    O     O_R   0.549170 0.501920 0.409460 -0.531800
C3    C     C_R   0.590258 0.346284 0.604399 0.839013
C4    C     C_R   0.410468 0.842807 0.394713 0.830831
O9    O     O_3   0.460130 0.338030 0.503750 -0.360432
O10   O     O_3   0.539870 0.838030 0.496250 -0.378173
V1    V     V_3+5 0.507400 0.064560 0.499310 1.668748
V2    V     V_3+5 0.492600 0.564560 0.500690 1.709309
C5    C     C_R   0.144258 0.913056 0.166585 -0.155814
C6    C     C_R   0.862557 0.405663 0.824464 -0.174598
C7    C     C_R   0.359092 0.846054 0.329084 -0.252284
C8    C     C_R   0.643913 0.367791 0.666856 -0.267542
C9    C     C_R   0.315829 0.725286 0.198143 0.361067
C10   C     C_R   0.690145 0.553874 0.780871 0.362338
C11   C     C_R   0.365273 0.733256 0.259237 0.317333
C12   C     C_R   0.637095 0.501428 0.730048 0.307913
C13   C     C_R   0.303977 0.959688 0.335749 0.260259
C14   C     C_R   0.704719 0.281343 0.657487 0.352988
C15   C     C_R   0.251064 0.938314 0.279088 0.021370
C16   C     C_R   0.758131 0.330355 0.710811 -0.007119
C17   C     C_R   0.256007 0.821008 0.208939 -0.096695
C18   C     C_R   0.749631 0.457007 0.776416 -0.114487
C19   C     C_R   0.201188 0.807480 0.152878 -0.135841
C20   C     C_R   0.800428 0.479617 0.836366 -0.030190
C21   C     C_R   0.137358 0.000405 0.242692 -0.071366
C22   C     C_R   0.873664 0.306112 0.751346 -0.061398
C23   C     C_R   0.191693 0.022849 0.295043 -0.074516
C24   C     C_R   0.820576 0.260930 0.698247 -0.017644
H1    H     H_    0.185854 0.096445 0.351900 0.215849
H2    H     H_    0.828929 0.175529 0.645056 0.231672
C25   C     C_R   0.377155 0.052693 0.815701 0.372071
C26   C     C_R   0.619365 0.418981 0.173705 0.414164
H3    H     H_    0.462863 0.048790 0.748852 0.189530
H4    H     H_    0.533119 0.336574 0.229947 0.218736
C27   C     C_R   0.389284 0.873330 0.690722 -0.140298
C28   C     C_R   0.614003 0.351860 0.314678 -0.186632
C29   C     C_R   0.076343 0.842777 0.733270 -0.236786
C30   C     C_R   0.924302 0.381618 0.267532 -0.247873
C31   C     C_R   0.110161 0.853493 0.661780 0.311220
C32   C     C_R   0.890560 0.291014 0.327889 0.289538
C33   C     C_R   0.177678 0.883631 0.664739 -0.090643
C34   C     C_R   0.823459 0.256209 0.315961 -0.071893
C35   C     C_R   0.212516 0.898278 0.740671 0.027249
C36   C     C_R   0.788353 0.359196 0.256055 0.039933
C37   C     C_R   0.175843 0.932138 0.810133 0.053529
C38   C     C_R   0.823468 0.431632 0.191744 0.032396
C39   C     C_R   0.282147 0.902132 0.749111 0.028571
C40   C     C_R   0.719557 0.384013 0.255194 0.028367
C41   C     C_R   0.311643 0.994907 0.818496 -0.082778
C42   C     C_R   0.687093 0.446731 0.183573 -0.069077
C43   C     C_R   0.274200 0.029248 0.886848 -0.124246
C44   C     C_R   0.722921 0.547798 0.128477 -0.082540
C45   C     C_R   0.207774 0.995749 0.881742 -0.104043
C46   C     C_R   0.790467 0.534839 0.132082 -0.118171
C47   C     C_R   0.323926 0.816817 0.692025 0.303334
C48   C     C_R   0.681738 0.368580 0.324471 0.298968
C49   C     C_R   0.413981 0.995287 0.751655 -0.144101
C50   C     C_R   0.584546 0.361045 0.238242 -0.162849
C51   C     C_R   0.107889 0.899868 0.807210 -0.187171
C52   C     C_R   0.891769 0.415431 0.193047 -0.190587
H5    H     H_    0.180914 0.021189 0.935307 0.130463
H6    H     H_    0.817788 0.617785 0.091711 0.154111
O11   O     O_R   0.950790 0.256670 0.090520 -0.524201
O12   O     O_R   0.049210 0.756670 0.909480 -0.531686
O13   O     O_R   0.927720 0.590370 0.921470 -0.518297
O14   O     O_R   0.072280 0.090370 0.078530 -0.523747
C53   C     C_R   0.913164 0.420254 0.891619 0.749448
C54   C     C_R   0.090626 0.921839 0.103695 0.750160
O15   O     O_R   0.943270 0.586180 0.090640 -0.543603
O16   O     O_R   0.056730 0.086180 0.909360 -0.533965
O17   O     O_R   0.064850 0.759970 0.079840 -0.531310
O18   O     O_R   0.935150 0.259970 0.920160 -0.531257
C55   C     C_R   0.929192 0.419758 0.118277 0.760852
C56   C     C_R   0.069848 0.915740 0.881180 0.755291
O19   O     O_3   0.039850 0.428050 0.996240 -0.363642
O20   O     O_3   0.960150 0.928050 0.003760 -0.368078
V3    V     V_3+5 0.992610 0.701540 0.000700 1.622827
V4    V     V_3+5 0.007390 0.201540 0.999300 1.614517
C57   C     C_2   0.197764 0.664748 0.086261 0.919429
O21   O     O_2   0.199887 0.714160 0.016616 -0.547432
O22   O     O_R   0.190445 0.473407 0.102198 -0.594090
H7    H     H_    0.188089 0.448596 0.161843 0.285677
C58   C     C_2   0.785136 0.529665 0.919667 0.773344
O23   O     O_2   0.796286 0.688486 0.946497 -0.505199
O24   O     O_R   0.762342 0.390725 0.969534 -0.673754
H8    H     H_    0.756418 0.263715 0.941013 0.305558
Cl1   Cl    Cl    0.299401 0.616592 0.633061 -0.553567
Cl2   Cl    Cl    0.715338 0.420660 0.422218 -0.582879
C59   C     C_2   0.007125 0.780050 0.728906 0.934370
O25   O     O_2   0.967760 0.855717 0.771384 -0.537530
O26   O     O_R   0.985933 0.632981 0.676909 -0.599209
H9    H     H_    0.022497 0.560200 0.652474 0.317215
C60   C     C_2   0.991857 0.451412 0.283302 0.929164
O27   O     O_2   0.031709 0.434140 0.231731 -0.546897
O28   O     O_R   0.010254 0.545621 0.355556 -0.569437
H10   H     H_    0.972586 0.576064 0.390340 0.338993
C61   C     C_2   0.208506 0.929530 0.588583 0.966703
O29   O     O_2   0.243677 0.067593 0.585990 -0.506507
O30   O     O_R   0.197286 0.813980 0.520042 -0.580917
H11   H     H_    0.221063 0.857292 0.471921 0.334363
C62   C     C_2   0.792611 0.093879 0.355353 0.935321
O31   O     O_2   0.808573 0.051425 0.424276 -0.438528
O32   O     O_R   0.745056 0.987963 0.312377 -0.657047
H12   H     H_    0.727656 0.881182 0.344792 0.328764
Cl3   Cl    Cl    0.065501 0.858623 0.567998 -0.430995
Cl4   Cl    Cl    0.934050 0.204277 0.413402 -0.428793
C63   C     C_2   0.072676 0.042151 0.274603 0.872792
O33   O     O_2   0.068815 0.123523 0.339858 -0.480826
O34   O     O_R   0.016294 0.976630 0.233731 -0.667133
H13   H     H_    0.975971 0.003006 0.264234 0.305997
C64   C     C_2   0.939748 0.250980 0.727063 0.886636
O35   O     O_2   0.946560 0.166451 0.663010 -0.484818
O36   O     O_R   0.994613 0.301285 0.774726 -0.669156
H14   H     H_    0.036212 0.259020 0.750108 0.293490
Cl5   Cl    Cl    0.334302 0.601289 0.108244 -0.407345
Cl6   Cl    Cl    0.684356 0.769524 0.835523 -0.463397
Cl7   Cl    Cl    0.438454 0.611771 0.244970 -0.538864
Cl8   Cl    Cl    0.560924 0.604302 0.747801 -0.509109
Cl9   Cl    Cl    0.301929 0.131001 0.415085 -0.572381
Cl10  Cl    Cl    0.713493 0.111359 0.579125 -0.506020
C65   C     C_2   0.302807 0.076225 0.968459 1.006856
O37   O     O_2   0.279099 0.201460 0.009026 -0.463945
O38   O     O_R   0.354800 0.974237 0.001484 -0.567475
H15   H     H_    0.368121 0.865349 0.965466 0.328203
C66   C     C_2   0.694188 0.714549 0.088246 0.972195
O39   O     O_2   0.697194 0.867179 0.123588 -0.498370
O40   O     O_R   0.664383 0.704017 0.011398 -0.546340
H16   H     H_    0.664102 0.572601 0.986745 0.352903
Cl11  Cl    Cl    0.413364 0.225692 0.881260 -0.439951
Cl12  Cl    Cl    0.575426 0.434718 0.081122 -0.426913

loop_
_geom_bond_atom_site_label_1
_geom_bond_atom_site_label_2
_ccdc_geom_bond_type
C57   O21   D    
C25   Cl11  S    
C9    Cl5   S    
C6    C53   S    
C15   C17   A    
C25   C49   A    
C28   C50   A    
O32   H12   S    
O1    C3    A    
C54   O17   A    
O2    C4    A    
C2    O7    A    
O12   V3    S    
C27   C47   A    
O40   H16   S    
C31   C33   A    
C28   C48   A    
O5    C3    A    
C61   O30   S    
O24   H8    S    
O14   C54   A    
C52   C55   S    
C23   H1    S    
O20   V4    S    
C62   O32   S    
C41   C43   A    
C20   C58   S    
C38   C52   A    
C42   C44   A    
C63   O33   D    
C25   C41   A    
C47   Cl1   S    
C46   H6    S    
C44   C46   A    
C29   C31   A    
O18   V4    S    
C37   C45   A    
C8    C12   A    
C63   O34   S    
C57   O22   S    
C39   C47   A    
C29   C51   A    
C5    C54   S    
C34   C36   A    
O30   H11   S    
C40   C48   A    
C53   O18   A    
C35   C39   A    
C27   C49   A    
C11   Cl7   S    
O16   V4    S    
C32   C34   A    
O15   V3    S    
C60   O28   S    
C26   C50   A    
C12   Cl8   S    
O13   C53   A    
C5    C21   A    
C7    C13   A    
C59   O26   S    
C36   C38   A    
C59   O25   D    
C64   O36   S    
C30   C60   S    
C30   C32   A    
C3    C8    S    
C43   C45   A    
C19   C57   S    
C60   O27   D    
C26   C42   A    
O20   V3    S    
C48   Cl2   S    
O4    C2    A    
C58   O23   D    
C33   C61   S    
C38   C46   A    
C15   C23   A    
C9    C17   A    
C34   C62   S    
C33   C35   A    
C26   Cl12  S    
C35   C37   A    
O4    V2    S    
C7    C11   A    
C30   C52   A    
C58   O24   S    
O11   V4    S    
O16   C56   A    
O26   H9    S    
O15   C55   A    
O6    C4    A    
O1    V2    S    
C14   Cl10  S    
O14   V4    S    
O2    V1    S    
C6    C22   A    
O13   V3    S    
O36   H14   S    
O19   V3    S    
C1    C28   S    
C2    C27   S    
C9    C11   A    
C66   O39   D    
C5    C19   A    
C10   C12   A    
C6    C20   A    
O38   H15   S    
O17   V3    S    
O3    V1    S    
C32   Cl4   S    
C65   O37   D    
C45   H5    S    
C22   C64   S    
C31   Cl3   S    
C43   C65   S    
C10   C18   A    
O3    C1    A    
H3    C49   S    
C64   O35   D    
C10   Cl6   S    
C13   C15   A    
C61   O29   D    
C14   C16   A    
C39   C41   A    
C13   Cl9   S    
C16   C18   A    
C17   C19   A    
O8    V2    S    
C62   O31   D    
C24   H2    S    
C18   C20   A    
C21   C63   S    
C8    C14   A    
C4    C7    S    
O5    V1    S    
C21   C23   A    
C40   C42   A    
C22   C24   A    
O7    V1    S    
C37   C51   A    
C1    O8    A    
O19   V4    S    
C16   C24   A    
C51   C56   S    
O6    V2    S    
O9    V2    S    
O28   H10   S    
H4    C50   S    
C66   O40   S    
O10   V1    S    
C29   C59   S    
C65   O38   S    
O22   H7    S    
O34   H13   S    
C44   C66   S    
O12   C56   A    
C36   C40   A    
O11   C55   A    
