data_mof_unit_55410.cif
_audit_creation_date              2013-03-05T15:43:33-0500
_audit_creation_method            fapswitch 2.2
_symmetry_space_group_name_H-M    P1
_symmetry_Int_Tables_number       1
_space_group_crystal_system       triclinic
_cell_length_a                    10.062526
_cell_length_b                    10.7167
_cell_length_c                    13.15651
_cell_angle_alpha                 89.605401
_cell_angle_beta                  69.093142
_cell_angle_gamma                 88.9429
_cell_volume                      1325.12526575

loop_
_atom_site_label
_atom_site_type_symbol
_atom_site_description
_atom_site_fract_x
_atom_site_fract_y
_atom_site_fract_z
_atom_type_partial_charge
O1    O     O_R   0.386950 0.680940 0.500020 -0.646144
O2    O     O_R   0.613110 0.680900 0.499980 -0.549554
C1    C     C_R   0.503683 0.737130 0.489547 0.872394
O3    O     O_R   0.330780 0.500000 0.653640 -0.600030
O4    O     O_R   0.556930 0.499960 0.653610 -0.616517
C2    C     C_R   0.419722 0.501792 0.704475 0.883065
Zn1   Zn    Zn3+2 0.349000 0.500030 0.500020 1.040875
Zn2   Zn    Zn3+2 0.651000 0.499970 0.499980 1.055963
O5    O     O_R   0.386890 0.319100 0.500020 -0.542796
O6    O     O_R   0.613050 0.319060 0.499980 -0.560326
O7    O     O_R   0.443070 0.500040 0.346390 -0.591095
O8    O     O_R   0.669220 0.500000 0.346360 -0.604550
C3    C     C_R   0.500746 0.262891 0.501810 0.851504
C4    C     C_R   0.580602 0.501469 0.294991 0.922599
C5    C     C_R   0.749900 0.358403 0.023241 0.457833
C6    C     C_R   0.634894 0.497285 0.174855 -0.235486
C7    C     C_R   0.281629 0.633541 0.860054 0.307214
C8    C     C_R   0.314349 0.713643 0.931645 0.496039
C9    C     C_R   0.418395 0.676935 0.973130 -0.309528
C10   C     C_R   0.475843 0.554024 0.958935 -0.000092
C11   C     C_R   0.454620 0.480227 0.878344 0.070851
C12   C     C_R   0.561912 0.505421 0.016330 -0.011666
C13   C     C_R   0.655708 0.401340 0.971167 -0.000613
C14   C     C_R   0.647924 0.341192 0.877518 -0.038283
C15   C     C_R   0.534891 0.369847 0.844100 -0.202416
C16   C     C_R   0.549222 0.550375 0.120743 -0.074687
C17   C     C_R   0.748429 0.415146 0.119321 -0.166204
C18   C     C_R   0.368724 0.526181 0.821602 -0.254490
H1    H     H_    0.454505 0.747281 0.015146 0.208042
H2    H     H_    0.520857 0.313568 0.780509 0.128683
C19   C     C_2   0.619443 0.068642 0.441417 0.324422
C20   C     C_2   0.504838 0.130197 0.509586 0.272769
C21   C     C_2   0.628378 0.933760 0.453694 0.303382
C22   C     C_2   0.515897 0.866793 0.455170 0.315088
C23   C     C_2   0.080853 0.401346 0.484495 0.379489
N1    N     N_2   0.148270 0.498670 0.498870 -0.180521
C24   C     C_2   0.945702 0.411276 0.457528 0.379361
N2    N     N_2   0.852610 0.498640 0.498840 -0.160585
H3    H     H_    0.867081 0.552543 0.558432 0.122957
C25   C     C_2   0.860197 0.381765 0.165052 0.604909
H4    H     H_    0.895511 0.451130 0.208967 0.092107
O9    O     O_2   0.915734 0.277998 0.153078 -0.476170
O10   O     O_3   0.399986 0.069013 0.592285 -0.759649
H5    H     H_    0.328971 0.131589 0.635885 0.359201
O11   O     O_3   0.744218 0.880376 0.471928 -0.752406
H6    H     H_    0.809652 0.947720 0.473747 0.347071
O12   O     O_3   0.413285 0.923178 0.421042 -0.719276
H7    H     H_    0.338529 0.863113 0.424023 0.377179
O13   O     O_3   0.132872 0.284860 0.497955 -0.690715
H8    H     H_    0.060151 0.222061 0.501889 0.337997
C26   C     C_2   0.119349 0.618913 0.463113 0.449001
H9    H     H_    0.120589 0.700538 0.510964 0.091876
O14   O     O_2   0.102545 0.632672 0.376137 -0.590770
O15   O     O_3   0.917700 0.324895 0.390981 -0.690310
H10   H     H_    0.005753 0.275085 0.354806 0.343830
C27   C     C_2   0.757812 0.254967 0.805635 0.423091
H11   H     H_    0.726106 0.175058 0.769906 0.064987
O16   O     O_2   0.884173 0.277766 0.778870 -0.504065
O17   O     O_3   0.835891 0.254428 0.987560 -0.653866
H12   H     H_    0.771888 0.184824 0.988374 0.335901
C28   C     C_2   0.434064 0.640401 0.181693 0.459990
H13   H     H_    0.326658 0.629060 0.182743 0.125127
O18   O     O_2   0.459439 0.728230 0.230178 -0.556836
O19   O     O_3   0.179291 0.670273 0.818290 -0.759991
H14   H     H_    0.140087 0.594159 0.798103 0.366412
O20   O     O_3   0.251520 0.830212 0.960104 -0.715804
H15   H     H_    0.180680 0.845020 0.924825 0.394427
O21   O     O_3   0.726029 0.131109 0.361440 -0.719808
H16   H     H_    0.797047 0.068584 0.317853 0.369612

loop_
_geom_bond_atom_site_label_1
_geom_bond_atom_site_label_2
_geom_bond_distance
_ccdc_geom_bond_type
C23   O13   1.379389 S    
O4    Zn2   1.901555 S    
C13   C14   1.421742 A    
C19   C21   1.458072 S    
C24   N2    1.288704 D    
C8    O20   1.381601 S    
C21   O11   1.384434 S    
Zn1   N1    2.025620 S    
C3    C20   1.425900 S    
C5    C17   1.401724 A    
C9    C10   1.415023 A    
C17   C25   1.489958 S    
Zn2   O8    1.963162 S    
O19   H14   0.990535 S    
C28   H13   1.084988 S    
C6    C17   1.410635 A    
C25   O9    1.220825 D    
C7    C8    1.405462 A    
O8    C4    1.296774 A    
O17   H12   0.991962 S    
C7    O19   1.379571 S    
O6    C3    1.282749 A    
O11   H6    0.991957 S    
C27   H11   1.085707 S    
Zn1   O7    1.901555 S    
O4    C2    1.301613 A    
N1    C26   1.428995 S    
Zn2   N2    2.023189 S    
C20   O10   1.386846 S    
O3    Zn1   1.963162 S    
C24   O15   1.378321 S    
C5    C13   1.422136 A    
C25   H4    1.083914 S    
C23   C24   1.524860 S    
C16   C28   1.490916 S    
C10   C12   1.426976 A    
C21   C22   1.345574 D    
O2    C1    1.294861 A    
C12   C13   1.434586 A    
O10   H5    0.992198 S    
C6    C16   1.409982 A    
N2    H3    1.029772 S    
O7    C4    1.305938 A    
C4    C6    1.477322 S    
O3    C2    1.294870 A    
C14   C27   1.482888 S    
C26   H9    1.084100 S    
C9    H1    1.079410 S    
O12   H7    0.989041 S    
O20   H15   0.989792 S    
C14   C15   1.386872 A    
Zn2   O6    1.982909 S    
O13   H8    0.990826 S    
C12   C16   1.420257 A    
O2    Zn2   1.969187 S    
C15   H2    1.085396 S    
Zn1   O5    1.969190 S    
O5    C3    1.292123 A    
O15   H10   0.990756 S    
C8    C9    1.392297 A    
C11   C15   1.402518 A    
C22   O12   1.391757 S    
C1    C22   1.452073 S    
O1    C1    1.292589 A    
C10   C11   1.405236 A    
O1    Zn1   1.982909 S    
C7    C18   1.414973 A    
C5    O17   1.375641 S    
C19   O21   1.384546 S    
C11   C18   1.409474 A    
C28   O18   1.221235 D    
C2    C18   1.463734 S    
C19   C20   1.345870 D    
C27   O16   1.221129 D    
O21   H16   0.991801 S    
C26   O14   1.222542 D    
C23   N1    1.305445 D    
