data_mof_unit_30039.cif
_audit_creation_date              2012-12-10T17:32:59-0500
_audit_creation_method            fapswitch 2.2
_symmetry_space_group_name_H-M    P1
_symmetry_Int_Tables_number       1
_space_group_crystal_system       triclinic
_cell_length_a                    12.413362
_cell_length_b                    13.257047
_cell_length_c                    14.306058
_cell_angle_alpha                 93.722654
_cell_angle_beta                  107.929216
_cell_angle_gamma                 117.207371
_cell_volume                      1932.36350688

loop_
_atom_site_label
_atom_site_type_symbol
_atom_type_description
_atom_site_fract_x
_atom_site_fract_y
_atom_site_fract_z
_atom_type_partial_charge
C1    C     C_R   0.652443 0.714991 0.511232 0.795262
C2    C     C_R   0.833167 0.481105 0.918248 0.033732
C3    C     C_R   0.782996 0.498625 0.990652 0.131885
C4    C     C_R   0.933220 0.451329 0.945174 0.016682
C5    C     C_R   0.995128 0.455391 0.048152 0.026118
C6    C     C_R   0.934829 0.461581 0.116960 0.073115
C7    C     C_R   0.831250 0.485542 0.088603 0.072847
C8    C     C_R   0.970110 0.413331 0.871626 -0.196245
C9    C     C_R   0.071878 0.389559 0.899132 -0.233476
C10   C     C_R   0.145302 0.409051 0.000809 0.152797
C11   C     C_R   0.111113 0.446772 0.076509 0.113523
C12   C     C_R   0.618379 0.516694 0.686642 0.790496
C13   C     C_R   0.254125 0.392989 0.027697 -0.200814
C14   C     C_R   0.331745 0.416659 0.129303 -0.200114
C15   C     C_R   0.198665 0.481171 0.177589 -0.184921
C16   C     C_R   0.128804 0.965806 0.356006 -0.190035
C17   C     C_R   0.248249 0.161566 0.462591 -0.042082
C18   C     C_R   0.743678 0.926439 0.587781 0.164549
C19   C     C_R   0.837365 0.043645 0.606892 -0.196611
C20   C     C_R   0.933288 0.076313 0.566702 -0.224039
C21   C     C_R   0.935911 0.992316 0.502630 0.084333
C22   C     C_R   0.830807 0.875305 0.471827 0.030412
C23   C     C_R   0.345269 0.285150 0.484795 0.811311
C24   C     C_R   0.038721 0.021323 0.466864 0.088642
C25   C     C_R   0.028136 0.937480 0.392435 0.163794
C26   C     C_R   0.915945 0.827437 0.353510 -0.235422
C27   C     C_R   0.818097 0.797063 0.391694 -0.186620
C28   C     C_R   0.152730 0.131261 0.503761 -0.239791
C29   C     C_R   0.238081 0.077941 0.390298 -0.189802
C30   C     C_R   0.740448 0.840311 0.521044 -0.111732
C31   C     C_R   0.254858 0.687926 0.659289 -0.299708
C32   C     C_R   0.649211 0.333577 0.370365 0.079196
C33   C     C_R   0.719676 0.282682 0.354284 -0.285459
C34   C     C_R   0.380285 0.481787 0.313083 0.800149
C35   C     C_R   0.853872 0.337791 0.409321 -0.207428
C36   C     C_R   0.922929 0.450105 0.475728 -0.015434
C37   C     C_R   0.843479 0.492796 0.496553 0.294608
C38   C     C_R   0.064947 0.518576 0.526836 -0.083992
C39   C     C_R   0.119185 0.619680 0.605157 0.174544
C40   C     C_R   0.038249 0.653434 0.629511 -0.274954
C41   C     C_R   0.904105 0.592445 0.575797 -0.195309
C42   C     C_R   0.157859 0.496427 0.503231 0.094439
C43   C     C_R   0.339012 0.659466 0.634879 0.053229
C44   C     C_R   0.678763 0.517739 0.792782 -0.049489
C45   C     C_R   0.304693 0.461474 0.204968 -0.070130
C46   C     C_R   0.681557 0.525337 0.962664 -0.160154
C47   C     C_R   0.629012 0.533391 0.864393 -0.221933
C48   C     C_R   0.782900 0.495988 0.821010 -0.228127
Cu1   Cu    Cu3+1 0.416420 0.526630 0.522910 0.954704
Cu2   Cu    Cu3+1 0.583580 0.473370 0.477090 0.919811
H1    H     H_    0.278992 0.361874 0.970035 0.135631
H2    H     H_    0.311322 0.100626 0.357265 0.143783
H3    H     H_    0.903826 0.764391 0.293349 0.143281
H4    H     H_    0.121030 0.902330 0.298803 0.134191
H5    H     H_    0.169576 0.196440 0.564009 0.139970
H6    H     H_    0.002076 0.168686 0.585417 0.137314
H7    H     H_    0.838438 0.109893 0.656323 0.144121
H8    H     H_    0.731046 0.712423 0.355369 0.174349
H9    H     H_    0.443547 0.711908 0.676996 0.146222
H10   H     H_    0.188662 0.527748 0.235960 0.181647
H11   H     H_    0.079501 0.729658 0.690204 0.152888
H12   H     H_    0.295922 0.763885 0.720129 0.139589
H13   H     H_    0.544202 0.288503 0.329884 0.124577
H14   H     H_    0.897304 0.285535 0.402739 0.167365
H15   H     H_    0.669371 0.197910 0.302118 0.150225
H16   H     H_    0.850696 0.624887 0.600710 0.204214
H17   H     H_    0.413304 0.400932 0.148476 0.158997
H18   H     H_    0.095840 0.359292 0.840351 0.140305
H19   H     H_    0.640531 0.538257 0.015996 0.169596
H20   H     H_    0.548631 0.550753 0.844378 0.157280
H21   H     H_    0.824559 0.492514 0.765897 0.154962
H22   H     H_    0.918345 0.396110 0.791331 0.145928
N1    N     N_R   0.290690 0.566960 0.557640 -0.199755
N2    N     N_R   0.709100 0.433710 0.442970 -0.204406
O1    O     O_R   0.545970 0.684450 0.528810 -0.540488
O2    O     O_R   0.687130 0.639470 0.490120 -0.611149
O3    O     O_R   0.519670 0.535100 0.660030 -0.584557
O4    O     O_R   0.660830 0.490120 0.621340 -0.599989
O5    O     O_R   0.312870 0.360530 0.509880 -0.578992
O6    O     O_R   0.454030 0.315550 0.471190 -0.589794
O7    O     O_R   0.339170 0.509880 0.378660 -0.575954
O8    O     O_R   0.480330 0.464900 0.339970 -0.595700
N3    N     N_3   0.773006 0.495014 0.159035 -0.624224
H23   H     H_    0.845473 0.561006 0.223594 0.217976
H24   H     H_    0.732923 0.415828 0.179788 0.229854
N4    N     N_3   0.653987 0.895521 0.638557 -0.585101
H25   H     H_    0.708173 0.924716 0.716649 0.206766
H26   H     H_    0.602024 0.939763 0.619292 0.217671
C49   C     C_1   0.117625 0.403811 0.419608 0.298320
N5    N     N_1   0.086277 0.328806 0.352965 -0.287170
N6    N     N_3   0.966888 0.429044 0.210787 -0.591123
H27   H     H_    0.884328 0.354027 0.209363 0.240924
H28   H     H_    0.994163 0.496991 0.270183 0.214098

loop_
_geom_bond_atom_site_label_1
_geom_bond_atom_site_label_2
_ccdc_geom_bond_type
C43   N1    A    
C7    N3    S    
C37   N2    A    
C17   C29   A    
C15   H10   S    
C35   C36   A    
C4    C8    A    
C33   H15   S    
C19   H7    S    
C26   C27   A    
C17   C23   S    
C31   C43   A    
C36   C37   A    
C5    C11   A    
C3    C7    A    
Cu2   N2    S    
C32   N2    A    
C5    C6    A    
N4    H26   S    
C6    N6    S    
C18   C19   A    
Cu1   O7    S    
C46   H19   S    
C13   H1    S    
C11   C15   A    
C19   C20   A    
Cu1   O3    S    
C8    C9    A    
C12   O4    A    
C14   H17   S    
Cu1   O1    S    
C35   H14   S    
C18   C30   A    
C34   O7    A    
C23   O6    A    
C9    C10   A    
C44   C47   A    
C43   H9    S    
C21   C22   A    
C17   C28   A    
C31   H12   S    
Cu2   O4    S    
C28   H5    S    
C14   C45   A    
C8    H22   S    
C1    O1    A    
C24   C25   A    
N6    H27   S    
N4    H25   S    
C2    C48   A    
C16   C29   A    
C10   C13   A    
C40   H11   S    
Cu1   O5    S    
C2    C4    A    
C47   H20   S    
Cu2   O2    S    
N6    H28   S    
N3    H23   S    
C12   O3    A    
C34   C45   S    
C18   N4    S    
C41   H16   S    
C40   C41   A    
N3    H24   S    
C22   C27   A    
Cu1   N1    S    
C15   C45   A    
C48   H21   S    
C26   H3    S    
C39   C40   A    
Cu2   O8    S    
C16   C25   A    
C46   C47   A    
C42   N1    A    
C22   C30   A    
C1    O2    A    
C24   C28   A    
C32   H13   S    
C4    C5    A    
C27   H8    S    
Cu2   O6    S    
C38   C42   A    
C6    C7    A    
C3    C46   A    
C42   C49   S    
C32   C33   A    
C36   C38   A    
C2    C3    A    
C25   C26   A    
C9    H18   S    
C12   C44   S    
C38   C39   A    
C1    C30   S    
C33   C35   A    
C31   C39   A    
C20   H6    S    
C37   C41   A    
C16   H4    S    
C10   C11   A    
C20   C21   A    
Cu1   Cu2   S    
C21   C24   A    
C34   O8    A    
C23   O5    A    
C49   N5    T    
C13   C14   A    
C44   C48   A    
C29   H2    S    
