data_mof_unit_67280.cif
_audit_creation_date              2013-03-05T16:01:58-0500
_audit_creation_method            fapswitch 2.2
_symmetry_space_group_name_H-M    P1
_symmetry_Int_Tables_number       1
_space_group_crystal_system       triclinic
_cell_length_a                    8.330443
_cell_length_b                    14.425784
_cell_length_c                    14.967791
_cell_angle_alpha                 95.090588
_cell_angle_beta                  98.30154
_cell_angle_gamma                 91.226718
_cell_volume                      1771.79038804

loop_
_atom_site_label
_atom_site_type_symbol
_atom_site_description
_atom_site_fract_x
_atom_site_fract_y
_atom_site_fract_z
_atom_type_partial_charge
P1    P     P_3+3 0.018620 0.416870 0.295980 0.451587
O1    O     O_2   0.841250 0.444240 0.280450 -0.381800
O2    O     O_3   0.112870 0.447390 0.393710 -0.404183
O3    O     O_3   0.597960 0.615760 0.327700 -0.339202
O4    O     O_2   0.684221 0.546074 0.172593 -0.388489
O5    O     O_3   0.013637 0.296034 0.264917 -0.598011
O6    O     O_3   0.600169 0.718589 0.179873 -0.488389
H1    H     H_    0.440434 0.770215 0.265673 0.043631
C1    C     C_3   0.519753 0.876711 0.190016 -0.375901
H2    H     H_    0.634030 0.892467 0.237506 0.213410
P2    P     P_3+3 0.635650 0.716500 0.560900 0.435507
P3    P     P_3+3 0.035380 0.785131 0.368373 0.459253
O7    O     O_2   0.802240 0.729720 0.532850 -0.375637
O8    O     O_3   0.017190 0.664840 0.371090 -0.349159
O9    O     O_2   0.918414 0.829490 0.429656 -0.384379
O10   O     O_3   0.666237 0.755024 0.677071 -0.592977
O11   O     O_3   0.950763 0.810311 0.259720 -0.478649
C2    C     C_3   0.063197 0.788130 0.200626 0.428063
H3    H     H_    0.109915 0.717022 0.208121 0.065729
H4    H     H_    0.164459 0.841039 0.213928 0.013344
C3    C     C_3   0.981928 0.790527 0.103157 -0.958350
H5    H     H_    0.877267 0.739761 0.088333 0.287732
H6    H     H_    0.939125 0.861544 0.091987 0.239641
C4    C     C_3   0.208520 0.744097 0.639383 0.397998
H7    H     H_    0.339306 0.747403 0.634370 0.073777
H8    H     H_    0.142464 0.705098 0.577244 0.096934
C5    C     C_3   0.141810 0.841799 0.643618 -0.452668
H9    H     H_    0.148856 0.873985 0.579535 0.172191
H10   H     H_    0.011882 0.834539 0.651239 0.180739
Ba1   Ba    Ba6+2 0.833410 0.543320 0.453520 1.533660
C6    C     C_3   0.989465 0.245657 0.337410 0.331113
H11   H     H_    0.863350 0.256783 0.350088 0.066149
H12   H     H_    0.074569 0.271703 0.399147 0.090131
C7    C     C_3   0.017244 0.139324 0.317225 -0.048729
H13   H     H_    0.124244 0.122418 0.365768 0.102541
C8    C     C_3   0.739140 0.687437 0.728508 0.404345
H14   H     H_    0.849369 0.663638 0.701214 0.101172
H15   H     H_    0.648915 0.630231 0.730145 0.105903
C9    C     C_3   0.790830 0.729322 0.825653 -1.029828
H16   H     H_    0.891023 0.781919 0.828283 0.272407
H17   H     H_    0.834639 0.674035 0.869227 0.229440
H18   H     H_    0.686483 0.762542 0.852705 0.274256
P4    P     P_3+3 0.171070 0.583210 0.704020 0.474668
O12   O     O_2   0.348460 0.555790 0.719610 -0.362113
O13   O     O_3   0.076820 0.552690 0.606290 -0.410929
O14   O     O_3   0.591740 0.384320 0.672310 -0.387541
O15   O     O_3   0.186851 0.705102 0.719521 -0.575988
P5    P     P_3+3 0.153791 0.211079 0.622018 0.437477
O16   O     O_3   0.629090 0.386360 0.459240 -0.422165
O17   O     O_3   0.172500 0.335240 0.628910 -0.371674
O18   O     O_2   0.272803 0.171015 0.560427 -0.377002
O19   O     O_3   0.242722 0.174055 0.725036 -0.489035
Ba2   Ba    Ba6+2 0.356410 0.456750 0.546480 1.521407
P6    P     P_3+3 0.555405 0.607940 0.210092 0.466709
C10   C     C_3   0.471059 0.775418 0.196257 0.309821
H19   H     H_    0.362920 0.755168 0.145420 0.031715
H20   H     H_    0.426304 0.923395 0.213003 0.140818
O20   O     O_3   0.560600 0.613720 0.540760 -0.408660
C11   C     C_3   0.499976 0.320390 0.265248 0.302643
H21   H     H_    0.374508 0.345484 0.258494 0.072432
H22   H     H_    0.581399 0.378830 0.298013 0.146427
C12   C     C_3   0.548892 0.290749 0.171837 -0.490269
H23   H     H_    0.521259 0.215182 0.153056 0.220412
H24   H     H_    0.682236 0.301117 0.175721 0.201240
P7    P     P_3+3 0.556308 0.269600 0.431134 0.416327
O21   O     O_2   0.387470 0.270310 0.467210 -0.335179
O22   O     O_3   0.507099 0.241420 0.314263 -0.602611
H25   H     H_    0.069936 0.771689 0.056015 0.217439
C13   C     C_3   0.136846 0.190582 0.788501 0.437148
H26   H     H_    0.124504 0.266793 0.803914 0.078809
H27   H     H_    0.017113 0.155857 0.763340 0.050137
C14   C     C_3   0.205875 0.148939 0.874837 -1.007710
H28   H     H_    0.328672 0.180065 0.900351 0.280019
H29   H     H_    0.125046 0.162883 0.926722 0.244731
H30   H     H_    0.215230 0.072531 0.861822 0.251018
P8    P     P_3+3 0.626087 0.399825 0.791525 0.482726
C15   C     C_3   0.711258 0.230357 0.798035 0.341663
H31   H     H_    0.836718 0.260960 0.811305 -0.022444
O23   O     O_2   0.485197 0.454188 0.824583 -0.355507
O24   O     O_3   0.603161 0.291721 0.833471 -0.504806
H32   H     H_    0.674301 0.217249 0.723358 0.057297
C16   C     C_3   0.707213 0.137427 0.842300 -0.045240
H33   H     H_    0.580322 0.121049 0.852367 0.159710
C17   C     C_R   0.344408 0.562093 0.169964 0.086194
H34   H     H_    0.320530 0.526549 0.304172 0.174669
H35   H     H_    0.469769 0.629743 0.030361 0.177539
C18   C     C_R   0.108917 0.481594 0.210613 0.362182
C19   C     C_R   0.913787 0.494448 0.769765 -0.239929
C20   C     C_R   0.822647 0.461968 0.832910 0.187602
C21   C     C_R   0.884286 0.471708 0.925156 -0.361308
C22   C     C_R   0.041322 0.511422 0.956819 0.065249
C23   C     C_R   0.131846 0.546418 0.891250 -0.033416
C24   C     C_R   0.111433 0.517094 0.051369 0.078041
C25   C     C_R   0.269593 0.559196 0.078172 0.017514
C26   C     C_R   0.350727 0.596480 0.012737 -0.235020
C27   C     C_R   0.282468 0.591678 0.922119 -0.091236
C28   C     C_R   0.034014 0.478022 0.119505 -0.296319
C29   C     C_R   0.261550 0.525485 0.234760 -0.479583
C30   C     C_R   0.068750 0.535458 0.796482 0.229926
H36   H     H_    0.919045 0.440341 0.103340 0.161668
H37   H     H_    0.806381 0.447550 0.970310 0.168248
H38   H     H_    0.351487 0.623437 0.876505 0.173160
C31   C     C_R   0.701571 0.935946 0.545698 -0.158074
C32   C     C_R   0.509545 0.799951 0.495480 0.284418
C33   C     C_R   0.357673 0.767151 0.449257 -0.491283
C34   C     C_R   0.245412 0.828085 0.410235 0.177810
C35   C     C_R   0.289137 0.921846 0.410278 -0.337199
C36   C     C_R   0.442558 0.956598 0.452937 0.088560
C37   C     C_R   0.552881 0.896717 0.498577 -0.000092
H39   H     H_    0.322261 0.694495 0.448841 0.169367
C38   C     C_R   0.636708 0.088581 0.494046 0.033039
C39   C     C_R   0.746791 0.029878 0.541676 0.077475
C40   C     C_R   0.686211 0.181935 0.487265 0.255846
C41   C     C_R   0.846260 0.210208 0.519656 -0.501991
C42   C     C_R   0.950811 0.157481 0.573161 0.222215
C43   C     C_R   0.901867 0.065903 0.583688 -0.330642
C44   C     C_R   0.484747 0.051149 0.451609 -0.193618
H40   H     H_    0.202038 0.967713 0.378367 0.134950
H41   H     H_    0.985108 0.022636 0.622215 0.154913
H42   H     H_    0.892189 0.274399 0.501100 0.116524
H43   H     H_    0.785038 0.893972 0.584517 0.162199
H44   H     H_    0.400189 0.094437 0.414365 0.164900
N1    N     N_2   0.224800 0.900428 0.720847 -0.071394
H45   H     H_    0.147978 0.944164 0.751120 0.194448
C45   C     C_3   0.371660 0.948196 0.706121 -0.805341
H46   H     H_    0.344480 0.996208 0.652192 0.265817
H47   H     H_    0.461669 0.897500 0.686860 0.259935
H48   H     H_    0.425022 0.989517 0.769786 0.239316
N2    N     N_2   0.048627 0.112416 0.224792 -0.077470
H49   H     H_    0.014873 0.044094 0.202472 0.187642
C46   C     C_3   0.210402 0.131273 0.205944 -0.834177
H50   H     H_    0.300771 0.094381 0.250681 0.236542
H51   H     H_    0.237110 0.206629 0.214787 0.299386
H52   H     H_    0.218511 0.106646 0.134369 0.221129
N3    N     N_2   0.879205 0.084589 0.336251 -0.131686
H53   H     H_    0.908490 0.020679 0.358780 0.202134
C47   C     C_3   0.735101 0.080109 0.268919 -0.870418
H54   H     H_    0.628159 0.058589 0.299098 0.253350
H55   H     H_    0.749098 0.029644 0.210610 0.241115
H56   H     H_    0.714584 0.148427 0.242882 0.272384
N4    N     N_2   0.469094 0.342398 0.100592 -0.088621
H57   H     H_    0.490321 0.413103 0.109264 0.226657
C48   C     C_3   0.305241 0.311603 0.062928 -0.857779
H58   H     H_    0.267556 0.344299 0.999152 0.263460
H59   H     H_    0.220887 0.330193 0.111704 0.241501
H60   H     H_    0.298475 0.235093 0.047909 0.252954
N5    N     N_2   0.546115 0.893792 0.098968 -0.081685
H61   H     H_    0.635546 0.855216 0.074255 0.226539
C49   C     C_3   0.402808 0.901683 0.033126 -0.876762
H62   H     H_    0.438455 0.930826 0.972338 0.242892
H63   H     H_    0.315817 0.949196 0.061531 0.251337
H64   H     H_    0.343098 0.832104 0.011818 0.244616
N6    N     N_2   0.756899 0.063751 0.779804 -0.130138
H65   H     H_    0.682386 0.057324 0.718141 0.182561
C50   C     C_3   0.792097 0.973717 0.812201 -0.962853
H66   H     H_    0.804760 0.922695 0.753899 0.275321
H67   H     H_    0.692835 0.948810 0.847244 0.263734
H68   H     H_    0.909467 0.977515 0.858339 0.257471
N7    N     N_2   0.811660 0.142845 0.930280 -0.102194
H69   H     H_    0.814997 0.080993 0.959940 0.201423
C51   C     C_3   0.786775 0.218634 0.996426 -0.870462
H70   H     H_    0.857235 0.207653 0.063358 0.252428
H71   H     H_    0.656208 0.222151 0.003540 0.274333
H72   H     H_    0.831552 0.285311 0.976259 0.259012
N8    N     N_2   0.850761 0.485158 0.676407 -0.101560
H73   H     H_    0.742712 0.514309 0.654281 0.195447
C52   C     C_3   0.883386 0.398777 0.628878 -0.518414
H74   H     H_    0.776447 0.366476 0.589800 0.222025
H75   H     H_    0.926873 0.346966 0.676662 0.144273
H76   H     H_    0.954611 0.411191 0.574578 0.257049

loop_
_geom_bond_atom_site_label_1
_geom_bond_atom_site_label_2
_geom_bond_distance
_ccdc_geom_bond_type
P1    C18   1.878685 S    
C48   H60   1.105240 S    
C10   H19   1.107793 S    
C24   C25   1.426754 A    
C27   H38   1.078980 S    
C50   H67   1.110825 S    
C2    C3    1.520735 S    
O2    Ba2   2.820778 S    
P1    O1    1.528145 D    
Ba1   O13   2.820121 S    
N5    H61   1.030688 S    
P8    O23   1.541297 D    
O6    C10   1.402580 S    
C33   H39   1.081981 S    
C46   H52   1.110346 S    
C51   H72   1.106405 S    
O14   P8    1.759246 S    
C41   C42   1.383299 A    
N3    H53   1.031638 S    
C52   H75   1.110434 S    
C15   H31   1.109686 S    
C44   H44   1.078939 S    
C47   H55   1.107041 S    
N8    H73   1.025450 S    
O16   P7    1.771578 S    
C15   C16   1.549006 S    
C8    H14   1.106744 S    
N5    C49   1.447533 S    
P4    C30   1.897653 S    
C2    H3    1.114091 S    
C49   H63   1.110956 S    
C32   C37   1.429392 A    
N1    C45   1.445294 S    
C39   C43   1.418823 A    
C5    H10   1.108334 S    
C34   C35   1.393134 A    
C48   H58   1.109942 S    
C23   C27   1.399336 A    
C36   C37   1.419477 A    
N3    C47   1.448005 S    
C7    H13   1.111599 S    
C13   H27   1.106479 S    
C12   H24   1.110115 S    
O19   C13   1.395658 S    
C11   O22   1.406482 S    
C40   C41   1.390687 A    
C16   N6    1.459501 S    
O12   Ba2   2.856126 S    
P4    Ba2   3.417697 S    
P5    O18   1.536462 D    
C38   C39   1.420540 A    
P2    Ba1   3.430277 S    
P7    O22   1.747275 S    
P3    O11   1.748837 S    
C45   H48   1.107493 S    
C35   C36   1.404489 A    
N7    C51   1.447549 S    
P2    C32   1.864923 S    
C1    C10   1.522579 S    
N6    C50   1.447431 S    
P2    O20   1.583245 S    
C1    H2    1.108985 S    
C35   H40   1.081180 S    
C2    H4    1.109382 S    
P8    C20   1.847766 S    
C18   C29   1.393004 A    
P5    O17   1.787087 S    
O5    C6    1.393847 S    
O13   Ba2   2.943111 S    
C11   H21   1.107205 S    
N8    C52   1.430307 S    
C31   C37   1.413813 A    
C3    H5    1.110713 S    
C50   H68   1.109919 S    
C13   H26   1.113180 S    
O8    Ba1   2.784521 S    
C14   H30   1.108570 S    
H1    C10   1.113471 S    
P6    C17   1.860798 S    
C32   C33   1.402394 A    
C51   H71   1.109870 S    
C51   H70   1.111567 S    
C9    H18   1.110971 S    
C8    C9    1.522145 S    
C47   H56   1.099322 S    
C11   H22   1.103365 S    
O17   Ba2   2.785077 S    
P1    O5    1.761805 S    
O7    Ba1   2.874055 S    
N1    H45   1.031124 S    
C4    H7    1.103150 S    
C7    N2    1.465135 S    
C14   H29   1.107271 S    
C49   H64   1.110235 S    
C20   C21   1.395541 A    
C22   C23   1.439467 A    
C5    N1    1.449213 S    
C18   C28   1.411413 A    
C1    N5    1.452530 S    
C31   C39   1.407423 A    
P1    O2    1.577765 S    
O2    Ba1   2.942129 S    
P4    O12   1.528548 D    
C21   H37   1.076200 S    
C12   H23   1.111997 S    
C22   C24   1.445453 A    
P2    O10   1.758353 S    
O4    P6    1.545660 D    
N7    H69   1.030434 S    
P3    O9    1.543027 D    
C15   H32   1.113794 S    
C4    C5    1.525512 S    
C6    H12   1.111519 S    
O11   C2    1.401374 S    
H34   C29   1.081883 S    
C6    C7    1.565556 S    
C38   C40   1.416533 A    
C17   C25   1.421012 A    
Ba1   Ba2   4.580144 S    
Ba2   O21   2.874109 S    
P4    O13   1.577765 S    
P5    C42   1.865038 S    
C52   H76   1.097818 S    
Ba1   O16   2.818293 S    
P3    O8    1.743249 S    
C16   H33   1.112444 S    
C3    H6    1.110610 S    
C3    H25   1.110464 S    
C45   H46   1.111623 S    
C12   N4    1.446276 S    
C46   H50   1.110486 S    
C31   H43   1.073082 S    
C24   C28   1.431804 A    
C52   H74   1.065948 S    
C28   H36   1.076450 S    
N2    H49   1.031817 S    
C47   H54   1.106037 S    
C15   O24   1.401628 S    
C48   H59   1.104610 S    
C11   C12   1.539355 S    
O3    P6    1.737822 S    
C4    O15   1.402044 S    
P7    C40   1.860322 S    
C36   C44   1.403796 A    
C6    H11   1.106753 S    
P8    O24   1.748791 S    
C13   C14   1.516398 S    
C14   H28   1.109497 S    
C46   H51   1.097431 S    
Ba2   O20   2.817769 S    
C33   C34   1.398918 A    
C43   H41   1.081619 S    
C38   C44   1.405429 A    
O1    Ba1   2.855438 S    
C17   C29   1.401617 A    
N4    C48   1.444191 S    
C26   C27   1.388070 A    
C49   H62   1.110552 S    
O10   C8    1.391302 S    
P3    C34   1.845532 S    
C16   N7    1.464683 S    
P2    O7    1.519760 D    
C4    H8    1.109258 S    
C21   C22   1.415931 A    
C7    N3    1.456867 S    
O16   Ba2   2.935316 S    
Ba1   O20   2.936279 S    
O14   Ba2   2.802291 S    
C8    H15   1.108557 S    
P1    Ba1   3.417018 S    
C1    H20   1.112027 S    
P7    O21   1.577609 D    
C25   C26   1.405146 A    
O3    Ba1   2.802875 S    
C19   C30   1.397364 A    
H35   C26   1.079295 S    
C9    H16   1.109957 S    
P5    O19   1.744975 S    
C19   C20   1.399937 A    
C9    H17   1.109368 S    
C19   N8    1.413560 S    
C50   H66   1.109196 S    
C45   H47   1.108453 S    
O6    P6    1.744370 S    
N2    C46   1.441343 S    
N6    H65   1.030860 S    
N4    H57   1.024996 S    
P4    O15   1.752693 S    
C41   H42   1.068729 S    
C42   C43   1.403130 A    
C23   C30   1.433412 A    
C5    H9    1.110477 S    
