data_mof_unit_57477.cif
_audit_creation_date              2012-12-11T16:17:35-0500
_audit_creation_method            fapswitch 2.2
_symmetry_space_group_name_H-M    P1
_symmetry_Int_Tables_number       1
_space_group_crystal_system       triclinic
_cell_length_a                    6.935545
_cell_length_b                    28.772343
_cell_length_c                    32.091061
_cell_angle_alpha                 101.020016
_cell_angle_beta                  89.339334
_cell_angle_gamma                 90.298111
_cell_volume                      6285.30065948

loop_
_atom_site_label
_atom_site_type_symbol
_atom_type_description
_atom_site_fract_x
_atom_site_fract_y
_atom_site_fract_z
_atom_type_partial_charge
O1    O     O_R   0.494350 0.453160 0.452490 -0.524561
O2    O     O_R   0.820990 0.455850 0.538220 -0.548207
O3    O     O_R   0.994300 0.546840 0.547510 -0.520945
C1    C     C_R   0.651370 0.445737 0.551618 0.729125
O4    O     O_R   0.823860 0.447580 0.452250 -0.534122
O5    O     O_R   0.997190 0.538510 0.460920 -0.515809
C2    C     C_R   0.654554 0.434798 0.436183 0.709634
O6    O     O_R   0.491450 0.461490 0.539080 -0.551260
O7    O     O_3   0.661790 0.529840 0.502950 -0.316901
V1    V     V_3+5 0.935470 0.494460 0.499450 1.616016
O8    O     O_R   0.327090 0.544150 0.461780 -0.501916
C3    C     C_R   0.159669 0.554293 0.448094 0.835187
O9    O     O_R   0.324210 0.552420 0.547750 -0.523776
C4    C     C_R   0.154497 0.564267 0.564349 0.752013
V2    V     V_3+5 0.435840 0.505540 0.500550 1.669940
O10   O     O_3   0.159650 0.470160 0.497050 -0.375440
C5    C     C_R   0.996717 0.603717 0.634669 0.007779
C6    C     C_R   0.995773 0.640081 0.670755 -0.161134
H1    H     H_    0.886772 0.639407 0.695146 0.186551
C7    C     C_R   0.131102 0.677218 0.675953 -0.132548
C8    C     C_R   0.270911 0.677550 0.643300 0.448415
C9    C     C_R   0.277986 0.639710 0.608208 -0.168166
H2    H     H_    0.386982 0.639858 0.583793 0.210480
C10   C     C_R   0.141852 0.602743 0.602967 -0.205409
N1    N     N_R   0.278018 0.734797 0.735291 -0.170217
N2    N     N_R   0.263556 0.767358 0.770915 -0.242931
C11   C     C_R   0.088374 0.780766 0.788633 0.567079
N3    N     N_R   0.928465 0.760423 0.768790 -0.217861
N4    N     N_R   0.943131 0.727784 0.733293 -0.242475
C12   C     C_R   0.117893 0.714549 0.715409 0.585593
C13   C     C_R   0.923745 0.820741 0.858497 -0.019467
C14   C     C_R   0.913350 0.859668 0.892616 -0.173181
H3    H     H_    0.802008 0.860177 0.916699 0.178727
C15   C     C_R   0.048513 0.896851 0.897334 -0.183256
C16   C     C_R   0.194127 0.895556 0.865652 0.448518
C17   C     C_R   0.206406 0.856397 0.832014 -0.137683
H4    H     H_    0.317969 0.855874 0.808046 0.204603
C18   C     C_R   0.072884 0.818938 0.827448 -0.119856
C19   C     C_R   0.004015 0.654868 0.282589 0.675077
N5    N     N_R   0.090810 0.670840 0.320902 -0.532716
C20   C     C_R   0.178042 0.714491 0.329522 0.708981
C21   C     C_R   0.177308 0.744280 0.299415 -0.065888
C22   C     C_R   0.083209 0.729029 0.260510 -0.015321
C23   C     C_R   0.994847 0.684052 0.251978 -0.047409
C24   C     C_R   0.268318 0.788836 0.307264 -0.102814
C25   C     C_R   0.265639 0.817872 0.276956 -0.125285
C26   C     C_R   0.170523 0.803258 0.238172 -0.039786
C27   C     C_R   0.078157 0.758761 0.230011 -0.001982
C28   C     C_R   0.980963 0.743918 0.191416 -0.056393
C29   C     C_R   0.891125 0.699203 0.183471 -0.120925
C30   C     C_R   0.899045 0.669525 0.213251 -0.109457
C31   C     C_R   0.165636 0.831997 0.207218 0.640944
N6    N     N_R   0.071355 0.817003 0.169671 -0.533643
C32   C     C_R   0.977633 0.774128 0.161605 0.710041
O11   O     O_2   0.924389 0.611245 0.274416 -0.494492
O12   O     O_2   0.266092 0.728959 0.367068 -0.454363
H5    H     H_    0.342483 0.801390 0.336821 0.183469
H6    H     H_    0.337942 0.851874 0.284092 0.180208
O13   O     O_2   0.254893 0.874508 0.214518 -0.502615
O14   O     O_2   0.884502 0.760443 0.124608 -0.466485
H7    H     H_    0.815368 0.686850 0.154085 0.177568
H8    H     H_    0.828959 0.635255 0.205903 0.180793
C33   C     C_R   0.200317 0.844138 0.105137 0.444767
C34   C     C_R   0.185894 0.875676 0.076022 -0.187954
C35   C     C_R   0.041241 0.911467 0.081569 -0.232190
C36   C     C_R   0.907909 0.914233 0.115901 -0.016974
C37   C     C_R   0.921297 0.882166 0.143545 -0.117632
H9    H     H_    0.820340 0.884441 0.169905 0.176511
C38   C     C_R   0.065080 0.847691 0.138938 0.233629
C39   C     C_R   0.970877 0.647172 0.387463 0.376616
C40   C     C_R   0.009494 0.623722 0.421864 0.317338
C41   C     C_R   0.151751 0.587255 0.417012 -0.283625
C42   C     C_R   0.275726 0.580931 0.380614 -0.078688
C43   C     C_R   0.248143 0.608201 0.349430 -0.112484
H10   H     H_    0.346514 0.604620 0.322495 0.191433
C44   C     C_R   0.098441 0.640802 0.352221 0.180718
C45   C     C_R   0.575118 0.225297 0.838224 0.703277
N7    N     N_R   0.590162 0.177252 0.825411 -0.568870
C46   C     C_R   0.606147 0.157169 0.783261 0.682837
C47   C     C_R   0.632954 0.185823 0.752254 -0.132856
C48   C     C_R   0.599357 0.235235 0.764889 -0.104702
C49   C     C_R   0.559014 0.255176 0.808104 -0.148958
C50   C     C_R   0.689889 0.167513 0.709330 0.444828
C51   C     C_R   0.698271 0.197846 0.679957 -0.170631
C52   C     C_R   0.655891 0.246069 0.691763 -0.116914
C53   C     C_R   0.606120 0.264838 0.734215 -0.004118
C54   C     C_R   0.564219 0.313377 0.745957 -0.092172
C55   C     C_R   0.514587 0.332253 0.788122 -0.164691
C56   C     C_R   0.507918 0.304065 0.819202 0.449678
C57   C     C_R   0.665262 0.276297 0.661965 0.753608
N8    N     N_R   0.617023 0.323105 0.673672 -0.545173
C58   C     C_R   0.568848 0.342039 0.714890 0.674676
O15   O     O_2   0.581904 0.243759 0.880017 -0.442956
O16   O     O_2   0.592043 0.109785 0.771806 -0.441971
H11   H     H_    0.739733 0.183650 0.647416 0.222946
O17   O     O_2   0.723109 0.259104 0.621707 -0.457278
O18   O     O_2   0.524760 0.388437 0.725758 -0.496328
H12   H     H_    0.478220 0.369400 0.796894 0.223232
C59   C     C_R   0.780462 0.383471 0.641324 -0.038765
H13   H     H_    0.896731 0.383916 0.663598 0.192258
C60   C     C_R   0.791198 0.412868 0.611405 -0.149221
H14   H     H_    0.916444 0.435456 0.611087 0.150834
C61   C     C_R   0.640376 0.413828 0.582804 -0.136808
C62   C     C_R   0.479174 0.384351 0.584450 -0.260485
H15   H     H_    0.362572 0.384758 0.562377 0.179551
C63   C     C_R   0.469220 0.353735 0.613789 0.492178
C64   C     C_R   0.621963 0.353311 0.642537 0.230258
C65   C     C_R   0.735081 0.116161 0.861917 0.024201
C66   C     C_R   0.714345 0.086254 0.891690 -0.176752
H16   H     H_    0.828262 0.061361 0.894327 0.188308
C67   C     C_R   0.552755 0.088924 0.919024 -0.175493
C68   C     C_R   0.407913 0.122887 0.916205 -0.059002
C69   C     C_R   0.420996 0.149752 0.884080 -0.108652
H17   H     H_    0.307876 0.174721 0.881111 0.182259
C70   C     C_R   0.582850 0.147293 0.857067 0.264133
C71   C     C_R   0.484964 0.390084 0.369086 0.007482
C72   C     C_R   0.492607 0.354955 0.332239 -0.158848
H18   H     H_    0.369569 0.350770 0.311358 0.194871
C73   C     C_R   0.650227 0.324263 0.322421 -0.072236
C74   C     C_R   0.810756 0.330830 0.350065 -0.000677
C75   C     C_R   0.801943 0.365446 0.387560 -0.175886
H19   H     H_    0.922630 0.369082 0.408983 0.197509
C76   C     C_R   0.643526 0.396094 0.397553 -0.143239
N9    N     N_R   0.737861 0.244529 0.280927 -0.232415
N10   N     N_R   0.719798 0.209721 0.247168 -0.254048
C77   C     C_R   0.594003 0.213537 0.215857 0.526866
N11   N     N_R   0.487133 0.253539 0.219718 -0.249696
N12   N     N_R   0.507226 0.288523 0.253196 -0.240140
C78   C     C_R   0.634623 0.285147 0.284394 0.559484
C79   C     C_R   0.407068 0.168715 0.154513 -0.104368
H20   H     H_    0.281043 0.189984 0.165132 0.146200
C80   C     C_R   0.396577 0.134498 0.117191 -0.100738
H21   H     H_    0.267815 0.132383 0.099450 0.156187
C81   C     C_R   0.554532 0.106042 0.101508 -0.110987
C82   C     C_R   0.732199 0.116671 0.122897 0.038788
C83   C     C_R   0.741063 0.149349 0.161418 -0.165708
H22   H     H_    0.878941 0.157113 0.176872 0.142027
C84   C     C_R   0.578558 0.175726 0.177553 0.002257
O19   O     O_R   0.699050 0.038480 0.960880 -0.541826
O20   O     O_R   0.366680 0.052470 0.047720 -0.543252
O21   O     O_R   0.193410 0.961530 0.039110 -0.549221
C85   C     C_R   0.536756 0.066590 0.062997 0.724087
O22   O     O_R   0.369510 0.044100 0.961740 -0.520473
O23   O     O_R   0.196260 0.953110 0.952520 -0.510056
C86   C     C_R   0.539482 0.055527 0.949326 0.808391
O24   O     O_R   0.696210 0.046900 0.047470 -0.528544
O25   O     O_3   0.528780 0.970170 0.997070 -0.355170
V3    V     V_3+5 0.255080 0.005530 0.000540 1.603558
O26   O     O_R   0.866350 0.947520 0.952280 -0.528288
C87   C     C_R   0.035990 0.935482 0.935811 0.803319
O27   O     O_R   0.863520 0.955880 0.038260 -0.521506
C88   C     C_R   0.031654 0.945410 0.051513 0.786706
V4    V     V_3+5 0.754720 0.994440 0.999470 1.631056
O28   O     O_3   0.030880 0.029830 0.002930 -0.384307
C89   C     C_2   0.846919 0.566720 0.632523 0.748154
O29   O     O_2   0.717114 0.564210 0.606730 -0.547818
O30   O     O_R   0.848248 0.536500 0.661802 -0.651433
H23   H     H_    0.735715 0.513501 0.658013 0.300754
S1    S     S_3+6 0.384773 0.800090 0.098091 0.095783
O31   O     O_2   0.367787 0.770293 0.054379 -0.281485
O32   O     O_2   0.577637 0.824367 0.101721 -0.285439
O33   O     O_3   0.374835 0.764320 0.133798 -0.508654
H24   H     H_    0.479539 0.741037 0.125339 0.384569
C90   C     C_2   0.314136 0.869589 0.038022 0.917446
O34   O     O_2   0.487533 0.876557 0.041986 -0.510975
O35   O     O_R   0.234114 0.857600 0.997586 -0.661777
H25   H     H_    0.334570 0.855430 0.974090 0.301598
C91   C     C_2   0.754919 0.950778 0.125132 0.828319
O36   O     O_2   0.787765 0.991554 0.121380 -0.555001
O37   O     O_R   0.574053 0.938726 0.139715 -0.630894
H26   H     H_    0.481379 0.966423 0.144882 0.306137
S2    S     S_3+6 0.763119 0.683534 0.386996 0.120179
O38   O     O_2   0.690679 0.679861 0.342547 -0.348261
O39   O     O_2   0.602440 0.668919 0.413596 -0.247006
O40   O     O_3   0.824026 0.740159 0.406147 -0.433908
H27   H     H_    0.706600 0.758638 0.403137 0.394289
S3    S     S_3+6 0.906198 0.645138 0.473114 0.151762
O41   O     O_2   0.867159 0.697355 0.479346 -0.217567
O42   O     O_2   0.720634 0.619360 0.477735 -0.273910
O43   O     O_3   0.058983 0.636588 0.511135 -0.516087
H28   H     H_    0.999240 0.653276 0.538003 0.369540
C92   C     C_2   0.439650 0.547291 0.373293 0.812698
O44   O     O_2   0.560512 0.547151 0.400657 -0.532593
O45   O     O_R   0.465594 0.518740 0.333208 -0.633318
H29   H     H_    0.584771 0.498159 0.331490 0.310144
S4    S     S_3+6 0.771523 0.108553 0.691076 0.132756
O46   O     O_2   0.601510 0.075402 0.686347 -0.239158
O47   O     O_2   0.872577 0.104124 0.648798 -0.283678
O48   O     O_3   0.926886 0.093618 0.726164 -0.461435
H30   H     H_    0.952445 0.059480 0.715951 0.411677
S5    S     S_3+6 0.415044 0.331212 0.869869 0.117092
O49   O     O_2   0.577607 0.340487 0.900980 -0.251823
O50   O     O_2   0.319242 0.377431 0.867664 -0.288531
O51   O     O_3   0.251208 0.295224 0.886477 -0.467002
H31   H     H_    0.216176 0.311061 0.915744 0.399198
S6    S     S_3+6 0.265168 0.316585 0.614107 0.027553
O52   O     O_2   0.189124 0.320976 0.658736 -0.354512
O53   O     O_2   0.109946 0.329975 0.586353 -0.325418
O54   O     O_3   0.329075 0.260089 0.595562 -0.452115
H32   H     H_    0.215535 0.241030 0.601068 0.395430
C93   C     C_2   0.919893 0.115483 0.837790 0.890008
O55   O     O_2   0.019251 0.079767 0.831249 -0.520905
O56   O     O_R   0.984206 0.156017 0.823670 -0.650854
H33   H     H_    0.112283 0.151053 0.807919 0.315557
S7    S     S_3+6 0.429195 0.725974 0.642962 0.093807
O57   O     O_2   0.511356 0.724317 0.599132 -0.270876
O58   O     O_2   0.322483 0.771774 0.656777 -0.273612
O59   O     O_3   0.610609 0.723086 0.676538 -0.480674
H34   H     H_    0.695390 0.750197 0.673867 0.397813
C94   C     C_2   0.249254 0.134391 0.947870 0.798307
O60   O     O_2   0.278668 0.134984 0.985461 -0.564844
O61   O     O_R   0.068720 0.147415 0.935047 -0.663791
H35   H     H_    0.972956 0.154927 0.959497 0.315144
C95   C     C_2   0.306030 0.418648 0.375398 0.720264
O62   O     O_2   0.211114 0.421596 0.408040 -0.556727
O63   O     O_R   0.235644 0.438298 0.342000 -0.639568
H36   H     H_    0.109681 0.455811 0.349517 0.297355
C96   C     C_2   0.995369 0.305034 0.340082 0.795429
O64   O     O_2   0.056996 0.296066 0.303587 -0.534229
O65   O     O_R   0.104751 0.293340 0.372921 -0.645472
H37   H     H_    0.229948 0.276936 0.362340 0.314015
C97   C     C_2   0.914271 0.102715 0.100993 0.755281
O66   O     O_2   0.023907 0.075836 0.114164 -0.542267
O67   O     O_R   0.954150 0.119601 0.063669 -0.659911
H38   H     H_    0.075310 0.106149 0.048436 0.320138
C98   C     C_2   0.781010 0.782076 0.857944 0.858533
O68   O     O_2   0.829587 0.740697 0.847093 -0.515406
O69   O     O_R   0.591461 0.793087 0.871523 -0.653957
H39   H     H_    0.507254 0.763905 0.869937 0.325430
S8    S     S_3+6 0.352998 0.943781 0.864427 0.030465
O70   O     O_2   0.510606 0.943491 0.896094 -0.340884
O71   O     O_2   0.442044 0.939864 0.820942 -0.291691
O72   O     O_3   0.229607 0.994864 0.876619 -0.508937
H40   H     H_    0.308380 0.018286 0.864952 0.376847

loop_
_geom_bond_atom_site_label_1
_geom_bond_atom_site_label_2
_ccdc_geom_bond_type
O56   H33   S    
C59   H13   S    
C77   N11   A    
C32   O14   S    
C71   C76   A    
C89   O30   S    
C72   H18   S    
C42   C43   A    
C85   O24   A    
O26   V4    S    
C62   H15   S    
C67   C68   A    
C33   S1    S    
C34   C90   S    
N6    C38   S    
O67   H38   S    
O20   V3    S    
C62   C63   A    
C48   C49   A    
C15   C87   S    
C82   C83   A    
C7    C12   S    
C52   C53   A    
C31   N6    A    
C24   H5    S    
N2    C11   A    
O30   H23   S    
C49   C56   A    
C43   C44   A    
C50   C51   A    
C65   C70   A    
C17   H4    S    
O20   C85   A    
C15   C16   A    
C72   C73   A    
O5    C3    A    
S2    O38   D    
C95   O63   S    
C63   C64   A    
O19   V4    S    
C11   C18   S    
C4    C10   S    
C28   C32   A    
C1    C61   S    
N1    C12   A    
C65   C66   A    
S8    O72   S    
C6    H1    S    
C20   C21   A    
C8    S7    S    
C28   C29   A    
C39   S2    S    
C92   O44   D    
C68   C69   A    
O23   C87   A    
O21   V3    S    
O8    V2    S    
C94   O60   D    
O19   C86   A    
C33   C38   A    
O59   H34   S    
S3    O42   D    
N9    C78   A    
C26   C27   A    
O27   C88   A    
S1    O32   D    
C50   S4    S    
C39   C40   A    
O1    V2    S    
C77   C84   S    
C22   C27   A    
C48   C53   A    
N8    C58   A    
S2    O40   S    
C1    O6    A    
C41   C42   A    
C91   O37   S    
O51   H31   S    
C3    C41   S    
S4    O46   D    
O54   H32   S    
C60   C61   A    
O1    C2    A    
C8    C9    A    
C25   H6    S    
C93   O56   S    
C90   O34   D    
S8    O70   D    
C30   H8    S    
V3    O28   S    
C47   C50   A    
O65   H37   S    
S2    O39   D    
C58   O18   S    
C29   C30   A    
S7    O58   D    
O22   V3    S    
C19   O11   S    
C5    C10   A    
C43   H10   S    
O25   V3    S    
C37   H9    S    
C60   H14   S    
C91   O36   D    
C36   C37   A    
O63   H36   S    
N12   C78   A    
C83   C84   A    
C19   N5    A    
O4    C2    A    
C95   O62   D    
C47   C48   A    
C63   S6    S    
N1    N2    A    
C45   N7    A    
C57   O17   S    
V2    O10   S    
N5    C44   S    
C37   C38   A    
C16   C17   A    
C14   C15   A    
C79   C80   A    
C22   C23   A    
S5    O50   D    
C20   O12   S    
N4    C12   A    
C31   O13   S    
N8    C64   S    
C81   C85   S    
C96   O65   S    
S1    O31   D    
C79   C84   A    
C73   C74   A    
S3    O43   S    
C7    C8    A    
C5    C6    A    
C56   S5    S    
S1    O33   S    
C51   C52   A    
S8    O71   D    
C75   H19   S    
C19   C23   A    
O3    C4    A    
C46   O16   S    
C80   C81   A    
C23   C30   A    
C71   C95   S    
N5    C20   A    
C59   C60   A    
S3    O41   D    
O6    V2    S    
C94   O61   S    
O9    V2    S    
C51   H11   S    
C39   C44   A    
N10   C77   A    
C9    C10   A    
C46   C47   A    
C68   C94   S    
C21   C22   A    
S4    O47   D    
N11   N12   A    
C5    C89   S    
C89   O29   D    
C54   C58   A    
C74   C75   A    
C45   O15   S    
C69   H17   S    
O7    V1    S    
S7    O59   S    
S5    O49   D    
O22   C86   A    
C82   C97   S    
S7    O57   D    
C25   C26   A    
N3    N4    A    
S6    O54   S    
C97   O67   S    
C53   C54   A    
S6    O53   D    
C13   C14   A    
C2    C76   S    
S6    O52   D    
O5    V1    S    
C52   C57   A    
N6    C32   A    
C26   C31   A    
O33   H24   S    
C59   C64   A    
C81   C82   A    
C98   O69   S    
C13   C18   A    
C36   C91   S    
C93   O55   D    
C16   S8    S    
N7    C70   S    
C34   C35   A    
C40   S3    S    
S4    O48   S    
C67   C86   S    
C79   H20   S    
O7    V2    S    
S5    O51   S    
O8    C3    A    
O4    V1    S    
C35   C36   A    
O40   H27   S    
V1    O10   S    
O26   C87   A    
C14   H3    S    
C17   C18   A    
C42   C92   S    
N7    C46   A    
C96   O64   D    
O35   H25   S    
O24   V4    S    
C45   C49   A    
C35   C88   S    
C27   C28   A    
O2    C1    A    
C66   C67   A    
C90   O35   S    
C73   C78   S    
C71   C72   A    
C80   H21   S    
C6    C7    A    
O27   V4    S    
O48   H30   S    
O25   V4    S    
C92   O45   S    
C75   C76   A    
C65   C93   S    
O69   H39   S    
C33   C34   A    
C24   C25   A    
C40   C41   A    
C55   C56   A    
O21   C88   A    
C54   C55   A    
C74   C96   S    
C98   O68   D    
O37   H26   S    
C13   C98   S    
C66   H16   S    
C61   C62   A    
O3    V1    S    
C29   H7    S    
C9    H2    S    
C83   H22   S    
O45   H29   S    
C69   C70   A    
V4    O28   S    
O9    C4    A    
C97   O66   D    
C21   C24   A    
C55   H12   S    
O43   H28   S    
C57   N8    A    
O72   H40   S    
O61   H35   S    
N9    N10   A    
C11   N3    A    
O23   V3    S    
O2    V1    S    
