data_mof_unit_26415.cif
_audit_creation_date              2012-12-10T20:51:40-0500
_audit_creation_method            fapswitch 2.2
_symmetry_space_group_name_H-M    P1
_symmetry_Int_Tables_number       1
_space_group_crystal_system       triclinic
_cell_length_a                    8.124854
_cell_length_b                    8.921198
_cell_length_c                    16.866151
_cell_angle_alpha                 89.329768
_cell_angle_beta                  94.585466
_cell_angle_gamma                 89.8227
_cell_volume                      1218.51012116

loop_
_atom_site_label
_atom_site_type_symbol
_atom_type_description
_atom_site_fract_x
_atom_site_fract_y
_atom_site_fract_z
_atom_type_partial_charge
C1    C     C_R   0.500238 0.218063 0.500422 0.928339
C2    C     C_R   0.500202 0.781826 0.501699 0.907970
C3    C     C_R   0.521577 0.505465 0.653689 0.931688
C4    C     C_R   0.478412 0.502921 0.346625 0.927470
C5    C     C_R   0.534524 0.533232 0.739077 -0.264715
C6    C     C_R   0.464634 0.513520 0.261005 -0.249913
C7    C     C_R   0.390028 0.561288 0.776078 -0.328905
C8    C     C_R   0.555627 0.413078 0.219050 -0.312103
C9    C     C_R   0.398000 0.601934 0.855082 0.121722
C10   C     C_R   0.542173 0.416432 0.136753 0.161153
C11   C     C_R   0.548381 0.583261 0.902477 0.116944
C12   C     C_R   0.444845 0.527467 0.096128 0.096885
C13   C     C_R   0.693964 0.553513 0.866032 0.364979
C14   C     C_R   0.356342 0.631870 0.137973 0.374900
C15   C     C_R   0.688625 0.550476 0.782710 0.298520
C16   C     C_R   0.362276 0.622605 0.220942 0.356670
C17   C     C_1   0.500671 0.065166 0.501510 -0.201513
C18   C     C_1   0.500354 0.934684 0.502012 -0.204252
H1    H     H_    0.631681 0.327823 0.250384 0.200942
H2    H     H_    0.271239 0.561545 0.742377 0.226600
N1    N     N_1   0.073640 0.500030 0.499990 -0.032078
N2    N     N_1   0.926360 0.499970 0.500010 -0.034516
N3    N     N_2   0.556532 0.585044 0.986289 -0.102868
N4    N     N_2   0.430925 0.531206 0.012967 -0.120405
O1    O     O_R   0.636850 0.285340 0.500000 -0.615066
O2    O     O_R   0.363150 0.714660 0.500000 -0.619818
O3    O     O_R   0.363100 0.285350 0.500000 -0.616817
O4    O     O_R   0.636900 0.714650 0.500000 -0.624316
O5    O     O_R   0.652140 0.498630 0.616140 -0.577817
O6    O     O_R   0.347860 0.501370 0.383860 -0.576563
O7    O     O_R   0.378390 0.498650 0.616130 -0.629228
O8    O     O_R   0.621610 0.501350 0.383870 -0.619277
Zn1   Zn    Zn3+2 0.682780 0.499990 0.500010 0.995846
Zn2   Zn    Zn3+2 0.317220 0.500010 0.499990 0.996372
I1    I     I_    0.661634 0.244748 0.077239 -0.445951
I2    I     I_    0.185408 0.710079 0.892675 -0.336704
O9    O     O_3   0.840492 0.530663 0.912472 -0.542758
C19   C     C_3   0.893821 0.381146 0.902643 0.168660
H3    H     H_    0.943172 0.367228 0.843512 0.174222
H4    H     H_    0.791123 0.299938 0.908241 0.135721
C20   C     C_3   0.030919 0.341086 0.966241 -0.704324
H5    H     H_    0.996266 0.374065 0.025947 0.291213
H6    H     H_    0.053417 0.218498 0.965992 0.194865
H7    H     H_    0.146993 0.398048 0.953808 0.268277
O10   O     O_3   0.255606 0.737887 0.098169 -0.546059
C21   C     C_3   0.351325 0.863328 0.078441 0.158204
H8    H     H_    0.402007 0.846361 0.020127 0.187215
H9    H     H_    0.458397 0.885506 0.122135 0.105211
C22   C     C_3   0.240798 0.001524 0.072542 -0.746817
H10   H     H_    0.197562 0.027106 0.131730 0.253384
H11   H     H_    0.309712 0.099298 0.051321 0.224711
H12   H     H_    0.131915 0.981230 0.030014 0.276461
O11   O     O_3   0.831299 0.576469 0.745050 -0.579725
C23   C     C_3   0.834384 0.731523 0.725438 0.171181
H13   H     H_    0.852043 0.799642 0.780360 0.159595
H14   H     H_    0.717998 0.768651 0.691137 0.113243
C24   C     C_3   0.975009 0.764964 0.673691 -0.753097
H15   H     H_    0.095308 0.753176 0.708780 0.246763
H16   H     H_    0.963919 0.882002 0.650671 0.199321
H17   H     H_    0.970419 0.687779 0.622627 0.262331
O12   O     O_3   0.255153 0.709510 0.261083 -0.554401
C25   C     C_3   0.338734 0.836860 0.292470 0.124469
H18   H     H_    0.392582 0.904189 0.245490 0.127794
H19   H     H_    0.439418 0.804498 0.337840 0.115791
C26   C     C_3   0.216299 0.936385 0.331070 -0.746977
H20   H     H_    0.164245 0.875346 0.381031 0.264611
H21   H     H_    0.279113 0.039171 0.354152 0.198527
H22   H     H_    0.114144 0.969729 0.286594 0.258215

loop_
_geom_bond_atom_site_label_1
_geom_bond_atom_site_label_2
_ccdc_geom_bond_type
C9    I2    S    
C6    C8    A    
N3    N4    D    
C21   H8    S    
C7    C9    A    
O9    C19   S    
C14   C16   A    
C2    C18   S    
C11   C13   A    
C20   H5    S    
C12   N4    S    
C1    C17   S    
C3    O7    A    
C22   H12   S    
O8    Zn1   S    
C26   H22   S    
C17   C18   T    
O7    Zn2   S    
C2    O2    A    
C4    O8    A    
O11   C23   S    
O2    Zn2   S    
C1    O1    A    
C9    C11   A    
C21   C22   S    
C3    O5    A    
C24   H15   S    
C25   H18   S    
C10   C12   A    
C13   O9    S    
C15   O11   S    
N1    N2    T    
C19   H4    S    
C12   C14   A    
O4    Zn1   S    
C26   H20   S    
C14   O10   S    
C21   H9    S    
C13   C15   A    
O3    Zn2   S    
O12   C25   S    
C10   I1    S    
C23   H14   S    
C24   H16   S    
C8    H1    S    
C5    C15   A    
C20   H7    S    
O6    Zn2   S    
C6    C16   A    
O5    Zn1   S    
C19   H3    S    
C19   C20   S    
C1    O3    A    
C22   H10   S    
C16   O12   S    
C11   N3    S    
C5    C7    A    
N2    Zn1   S    
C2    O4    A    
C23   H13   S    
C24   H17   S    
C25   H19   S    
N1    Zn2   S    
C3    C5    S    
C25   C26   S    
C26   H21   S    
O10   C21   S    
C4    C6    S    
C7    H2    S    
C8    C10   A    
C4    O6    A    
C20   H6    S    
O1    Zn1   S    
C22   H11   S    
C23   C24   S    
