data_mof_unit_27970.cif
_audit_creation_date              2012-10-26T19:24:19-0400
_audit_creation_method            fapswitch 2.2
_symmetry_space_group_name_H-M    P1
_symmetry_Int_Tables_number       1
_space_group_crystal_system       triclinic
_cell_length_a                    27.766041
_cell_length_b                    10.886398
_cell_length_c                    9.557078
_cell_angle_alpha                 90.314363
_cell_angle_beta                  90.014892
_cell_angle_gamma                 92.16406
_cell_volume                      2886.73464867

loop_
_atom_site_label
_atom_site_type_symbol
_atom_type_description
_atom_site_fract_x
_atom_site_fract_y
_atom_site_fract_z
_atom_type_partial_charge
C1    C     C_R   0.503930 0.262944 0.500528 0.547379
C2    C     C_R   0.974580 0.376140 0.540635 0.014068
C3    C     C_R   0.975781 0.599826 0.579123 0.036410
C4    C     C_R   0.407439 0.500718 0.500040 0.560207
C5    C     C_R   0.949826 0.486772 0.558339 0.001561
C6    C     C_R   0.947767 0.269856 0.497787 -0.152628
C7    C     C_R   0.897713 0.268943 0.488516 -0.121997
C8    C     C_R   0.872748 0.375353 0.517977 0.034180
C9    C     C_R   0.898834 0.484741 0.552393 -0.038207
C10   C     C_R   0.873952 0.592502 0.578775 -0.001424
C11   C     C_R   0.823512 0.589535 0.568665 0.398758
C12   C     C_R   0.277712 0.500866 0.375402 0.046486
C13   C     C_R   0.822211 0.375951 0.510678 0.396591
C14   C     C_R   0.724042 0.454052 0.397806 -0.022692
C15   C     C_R   0.673916 0.458360 0.384849 0.106886
C16   C     C_R   0.497417 0.737743 0.501389 0.536130
C17   C     C_R   0.669661 0.519768 0.630056 -0.184279
C18   C     C_R   0.719448 0.513962 0.641215 -0.075241
C19   C     C_R   0.746969 0.482178 0.525057 0.202394
C20   C     C_R   0.025553 0.377801 0.557518 0.017329
C21   C     C_R   0.051109 0.492851 0.549411 -0.002834
C22   C     C_R   0.026093 0.603777 0.552759 0.023332
C23   C     C_R   0.253395 0.509693 0.504678 0.257808
C24   C     C_R   0.052335 0.270360 0.579395 0.130709
C25   C     C_R   0.101522 0.718112 0.504885 -0.130413
C26   C     C_R   0.950099 0.704034 0.623313 0.117021
C27   C     C_R   0.899714 0.700102 0.617833 -0.104408
C28   C     C_R   0.592664 0.497953 0.499916 0.533746
C29   C     C_R   0.051738 0.714346 0.521699 -0.132683
C30   C     C_R   0.528012 0.121008 0.758917 -0.101914
C31   C     C_R   0.520340 0.063190 0.887025 -0.133703
C32   C     C_R   0.496522 0.948919 0.891290 -0.120671
C33   C     C_R   0.484820 0.887254 0.766936 -0.095952
C34   C     C_R   0.101963 0.497347 0.536563 -0.040244
C35   C     C_R   0.497150 0.939346 0.635230 0.020949
C36   C     C_R   0.511623 0.064799 0.632462 0.025261
C37   C     C_R   0.508382 0.129091 0.503882 -0.012385
C38   C     C_R   0.502882 0.063176 0.378423 -0.166628
C39   C     C_R   0.498809 0.936180 0.379497 -0.161162
C40   C     C_R   0.177991 0.395162 0.532814 0.384818
C41   C     C_R   0.495756 0.872448 0.506408 -0.007552
C42   C     C_R   0.562413 0.666696 0.145055 -0.127268
C43   C     C_R   0.591593 0.751516 0.073738 -0.159729
C44   C     C_R   0.591605 0.753489 0.928319 -0.026933
C45   C     C_R   0.127596 0.388908 0.544942 -0.012471
C46   C     C_R   0.562536 0.666542 0.856819 -0.097587
C47   C     C_R   0.530752 0.581963 0.925755 0.135655
C48   C     C_R   0.530667 0.582069 0.075301 0.146057
C49   C     C_R   0.470928 0.421695 0.073520 -0.012459
C50   C     C_R   0.470932 0.421751 0.925324 -0.012466
C51   C     C_R   0.177625 0.612592 0.503250 0.386803
C52   C     C_R   0.279571 0.516255 0.629701 -0.068478
C53   C     C_R   0.329587 0.513269 0.628115 -0.149751
C54   C     C_R   0.328236 0.498455 0.374936 -0.133441
C55   C     C_3   0.993745 0.787915 0.823075 -0.301914
C56   C     C_R   0.102730 0.277497 0.570740 -0.082275
C57   C     C_3   0.250904 0.493543 0.237650 -0.242129
C58   C     C_3   0.250823 0.362938 0.176814 -0.304719
C59   C     C_3   0.223585 0.354900 0.038139 -0.439733
C60   C     C_3   0.621902 0.845193 0.843265 -0.247839
C61   C     C_3   0.645260 0.952620 0.927178 -0.298541
C62   C     C_3   0.669080 0.047973 0.830363 -0.434067
C63   C     C_3   0.635782 0.300169 0.239479 -0.284195
C64   C     C_3   0.039910 0.045497 0.561042 -0.322637
C65   C     C_R   0.127207 0.610479 0.515424 0.029650
C66   C     C_R   0.354416 0.503917 0.500848 -0.006815
C67   C     C_R   0.645943 0.493099 0.502533 0.004353
Cu1   Cu    Cu3+1 0.500000 0.499990 0.640660 0.906873
Cu2   Cu    Cu3+1 0.500000 0.500010 0.359340 0.913663
H1    H     H_    0.346999 0.491799 0.275922 0.123995
H2    H     H_    0.531857 0.108452 0.983173 0.100819
H3    H     H_    0.488171 0.906455 0.990996 0.115532
H4    H     H_    0.464688 0.801102 0.776927 0.154260
H5    H     H_    0.497216 0.887982 0.280021 0.136707
H6    H     H_    0.447127 0.357650 0.128681 0.116185
H7    H     H_    0.566791 0.671561 0.255108 0.186751
H8    H     H_    0.614479 0.814305 0.134342 0.117070
H9    H     H_    0.566071 0.670353 0.746696 0.184245
H10   H     H_    0.447148 0.357708 0.869270 0.125754
H11   H     H_    0.122619 0.195392 0.589259 0.174317
H12   H     H_    0.260876 0.522495 0.728736 0.112119
H13   H     H_    0.745422 0.429741 0.307672 0.149888
H14   H     H_    0.878720 0.184723 0.456355 0.163214
H15   H     H_    0.965138 0.187806 0.464561 0.141392
H16   H     H_    0.348756 0.518053 0.726822 0.129601
H17   H     H_    0.954394 0.887778 0.682851 0.246163
H18   H     H_    0.013058 0.872945 0.860772 0.145542
H19   H     H_    0.019853 0.713180 0.819684 0.168760
H20   H     H_    0.964377 0.763232 0.897971 0.150151
H21   H     H_    0.185468 0.379518 0.053366 0.160482
H22   H     H_    0.240828 0.418004 0.960468 0.153726
H23   H     H_    0.119709 0.805641 0.482754 0.158593
H24   H     H_    0.224191 0.259558 0.996478 0.166597
H25   H     H_    0.288446 0.335047 0.159016 0.160429
H26   H     H_    0.233342 0.297662 0.251956 0.209801
H27   H     H_    0.213093 0.521413 0.250102 0.170468
H28   H     H_    0.268395 0.559205 0.162889 0.140107
H29   H     H_    0.697396 0.005415 0.766152 0.180024
H30   H     H_    0.641817 0.087347 0.760134 0.153681
H31   H     H_    0.686018 0.123680 0.893810 0.152202
H32   H     H_    0.617456 0.998428 0.990397 0.160709
H33   H     H_    0.673189 0.917657 0.998478 0.167601
H34   H     H_    0.649734 0.545762 0.722295 0.131413
H35   H     H_    0.650476 0.794960 0.788116 0.146441
H36   H     H_    0.598242 0.884287 0.762166 0.157387
H37   H     H_    0.631162 0.490140 0.210265 0.276711
H38   H     H_    0.605387 0.281090 0.312711 0.162065
H39   H     H_    0.665234 0.236806 0.261933 0.159703
H40   H     H_    0.622964 0.282641 0.130846 0.132661
H41   H     H_    0.999162 0.163390 0.690014 0.259572
H42   H     H_    0.055754 0.981360 0.636540 0.173895
H43   H     H_    0.065128 0.058931 0.471659 0.147271
H44   H     H_    0.005701 0.004313 0.519124 0.139316
H45   H     H_    0.880695 0.781200 0.648084 0.159423
H46   H     H_    0.736779 0.535184 0.740426 0.144089
H47   H     H_    0.033285 0.797809 0.503107 0.146338
H48   H     H_    0.501721 0.109737 0.278634 0.129757
H49   H     H_    0.547834 0.208314 0.760570 0.144788
N1    N     N_R   0.201797 0.505749 0.511844 -0.401041
N2    N     N_R   0.798643 0.482285 0.535260 -0.394197
N3    N     N_R   0.500460 0.501210 0.147910 -0.240681
N4    N     N_R   0.500480 0.501290 0.852040 -0.248865
N5    N     N_2   0.973889 0.808981 0.685632 -0.547673
N6    N     N_2   0.653309 0.426506 0.252745 -0.521240
N7    N     N_2   0.030444 0.159696 0.632321 -0.534270
O1    O     O_R   0.500000 0.319640 0.618810 -0.505440
O2    O     O_R   0.569730 0.499970 0.618800 -0.528389
O3    O     O_R   0.569740 0.499990 0.381230 -0.520613
O4    O     O_2   0.203092 0.291730 0.542145 -0.511246
O5    O     O_2   0.796839 0.271011 0.480312 -0.510797
O6    O     O_2   0.202330 0.720199 0.483400 -0.498398
O7    O     O_2   0.799527 0.693555 0.590131 -0.508744
O8    O     O_R   0.500000 0.319660 0.381240 -0.507410
O9    O     O_R   0.430260 0.500010 0.618770 -0.499636
O10   O     O_R   0.430270 0.500030 0.381200 -0.497249
O11   O     O_R   0.500000 0.680340 0.618760 -0.535596
O12   O     O_R   0.500000 0.680360 0.381190 -0.518843

loop_
_geom_bond_atom_site_label_1
_geom_bond_atom_site_label_2
_ccdc_geom_bond_type
C10   C27   A    
C7    H14   S    
C40   O4    S    
C8    C13   A    
C22   C29   A    
C16   O12   A    
C50   N4    A    
C43   C44   A    
C50   H10   S    
C63   N6    S    
C57   C58   S    
C7    C8    A    
C39   C41   A    
C31   C32   A    
C12   C23   A    
C26   C27   A    
C36   C37   A    
C23   N1    S    
C30   C31   A    
C64   H43   S    
C18   C19   A    
C51   C65   A    
C39   H5    S    
C55   H19   S    
C62   H29   S    
C38   H48   S    
C20   C24   A    
C45   C56   A    
C8    C9    A    
C57   H27   S    
C51   N1    A    
C13   O5    S    
C49   H6    S    
C9    C10   A    
C61   C62   S    
C28   O2    A    
C1    C37   S    
C31   H2    S    
C15   C67   A    
Cu2   O10   S    
C21   C22   A    
C11   O7    S    
C25   C29   A    
C2    C6    A    
C1    O8    A    
C11   N2    A    
C34   C65   A    
C44   C46   A    
Cu2   O12   S    
C49   N3    A    
C55   N5    S    
C17   C67   A    
C6    H15   S    
C15   N6    S    
C2    C20   A    
Cu1   O11   S    
C28   C67   S    
C25   C65   A    
C1    O1    A    
Cu2   O3    S    
C32   H3    S    
Cu1   N4    S    
C48   N3    A    
C46   H9    S    
C51   O6    S    
Cu1   Cu2   S    
C64   H42   S    
C42   C48   A    
C21   C34   A    
C30   H49   S    
C3    C5    A    
C58   C59   S    
C60   C61   S    
C59   H21   S    
C63   H40   S    
C61   H32   S    
C58   H26   S    
C5    C9    A    
C37   C38   A    
C47   C48   A    
C54   H1    S    
Cu2   N3    S    
C57   H28   S    
C17   C18   A    
C17   H34   S    
C34   C45   A    
C59   H22   S    
C20   C21   A    
C53   C66   A    
Cu1   O2    S    
C4    O10   A    
C62   H31   S    
C12   C57   S    
C33   H4    S    
C29   H47   S    
C19   N2    S    
C49   C50   A    
C24   N7    S    
C2    C5    A    
C24   C56   A    
C26   N5    S    
C14   H13   S    
C63   H38   S    
C16   O11   A    
Cu1   O1    S    
C13   N2    A    
C52   C53   A    
C4    O9    A    
C46   C47   A    
C25   H23   S    
Cu2   O8    S    
C64   H44   S    
C14   C19   A    
C3    C26   A    
C47   N4    A    
C18   H46   S    
C6    C7    A    
C54   C66   A    
C43   H8    S    
C42   H7    S    
C56   H11   S    
C30   C36   A    
C32   C33   A    
Cu1   O9    S    
C61   H33   S    
C58   H25   S    
C55   H20   S    
C4    C66   S    
C23   C52   A    
C38   C39   A    
C44   C60   S    
C33   C35   A    
C55   H18   S    
C52   H12   S    
C35   C41   A    
C10   C11   A    
H41   N7    S    
C62   H30   S    
C27   H45   S    
C40   N1    A    
C40   C45   A    
C64   N7    S    
C42   C43   A    
H37   N6    S    
H17   N5    S    
C14   C15   A    
C3    C22   A    
C53   H16   S    
C35   C36   A    
C59   H24   S    
C63   H39   S    
C60   H35   S    
C16   C41   S    
C12   C54   A    
C60   H36   S    
C28   O3    A    
