data_mof_unit_65896.cif
_audit_creation_date              2012-10-26T17:24:41-0400
_audit_creation_method            fapswitch 2.2
_symmetry_space_group_name_H-M    P1
_symmetry_Int_Tables_number       1
_space_group_crystal_system       triclinic
_cell_length_a                    42.637373
_cell_length_b                    29.424754
_cell_length_c                    29.419504
_cell_angle_alpha                 90.000062
_cell_angle_beta                  133.870669
_cell_angle_gamma                 89.997774
_cell_volume                      26608.3078515

loop_
_atom_site_label
_atom_site_type_symbol
_atom_type_description
_atom_site_fract_x
_atom_site_fract_y
_atom_site_fract_z
_atom_type_partial_charge
C1    C     C_R   0.499982 0.585484 0.500000 0.551232
C2    C     C_1   0.835279 0.999884 0.336104 -0.020129
C3    C     C_3   0.760726 0.961299 0.241870 0.099106
C4    C     C_1   0.373429 0.499944 0.374047 -0.012781
C5    C     C_1   0.873429 0.999947 0.374047 -0.012790
C6    C     C_1   0.120349 0.499982 0.120490 0.011897
C7    C     C_1   0.620349 0.999983 0.120486 0.011895
C8    C     C_3   0.260841 0.503705 0.304704 0.247273
C9    C     C_3   0.760838 0.002235 0.304803 0.247270
C10   C     C_3   0.289397 0.499806 0.290160 -0.040346
C11   C     C_3   0.789397 0.999821 0.290155 -0.040348
C12   C     C_3   0.246421 0.599142 0.171176 -0.286222
C13   C     C_1   0.158504 0.499932 0.158838 0.046016
C14   C     C_3   0.246424 0.384438 0.198924 -0.285351
C15   C     C_3   0.746428 0.101698 0.174626 -0.286202
C16   C     C_3   0.746425 0.886167 0.194995 -0.285349
C17   C     C_3   0.246800 0.611036 0.293716 -0.106726
C18   C     C_3   0.245850 0.404110 0.319934 -0.103807
C19   C     C_3   0.746798 0.109396 0.297494 -0.106726
C20   C     C_3   0.745849 0.901665 0.316605 -0.103748
C21   C     C_3   0.245413 0.484136 0.126315 -0.105992
C22   C     C_3   0.745420 0.988260 0.125848 -0.105997
C23   C     C_3   0.246692 0.515584 0.366665 -0.108501
C24   C     C_1   0.658504 0.999937 0.158831 0.046009
C25   C     C_3   0.746685 0.011496 0.367121 -0.108488
C26   C     C_1   0.499966 0.636532 0.499956 -0.041639
C27   C     C_1   0.499963 0.363468 0.499953 -0.042997
C28   C     C_1   0.999966 0.136532 0.499956 -0.041707
C29   C     C_1   0.999963 0.863468 0.499953 -0.042966
C30   C     C_1   0.499956 0.678854 0.499941 -0.035379
C31   C     C_1   0.499952 0.321146 0.499936 -0.036429
C32   C     C_1   0.999956 0.178854 0.499940 -0.035418
C33   C     C_R   0.499981 0.414516 0.499999 0.550057
C34   C     C_1   0.999952 0.821146 0.499936 -0.036415
C35   C     C_1   0.499950 0.729020 0.499939 0.002230
C36   C     C_1   0.499945 0.270980 0.499933 0.001589
C37   C     C_1   0.999950 0.229020 0.499939 0.002211
C38   C     C_1   0.999945 0.770980 0.499933 0.001592
C39   C     C_1   0.499949 0.771342 0.499946 0.002311
C40   C     C_1   0.499943 0.228658 0.499939 0.001904
C41   C     C_1   0.999949 0.271342 0.499946 0.002299
C42   C     C_1   0.999943 0.728658 0.499940 0.001905
C43   C     C_1   0.499951 0.821508 0.499959 -0.034331
C44   C     C_R   0.999982 0.085484 0.500000 0.551150
C45   C     C_1   0.499944 0.178492 0.499952 -0.034585
C46   C     C_1   0.999951 0.321508 0.499959 -0.034338
C47   C     C_1   0.999945 0.678492 0.499953 -0.034585
C48   C     C_1   0.499954 0.863830 0.499972 -0.039018
C49   C     C_1   0.499948 0.136170 0.499966 -0.039182
C50   C     C_1   0.999954 0.363830 0.499972 -0.039023
C51   C     C_1   0.999948 0.636170 0.499966 -0.039184
C52   C     C_R   0.418314 0.500012 0.418523 0.566900
C53   C     C_R   0.918314 0.000011 0.418523 0.566858
C54   C     C_1   0.635092 0.500001 0.634715 -0.043835
C55   C     C_R   0.999981 0.914516 0.499999 0.550095
C56   C     C_1   0.135092 0.000001 0.634715 -0.043834
C57   C     C_1   0.676569 0.500001 0.676177 -0.028943
C58   C     C_1   0.176568 0.000001 0.676177 -0.028941
C59   C     C_1   0.726141 0.500002 0.725824 0.002998
C60   C     C_1   0.226141 0.000002 0.725824 0.002999
C61   C     C_1   0.767618 0.500002 0.767390 0.002975
C62   C     C_1   0.267618 0.000002 0.767390 0.002976
C63   C     C_1   0.817191 0.500003 0.817079 -0.028986
C64   C     C_1   0.317191 0.000003 0.817079 -0.028986
C65   C     C_1   0.858668 0.500003 0.858651 -0.043858
C66   C     C_3   0.204383 0.499856 0.204892 0.017553
C67   C     C_1   0.358668 0.000003 0.858651 -0.043858
C68   C     C_R   0.994846 0.500000 0.080451 0.551631
C69   C     C_R   0.494846 0.000000 0.080451 0.551628
C70   C     C_R   0.075457 0.499998 0.075397 0.567612
C71   C     C_R   0.575457 0.999998 0.075396 0.567610
C72   C     C_R   0.993230 0.500000 0.907796 0.551769
C73   C     C_R   0.493229 1.000000 0.907796 0.551771
C74   C     C_R   0.909160 0.500001 0.909245 0.542886
C75   C     C_R   0.409160 0.000001 0.909245 0.542887
C76   C     C_R   0.584602 0.500000 0.584476 0.544087
C77   C     C_3   0.704383 0.999866 0.204883 0.017548
C78   C     C_R   0.084602 0.000000 0.584476 0.544085
C79   C     C_R   0.499095 0.000000 0.414046 0.547610
C80   C     C_R   0.999095 0.500000 0.414046 0.547609
C81   C     C_R   0.499958 0.914878 0.499985 0.547557
C82   C     C_R   0.499956 0.085122 0.499983 0.547502
C83   C     C_R   0.999958 0.414878 0.499985 0.547557
C84   C     C_R   0.999956 0.585121 0.499983 0.547502
C85   C     C_R   0.500751 1.000000 0.585882 0.547460
C86   C     C_R   0.000751 0.500000 0.585882 0.547462
C87   C     C_1   0.995603 0.500000 0.132246 -0.039440
C88   C     C_3   0.232602 0.495913 0.190029 0.264978
C89   C     C_1   0.495603 0.000000 0.132246 -0.039447
C90   C     C_1   0.996242 0.500000 0.175203 -0.034070
C91   C     C_1   0.496242 0.000000 0.175203 -0.034076
C92   C     C_1   0.996993 0.500000 0.226110 0.002859
C93   C     C_1   0.496993 0.000000 0.226110 0.002857
C94   C     C_1   0.497605 0.000000 0.269039 0.002627
C95   C     C_1   0.997605 0.500000 0.269039 0.002626
C96   C     C_1   0.498279 0.000000 0.319871 -0.034298
C97   C     C_1   0.998279 0.500000 0.319871 -0.034302
C98   C     C_1   0.498753 0.000000 0.362664 -0.039066
C99   C     C_3   0.732604 0.997408 0.189914 0.264982
C100  C     C_1   0.998753 0.500000 0.362664 -0.039071
C101  C     C_1   0.994237 0.500000 0.857740 -0.038352
C102  C     C_1   0.494237 1.000000 0.857740 -0.038349
C103  C     C_3   0.232809 0.539183 0.251522 0.247318
C104  C     C_3   0.232783 0.464341 0.258276 0.238745
C105  C     C_3   0.732808 0.038550 0.252853 0.247319
C106  C     C_3   0.732781 0.963520 0.257034 0.238733
C107  C     C_1   0.995397 0.500000 0.816580 -0.032702
C108  C     C_1   0.495397 1.000000 0.816580 -0.032697
C109  C     C_1   0.996928 0.500000 0.767948 0.003690
C110  C     C_1   0.335279 0.499876 0.336105 -0.020128
C111  C     C_1   0.496928 1.000000 0.767947 0.003693
C112  C     C_1   0.498217 1.000000 0.726922 0.003076
C113  C     C_1   0.998218 0.500000 0.726922 0.003075
C114  C     C_1   0.499615 1.000000 0.678151 -0.033974
C115  C     C_1   0.999615 0.500000 0.678151 -0.033974
C116  C     C_1   0.500484 1.000000 0.636692 -0.039101
C117  C     C_1   0.000484 0.500000 0.636692 -0.039101
C118  C     C_3   0.260750 0.535064 0.236510 0.102806
C119  C     C_3   0.260725 0.460639 0.243210 0.099123
C120  C     C_3   0.760752 0.035910 0.237729 0.102829
Cu1   Cu    Cu3+1 0.500480 0.500000 0.542990 0.958835
Cu2   Cu    Cu3+1 0.958020 0.500000 0.458050 0.949609
Cu3   Cu    Cu3+1 0.541920 0.000000 0.541950 0.950158
Cu4   Cu    Cu3+1 0.041920 0.500000 0.541950 0.950152
Cu5   Cu    Cu3+1 0.000480 0.000000 0.542990 0.958925
Cu6   Cu    Cu3+1 0.499450 0.500000 0.457010 0.945757
Cu7   Cu    Cu3+1 0.999450 0.000000 0.457010 0.945743
Cu8   Cu    Cu3+1 0.993800 0.542460 0.993900 0.960777
Cu9   Cu    Cu3+1 0.993800 0.457540 0.993900 0.960851
Cu10  Cu    Cu3+1 0.493800 0.042460 0.993900 0.960766
Cu11  Cu    Cu3+1 0.493800 0.957540 0.993900 0.960861
Cu12  Cu    Cu3+1 0.458020 0.000000 0.458050 0.949618
H1    H     H_    0.305295 0.564601 0.236420 0.246902
H2    H     H_    0.761554 0.134396 0.179633 0.133252
H3    H     H_    0.717898 0.109160 0.167896 0.189256
H4    H     H_    0.735256 0.083831 0.132321 0.169012
H5    H     H_    0.805410 0.908010 0.281428 0.246731
H6    H     H_    0.761401 0.861202 0.186481 0.132717
H7    H     H_    0.717600 0.901346 0.149083 0.187899
H8    H     H_    0.735715 0.867960 0.215301 0.170084
H9    H     H_    0.255033 0.630541 0.270927 0.151989
H10   H     H_    0.276846 0.595783 0.338519 0.149448
H11   H     H_    0.234004 0.635561 0.306177 0.129675
H12   H     H_    0.261546 0.631472 0.175064 0.133261
H13   H     H_    0.254755 0.422375 0.360482 0.153996
H14   H     H_    0.275524 0.397369 0.329240 0.119450
H15   H     H_    0.232268 0.370691 0.316417 0.132224
H16   H     H_    0.755031 0.129955 0.275393 0.151991
H17   H     H_    0.776844 0.093651 0.341766 0.149472
H18   H     H_    0.734002 0.133038 0.310781 0.129672
H19   H     H_    0.754709 0.918819 0.357739 0.153957
H20   H     H_    0.775548 0.895673 0.325744 0.119437
H21   H     H_    0.732286 0.867900 0.311913 0.132201
H22   H     H_    0.253471 0.447443 0.133373 0.152372
H23   H     H_    0.217892 0.607350 0.164180 0.189242
H24   H     H_    0.275581 0.504346 0.161624 0.115880
H25   H     H_    0.232060 0.493393 0.079128 0.132030
H26   H     H_    0.753478 0.951625 0.131652 0.152378
H27   H     H_    0.775587 0.008288 0.161845 0.115887
H28   H     H_    0.732068 0.998667 0.078997 0.132031
H29   H     H_    0.216745 0.495056 0.330991 0.147013
H30   H     H_    0.238311 0.552214 0.358913 0.152244
H31   H     H_    0.259472 0.506603 0.413593 0.130106
H32   H     H_    0.716733 0.991181 0.330735 0.147005
H33   H     H_    0.738314 0.048084 0.360638 0.152228
H34   H     H_    0.235247 0.580220 0.129500 0.169001
H35   H     H_    0.759459 0.001343 0.413715 0.130104
H36   H     H_    0.305410 0.407199 0.284593 0.246702
H37   H     H_    0.261400 0.358682 0.191278 0.132715
H38   H     H_    0.217599 0.399028 0.152503 0.187928
H39   H     H_    0.235714 0.367305 0.219834 0.170071
H40   H     H_    0.805300 0.066966 0.238686 0.246835
N1    N     N_2   0.278124 0.572733 0.227969 -0.527172
N2    N     N_2   0.278089 0.419355 0.240893 -0.528848
N3    N     N_2   0.778129 0.074448 0.230499 -0.527189
N4    N     N_2   0.778090 0.920715 0.238153 -0.528805
O1    O     O_R   0.500410 0.561970 0.536310 -0.482583
O2    O     O_R   0.963790 0.500000 0.401850 -0.482262
O3    O     O_R   0.534640 0.000000 0.472710 -0.482209
O4    O     O_R   0.034640 0.500000 0.472710 -0.482208
O5    O     O_R   0.464530 0.938000 0.464560 -0.482420
O6    O     O_R   0.464530 0.062000 0.464560 -0.482560
O7    O     O_R   0.964530 0.438000 0.464560 -0.482423
O8    O     O_R   0.964530 0.562000 0.464560 -0.482559
O9    O     O_R   0.535390 0.937990 0.535420 -0.482079
O10   O     O_R   0.535390 0.062010 0.535420 -0.482047
O11   O     O_R   0.035390 0.437990 0.535420 -0.482077
O12   O     O_R   0.500410 0.438030 0.536310 -0.483513
O13   O     O_R   0.035390 0.562010 0.535420 -0.482048
O14   O     O_R   0.465290 0.000000 0.527290 -0.482154
O15   O     O_R   0.965290 0.500000 0.527290 -0.482153
O16   O     O_R   0.536150 0.000000 0.598150 -0.482122
O17   O     O_R   0.036150 0.500000 0.598150 -0.482123
O18   O     O_R   0.499540 0.561910 0.463710 -0.484321
O19   O     O_R   0.499540 0.438090 0.463710 -0.483974
O20   O     O_R   0.999540 0.061910 0.463710 -0.484348
O21   O     O_R   0.999540 0.938090 0.463710 -0.483989
O22   O     O_R   0.439190 0.500000 0.475090 -0.488743
O23   O     O_R   0.000410 0.061970 0.536310 -0.482646
O24   O     O_R   0.939190 0.000000 0.475090 -0.488669
O25   O     O_R   0.438320 0.500000 0.402480 -0.501734
O26   O     O_R   0.938320 0.000000 0.402480 -0.501741
O27   O     O_R   0.561610 0.500000 0.597520 -0.480942
O28   O     O_R   0.061610 0.000000 0.597520 -0.480942
O29   O     O_R   0.560740 0.500000 0.524910 -0.480441
O30   O     O_R   0.060740 0.000000 0.524910 -0.480439
O31   O     O_R   0.994560 0.535840 0.056620 -0.483419
O32   O     O_R   0.994560 0.464160 0.056620 -0.483271
O33   O     O_R   0.494560 0.035840 0.056620 -0.483378
O34   O     O_R   0.000410 0.938030 0.536310 -0.483421
O35   O     O_R   0.494560 0.964160 0.056620 -0.483303
O36   O     O_R   0.055010 0.535850 0.055100 -0.493416
O37   O     O_R   0.055010 0.464150 0.055100 -0.493305
O38   O     O_R   0.555010 0.035850 0.055100 -0.493424
O39   O     O_R   0.555010 0.964150 0.055100 -0.493294
O40   O     O_R   0.993040 0.535870 0.931160 -0.483810
O41   O     O_R   0.993040 0.464130 0.931160 -0.483693
O42   O     O_R   0.493040 0.035870 0.931160 -0.483794
O43   O     O_R   0.493040 0.964130 0.931160 -0.483720
O44   O     O_3   0.214064 0.578740 0.251509 -0.575694
O45   O     O_R   0.932590 0.535860 0.932690 -0.481656
O46   O     O_3   0.213628 0.428125 0.263340 -0.573301
O47   O     O_3   0.714062 0.077438 0.254183 -0.575733
O48   O     O_3   0.713628 0.926489 0.260840 -0.573259
O49   O     O_3   0.213316 0.492854 0.127201 -0.566697
O50   O     O_3   0.713321 0.995840 0.127009 -0.566704
O51   O     O_3   0.279481 0.506986 0.367154 -0.576365
O52   O     O_3   0.779475 0.004011 0.367338 -0.576349
O53   O     O_R   0.932590 0.464140 0.932690 -0.481681
O54   O     O_R   0.432590 0.035860 0.932690 -0.481666
O55   O     O_R   0.432590 0.964140 0.932690 -0.481672
O56   O     O_R   0.463790 0.000000 0.401850 -0.482258

loop_
_geom_bond_atom_site_label_1
_geom_bond_atom_site_label_2
_ccdc_geom_bond_type
C101  C107  T    
C18   O46   S    
C63   C65   T    
Cu5   O28   S    
C6    C70   S    
C93   C94   T    
Cu3   Cu12  S    
C70   O36   A    
C79   C98   S    
C111  C112  T    
C81   O5    A    
C14   H38   S    
C18   H13   S    
Cu8   Cu9   S    
C112  C114  S    
C76   O27   A    
Cu2   O15   S    
C15   H2    S    
C25   H35   S    
C85   O16   A    
H36   N2    S    
C72   O41   A    
C74   O45   A    
C86   O15   A    
C22   H28   S    
C30   C35   S    
C82   O10   A    
C3    N4    S    
C80   O4    A    
C5    C53   S    
C77   C106  S    
Cu7   O30   S    
C78   O28   A    
C38   C42   T    
C14   H37   S    
C119  N2    S    
C12   H34   S    
C60   C62   T    
C57   C59   S    
C15   H3    S    
C22   H27   S    
Cu10  O54   S    
C25   H32   S    
C58   C60   S    
C7    C24   T    
Cu9   O53   S    
C19   H18   S    
C56   C78   S    
C48   C81   S    
C73   O43   A    
Cu11  O43   S    
C52   O25   A    
C81   O9    A    
Cu10  O42   S    
C20   H19   S    
C62   C64   S    
C10   C119  S    
Cu12  O6    S    
C99   C120  S    
Cu10  Cu11  S    
C1    O1    A    
Cu6   O19   S    
C106  O48   S    
Cu5   O24   S    
C86   O17   A    
C115  C117  T    
C96   C98   T    
Cu4   O17   S    
C68   O32   A    
Cu9   O41   S    
C41   C46   S    
C105  C120  S    
C102  C108  T    
C69   O35   A    
Cu8   O31   S    
C33   O12   A    
C43   C48   T    
C52   O22   A    
H40   N3    S    
C109  C113  T    
C103  O44   S    
C104  C119  S    
C16   N4    S    
C46   C50   T    
Cu2   O8    S    
C73   O42   A    
Cu6   O25   S    
C80   C100  S    
Cu9   O37   S    
C107  C109  S    
C83   O11   A    
C16   H8    S    
C74   O53   A    
C69   C89   S    
C11   C120  S    
Cu12  O56   S    
C28   C32   T    
C104  O46   S    
Cu4   O13   S    
C8    C103  S    
C8    O51   S    
C50   C83   S    
C23   H31   S    
C13   C66   S    
C3    C106  S    
C39   C43   S    
C40   C45   S    
C79   O56   A    
C59   C61   T    
C44   O20   A    
C20   H21   S    
C9    C105  S    
C27   C31   T    
C103  C118  S    
C64   C67   T    
C66   C104  S    
C36   C40   T    
C19   O47   S    
Cu1   O27   S    
H5    N4    S    
Cu3   O3    S    
C18   H15   S    
Cu9   O32   S    
Cu1   O1    S    
C15   H4    S    
C29   C55   S    
C25   H33   S    
C85   O14   A    
C105  O47   S    
C84   O8    A    
Cu11  O39   S    
C29   C34   T    
C28   C44   S    
C92   C95   T    
C27   C33   S    
C65   C74   S    
C12   H12   S    
C17   H10   S    
C80   O2    A    
C49   C82   S    
Cu3   O9    S    
C75   O54   A    
C35   C39   T    
C78   O30   A    
C10   C118  S    
C47   C51   T    
Cu12  O5    S    
C91   C93   S    
C8    C104  S    
Cu6   O18   S    
C120  N3    S    
C90   C92   S    
C88   O49   S    
C45   C49   T    
C21   H22   S    
C68   O31   A    
C61   C63   S    
C20   O48   S    
C83   O7    A    
C84   O13   A    
C32   C37   S    
C88   C119  S    
C94   C96   S    
C9    C11   S    
Cu5   O23   S    
C10   C110  S    
C17   O44   S    
Cu8   O40   S    
C54   C76   S    
Cu2   O7    S    
C72   O40   A    
C4    C52   S    
C26   C30   T    
C70   O37   A    
Cu11  O35   S    
C1    C26   S    
Cu6   O29   S    
C79   O3    A    
C16   H7    S    
C67   C75   S    
C12   H23   S    
C88   C118  S    
Cu12  O14   S    
C97   C100  T    
C21   O49   S    
C76   O29   A    
Cu11  O55   S    
Cu2   O2    S    
C4    C110  T    
C73   C102  S    
C23   H29   S    
C34   C38   S    
C53   O24   A    
C21   H25   S    
C66   C103  S    
C85   C116  S    
C16   H6    S    
C53   O26   A    
C14   H39   S    
C18   H14   S    
Cu8   O45   S    
Cu4   O11   S    
C114  C116  T    
Cu5   O34   S    
C95   C97   S    
C20   H20   S    
C22   O50   S    
C71   O38   A    
C22   H26   S    
C82   O6    A    
C25   O52   S    
C19   H16   S    
C118  N1    S    
C108  C111  S    
C15   N3    S    
C17   H9    S    
Cu7   O21   S    
C23   O51   S    
C23   H30   S    
Cu3   O10   S    
C77   C105  S    
C1    O18   A    
C9    C106  S    
Cu1   Cu6   S    
C14   N2    S    
Cu7   O20   S    
Cu8   O36   S    
Cu1   O12   S    
C7    C71   S    
C17   H11   S    
C55   O21   A    
Cu2   Cu4   S    
C71   O39   A    
C19   H17   S    
C21   H24   S    
C56   C58   T    
C66   C88   S    
Cu10  O38   S    
C9    O52   S    
C42   C47   S    
C37   C41   T    
C75   O55   A    
Cu7   O26   S    
Cu1   O22   S    
Cu4   O4    S    
C99   O50   S    
C3    C11   S    
C86   C117  S    
C2    C5    T    
C3    C99   S    
C24   C77   S    
C69   O33   A    
C33   O19   A    
C44   O23   A    
C8    C10   S    
C89   C91   T    
C72   C101  S    
C87   C90   T    
Cu5   Cu7   S    
C68   C87   S    
C31   C36   S    
C55   O34   A    
Cu10  O33   S    
C2    C11   S    
C77   C99   S    
C113  C115  S    
Cu3   O16   S    
H1    N1    S    
C51   C84   S    
C12   N1    S    
C6    C13   T    
C54   C57   T    
