data_mof_unit_33756.cif
_audit_creation_date              2012-12-10T17:25:21-0500
_audit_creation_method            fapswitch 2.2
_symmetry_space_group_name_H-M    P1
_symmetry_Int_Tables_number       1
_space_group_crystal_system       triclinic
_cell_length_a                    27.777686
_cell_length_b                    10.844239
_cell_length_c                    9.601607
_cell_angle_alpha                 89.748436
_cell_angle_beta                  89.372442
_cell_angle_gamma                 93.348612
_cell_volume                      2887.12352225

loop_
_atom_site_label
_atom_site_type_symbol
_atom_type_description
_atom_site_fract_x
_atom_site_fract_y
_atom_site_fract_z
_atom_type_partial_charge
C1    C     C_R   0.503502 0.263069 0.500906 0.802690
C2    C     C_R   0.280044 0.545578 0.620891 -0.105324
C3    C     C_R   0.253691 0.508370 0.503079 0.347828
C4    C     C_R   0.101571 0.507097 0.516459 -0.048747
C5    C     C_R   0.124594 0.397228 0.489752 -0.014833
C6    C     C_R   0.096667 0.288082 0.465232 -0.146275
C7    C     C_R   0.129615 0.617997 0.534547 -0.021015
C8    C     C_R   0.354717 0.504430 0.500966 -0.040993
C9    C     C_R   0.645571 0.502038 0.498690 -0.036982
C10   C     C_R   0.972072 0.390050 0.533414 -0.038938
C11   C     C_R   0.976415 0.617341 0.531388 0.066302
C12   C     C_R   0.407576 0.500951 0.500464 0.797123
C13   C     C_R   0.948870 0.502384 0.527121 0.040669
C14   C     C_R   0.943555 0.278925 0.558230 0.112359
C15   C     C_R   0.894218 0.273230 0.521341 0.106323
C16   C     C_R   0.870081 0.385940 0.512954 -0.089690
C17   C     C_R   0.897857 0.500014 0.518806 -0.077226
C18   C     C_R   0.874790 0.612565 0.512255 0.005881
C19   C     C_R   0.824612 0.610897 0.502090 0.526583
C20   C     C_R   0.819055 0.390590 0.506737 0.526317
C21   C     C_R   0.720891 0.505997 0.625059 -0.109540
C22   C     C_R   0.670734 0.505682 0.625065 -0.224416
C23   C     C_R   0.496874 0.737166 0.500996 0.787901
C24   C     C_R   0.671617 0.499504 0.372354 -0.219751
C25   C     C_R   0.721878 0.499634 0.372758 -0.117943
C26   C     C_R   0.746537 0.502674 0.499122 0.379165
C27   C     C_R   0.022882 0.392753 0.513637 0.043018
C28   C     C_R   0.050504 0.506108 0.524064 0.079987
C29   C     C_R   0.027492 0.618397 0.540233 0.040326
C30   C     C_R   0.046643 0.286535 0.474164 -0.240576
C31   C     C_R   0.106719 0.727459 0.558953 -0.144139
C32   C     C_R   0.951891 0.727512 0.524276 -0.210122
C33   C     C_R   0.902098 0.724895 0.515474 -0.165419
C34   C     C_R   0.592509 0.500792 0.499421 0.779708
C35   C     C_R   0.056636 0.727990 0.561440 -0.215131
C36   C     C_R   0.525340 0.118209 0.758919 -0.166544
C37   C     C_R   0.517086 0.057511 0.885887 -0.169901
C38   C     C_R   0.492711 0.942119 0.889090 -0.136018
C39   C     C_R   0.481176 0.882206 0.764705 -0.152102
C40   C     C_R   0.494508 0.936965 0.634231 0.096834
C41   C     C_R   0.509374 0.063250 0.632460 0.096425
C42   C     C_R   0.507174 0.129043 0.504554 -0.116225
C43   C     C_R   0.501920 0.064280 0.379263 -0.205316
C44   C     C_R   0.497630 0.936807 0.379646 -0.210950
C45   C     C_R   0.175172 0.399634 0.485954 0.529037
C46   C     C_R   0.494083 0.871505 0.505703 -0.112719
C47   C     C_R   0.563918 0.666220 0.141347 -0.155110
C48   C     C_R   0.595002 0.748339 0.067974 -0.218040
C49   C     C_R   0.595120 0.748401 0.924385 -0.191676
C50   C     C_R   0.564164 0.666338 0.853254 -0.136909
C51   C     C_R   0.531498 0.581782 0.923720 0.166124
C52   C     C_R   0.531347 0.581923 0.073264 0.194760
C53   C     C_R   0.470776 0.421248 0.077686 -0.079492
C54   C     C_R   0.469374 0.421823 0.930261 0.168303
C55   C     C_R   0.180112 0.616696 0.527998 0.532521
C56   C     C_R   0.278158 0.470884 0.383390 -0.098612
C57   C     C_R   0.328316 0.468567 0.382385 -0.219919
C58   C     C_R   0.330210 0.544955 0.619260 -0.224786
Cu1   Cu    Cu3+1 0.500000 0.499990 0.640660 0.908982
Cu2   Cu    Cu3+1 0.500000 0.500010 0.359340 0.926382
H1    H     H_    0.349825 0.577394 0.709873 0.152687
H2    H     H_    0.258252 0.443105 0.291261 0.146864
H3    H     H_    0.127451 0.813804 0.575456 0.188651
H4    H     H_    0.970238 0.817828 0.521419 0.130345
H5    H     H_    0.653224 0.497016 0.273441 0.162069
H6    H     H_    0.885064 0.812127 0.510276 0.172313
H7    H     H_    0.741677 0.497093 0.275142 0.129199
H8    H     H_    0.041824 0.815654 0.582909 0.137323
H9    H     H_    0.501343 0.112046 0.279996 0.160340
H10   H     H_    0.545384 0.206523 0.761611 0.170067
H11   H     H_    0.528336 0.101708 0.982032 0.135920
H12   H     H_    0.261607 0.575123 0.713806 0.147478
H13   H     H_    0.483717 0.897596 0.987908 0.137623
H14   H     H_    0.460605 0.794899 0.773310 0.164686
H15   H     H_    0.496573 0.889472 0.280478 0.164747
H16   H     H_    0.447569 0.356570 0.137337 0.141274
H17   H     H_    0.567161 0.672416 0.251169 0.202309
H18   H     H_    0.619358 0.812031 0.123235 0.159213
H19   H     H_    0.619481 0.812370 0.867338 0.159607
H20   H     H_    0.567414 0.673746 0.743267 0.202055
H21   H     H_    0.113322 0.203372 0.438378 0.185942
H22   H     H_    0.651739 0.508114 0.724036 0.161947
H23   H     H_    0.739918 0.508400 0.722934 0.130781
H24   H     H_    0.026708 0.201384 0.447892 0.146253
H25   H     H_    0.346372 0.437832 0.289317 0.148865
N1    N     N_R   0.201906 0.508304 0.505358 -0.466306
N2    N     N_R   0.798073 0.501362 0.500308 -0.463755
N3    N     N_R   0.500460 0.501210 0.147910 -0.211629
N4    N     N_R   0.500480 0.501290 0.852040 -0.217874
O1    O     O_R   0.500000 0.319640 0.618810 -0.611044
O2    O     O_2   0.790065 0.286712 0.511807 -0.556957
O3    O     O_2   0.207210 0.723139 0.542847 -0.538558
O4    O     O_2   0.802279 0.718034 0.495179 -0.556831
O5    O     O_R   0.500000 0.319660 0.381240 -0.578467
O6    O     O_R   0.430260 0.500010 0.618770 -0.592500
O7    O     O_R   0.430270 0.500030 0.381200 -0.576431
O8    O     O_R   0.500000 0.680340 0.618760 -0.610495
O9    O     O_R   0.500000 0.680360 0.381190 -0.595917
O10   O     O_R   0.569730 0.499970 0.618800 -0.602045
O11   O     O_R   0.569740 0.499990 0.381230 -0.596414
O12   O     O_2   0.197448 0.293850 0.464980 -0.541935
C59   C     C_3   0.432382 0.330258 0.867815 -0.367399
C60   C     C_3   0.380639 0.358614 0.910091 -0.409892
C61   C     C_3   0.343449 0.277262 0.831471 -0.784853
H26   H     H_    0.347665 0.292043 0.717363 0.259307
H27   H     H_    0.347795 0.178339 0.855897 0.255756
H28   H     H_    0.306559 0.300949 0.863131 0.248541
H29   H     H_    0.374689 0.342251 0.023401 0.209559
H30   H     H_    0.374766 0.457085 0.888469 0.228333
H31   H     H_    0.434127 0.326679 0.754708 0.268216
H32   H     H_    0.439624 0.235962 0.904992 0.176018
C62   C     C_3   0.870042 0.147681 0.483664 -0.339140
C63   C     C_3   0.857592 0.141770 0.328102 -0.353877
C64   C     C_3   0.831723 0.018311 0.291487 -0.765717
H33   H     H_    0.855190 0.941174 0.313152 0.249708
H34   H     H_    0.797694 0.004447 0.352883 0.282471
H35   H     H_    0.822861 0.017294 0.178996 0.234753
H36   H     H_    0.834334 0.217117 0.298326 0.248096
H37   H     H_    0.891415 0.153337 0.265161 0.204525
H38   H     H_    0.894131 0.071683 0.501969 0.177424
H39   H     H_    0.838314 0.124196 0.551611 0.244442
C65   C     C_3   0.963090 0.176544 0.648340 -0.423727
C66   C     C_3   0.932405 0.150920 0.779843 -0.818241
H40   H     H_    0.928635 0.237777 0.838896 0.257003
H41   H     H_    0.896057 0.110207 0.754392 0.248427
H42   H     H_    0.950211 0.084284 0.847500 0.241297
H43   H     H_    0.966314 0.090228 0.588183 0.181355
H44   H     H_    0.999621 0.203856 0.687106 0.226045

loop_
_geom_bond_atom_site_label_1
_geom_bond_atom_site_label_2
_ccdc_geom_bond_type
C10   C27   A    
C21   C26   A    
C1    O1    A    
C14   C65   S    
C36   C41   A    
Cu1   O10   S    
C41   C42   A    
C25   H7    S    
C7    C55   A    
C61   H27   S    
C64   H33   S    
Cu2   N3    S    
C66   H40   S    
C53   C54   A    
C40   C46   A    
C37   C38   A    
C22   H22   S    
C36   C37   A    
Cu2   O9    S    
C5    C6    A    
C9    C22   A    
C66   H41   S    
C15   C16   A    
C20   N2    A    
C56   C57   A    
C18   C19   A    
Cu1   N4    S    
C39   H14   S    
C48   H18   S    
C65   H43   S    
C62   C63   S    
C8    C58   A    
C63   H37   S    
C21   H23   S    
C36   H10   S    
C16   C17   A    
C34   O11   A    
C12   O6    A    
C60   H29   S    
C19   O4    S    
C8    C12   S    
C58   H1    S    
Cu1   Cu2   S    
C43   H9    S    
C23   C46   S    
C21   C22   A    
C3    N1    S    
C30   H24   S    
C59   H32   S    
Cu1   O6    S    
C4    C7    A    
C2    H12   S    
C61   H26   S    
C4    C28   A    
C44   C46   A    
C33   H6    S    
C17   C18   A    
C20   O2    S    
C7    C31   A    
C51   C52   A    
C31   H3    S    
C52   N3    A    
C24   C25   A    
C32   H4    S    
C54   N4    A    
C10   C14   A    
C39   C40   A    
C62   H38   S    
C26   N2    S    
C66   H42   S    
C25   C26   A    
C5    C45   A    
C49   H19   S    
Cu1   O1    S    
C44   H15   S    
C43   C44   A    
C55   O3    S    
C8    C57   A    
C3    C56   A    
C47   C48   A    
C16   C20   A    
C50   C51   A    
C45   O12   S    
C24   H5    S    
Cu2   O7    S    
C40   C41   A    
C6    C30   A    
C11   C32   A    
C37   H11   S    
C9    C34   S    
Cu1   O8    S    
C31   C35   A    
C59   H31   S    
C53   H16   S    
C42   C43   A    
C47   H17   S    
C60   C61   S    
C63   C64   S    
C28   C29   A    
C23   O8    A    
C15   C62   S    
C54   C59   S    
C4    C5    A    
Cu2   O11   S    
C10   C13   A    
C50   H20   S    
C1    O5    A    
C64   H34   S    
C2    C58   A    
C9    C24   A    
C47   C52   A    
C34   O10   A    
C29   C35   A    
C19   N2    A    
C13   C17   A    
C60   H30   S    
C32   C33   A    
C55   N1    A    
C2    C3    A    
C62   H39   S    
C51   N4    A    
C11   C13   A    
C38   C39   A    
C35   H8    S    
C48   C49   A    
C57   H25   S    
C45   N1    A    
C53   N3    A    
C56   H2    S    
C65   H44   S    
C59   C60   S    
C18   C33   A    
C64   H35   S    
C63   H36   S    
C1    C42   S    
C23   O9    A    
C11   C29   A    
C49   C50   A    
C27   C28   A    
C6    H21   S    
C14   C15   A    
C12   O7    A    
C65   C66   S    
C61   H28   S    
C27   C30   A    
C38   H13   S    
Cu2   O5    S    
