data_mof_unit_10066.cif
_audit_creation_date              2012-12-10T20:57:54-0500
_audit_creation_method            fapswitch 2.2
_symmetry_space_group_name_H-M    P1
_symmetry_Int_Tables_number       1
_space_group_crystal_system       triclinic
_cell_length_a                    18.150834
_cell_length_b                    18.259043
_cell_length_c                    18.501314
_cell_angle_alpha                 120.409223
_cell_angle_beta                  90.046434
_cell_angle_gamma                 119.454272
_cell_volume                      4342.60925282

loop_
_atom_site_label
_atom_site_type_symbol
_atom_type_description
_atom_site_fract_x
_atom_site_fract_y
_atom_site_fract_z
_atom_type_partial_charge
C1    C     C_R   0.359737 0.220159 0.361106 0.807656
C2    C     C_3   0.800950 0.941409 0.709691 -0.189932
C3    C     C_2   0.443990 0.133499 0.469465 0.889944
C4    C     C_1   0.234759 0.391485 0.080439 0.236678
C5    C     C_2   0.017808 0.807603 0.601467 0.961857
C6    C     C_2   0.814766 0.462466 0.539676 0.896843
C7    C     C_1   0.870395 0.777035 0.824362 0.218061
C8    C     C_2   0.986894 0.907949 0.773580 0.927716
C9    C     C_2   0.661279 0.508750 0.953358 0.882367
C10   C     C_1   0.236198 0.773217 0.592389 0.163870
C11   C     C_1   0.091908 0.443082 0.564160 0.153296
C12   C     C_1   0.084684 0.561427 0.508571 0.222157
C13   C     C_3   0.698928 0.898480 0.697540 -0.023969
C14   C     C_1   0.378538 0.455109 0.765169 0.219914
C15   C     C_2   0.414645 0.447524 0.005037 0.919784
C16   C     C_1   0.106575 0.244878 0.717038 0.148769
C17   C     C_R   0.640916 0.781235 0.639303 0.750955
C18   C     C_3   0.801283 0.103678 0.801625 0.109402
C19   C     C_3   0.745572 0.061397 0.850664 -0.390633
C20   C     C_3   0.860318 0.061270 0.773951 -0.380493
C21   C     C_3   0.637799 0.409392 0.199171 -0.160195
C22   C     C_3   0.698242 0.413767 0.140879 -0.423110
C23   C     C_3   0.751916 0.604869 0.314879 -0.180392
C24   C     C_3   0.765471 0.480222 0.325817 -0.383490
C25   C     C_3   0.292050 0.592308 0.360546 -0.396451
C26   C     C_3   0.696600 0.497349 0.300336 -0.041621
C27   C     C_3   0.798903 0.498028 0.199488 0.085580
C28   C     C_3   0.811920 0.604385 0.254947 -0.459334
C29   C     C_R   0.359841 0.501568 0.641458 0.798840
C30   C     C_3   0.824025 0.477134 0.264704 -0.160780
C31   C     C_R   0.378001 0.180352 0.589688 -0.159158
C32   C     C_R   0.368618 0.136698 0.499134 0.030267
C33   C     C_R   0.288258 0.098893 0.440441 0.053142
C34   C     C_R   0.220506 0.105124 0.473792 -0.147830
C35   C     C_R   0.231314 0.148231 0.563639 -0.108205
C36   C     C_3   0.299392 0.499761 0.303297 0.035709
C37   C     C_R   0.309755 0.185557 0.621389 -0.123409
C38   C     C_R   0.218187 0.944253 0.287692 -0.205166
C39   C     C_R   0.199507 0.892113 0.195889 -0.052910
C40   C     C_R   0.236989 0.948454 0.158937 -0.006743
C41   C     C_R   0.640334 0.498840 0.359212 0.773839
C42   C     C_R   0.288122 0.055471 0.214784 -0.216561
C43   C     C_R   0.305459 0.107671 0.306569 -0.022388
C44   C     C_R   0.271748 0.051137 0.343847 0.047814
C45   C     C_R   0.273893 0.856116 0.025768 -0.099299
C46   C     C_R   0.262096 0.807792 0.935003 -0.110119
C47   C     C_3   0.195319 0.498474 0.202161 0.032756
C48   C     C_R   0.203086 0.802862 0.881314 -0.116609
C49   C     C_R   0.156183 0.846845 0.918414 -0.107408
C50   C     C_R   0.167984 0.895518 0.009217 -0.113511
C51   C     C_R   0.226348 0.899614 0.063277 0.126813
C52   C     C_R   0.910613 0.639308 0.576363 -0.271560
C53   C     C_R   0.641929 0.500138 0.639871 0.811257
C54   C     C_R   0.856179 0.576084 0.601958 -0.009481
C55   C     C_R   0.844439 0.622734 0.685732 0.010235
C56   C     C_R   0.887048 0.731190 0.741206 -0.076050
C57   C     C_R   0.943059 0.794061 0.714821 -0.085858
C58   C     C_3   0.138137 0.401446 0.204263 -0.252532
C59   C     C_R   0.955256 0.746938 0.631558 -0.062819
C60   C     C_R   0.841944 0.558961 0.774796 -0.194468
C61   C     C_R   0.799293 0.498367 0.805841 -0.030245
C62   C     C_R   0.704766 0.437870 0.781305 0.040480
C63   C     C_R   0.655709 0.440900 0.727239 -0.136161
C64   C     C_R   0.698364 0.501323 0.696004 -0.020168
C65   C     C_R   0.358952 0.501117 0.359872 0.809124
C66   C     C_R   0.792829 0.560328 0.719157 0.054587
C67   C     C_R   0.623603 0.263515 0.748018 -0.129055
C68   C     C_R   0.573906 0.192357 0.767166 -0.127872
C69   C     C_3   0.242594 0.600792 0.300609 -0.195288
C70   C     C_R   0.553065 0.223737 0.845362 -0.114799
C71   C     C_R   0.581657 0.326439 0.904677 -0.170937
C72   C     C_R   0.632209 0.400058 0.887064 0.000139
C73   C     C_R   0.653468 0.367340 0.807119 0.054027
C74   C     C_R   0.315081 0.751205 0.678343 -0.177785
C75   C     C_R   0.319311 0.692614 0.702997 -0.119029
C76   C     C_R   0.248669 0.589554 0.662585 0.073341
C77   C     C_3   0.340750 0.512506 0.233457 -0.449514
C78   C     C_R   0.169876 0.545693 0.598559 -0.031213
C79   C     C_R   0.165609 0.604778 0.572722 -0.026469
C80   C     C_3   0.673886 0.943687 0.655868 -0.159778
C81   C     C_R   0.239048 0.708042 0.613043 -0.014639
C82   C     C_R   0.198117 0.537589 0.759616 -0.249847
C83   C     C_R   0.196677 0.498488 0.807705 -0.059118
C84   C     C_R   0.251592 0.463125 0.804187 -0.044391
C85   C     C_R   0.310992 0.473971 0.755844 -0.065138
C86   C     C_R   0.307134 0.506721 0.701971 -0.103174
C87   C     C_R   0.250399 0.540169 0.705426 -0.000430
C88   C     C_R   0.317866 0.455254 0.915607 -0.239795
C89   C     C_3   0.272197 0.493678 0.165054 -0.191144
C90   C     C_R   0.335048 0.396463 0.931277 0.007478
C91   C     C_3   0.736913 0.063903 0.715988 -0.454797
C92   C     C_R   0.276380 0.288085 0.875055 -0.159681
C93   C     C_R   0.199405 0.239629 0.807868 -0.215001
C94   C     C_R   0.183463 0.298014 0.791059 0.063179
C95   C     C_R   0.245240 0.406533 0.842706 0.099185
C96   C     C_R   0.857001 0.499697 0.142569 0.773578
C97   C     C_R   0.139263 0.499751 0.862546 0.807762
C98   C     C_R   0.857449 0.219353 0.861362 0.777384
C99   C     C_R   0.139817 0.779752 0.141111 0.788732
C100  C     C_R   0.855795 0.499636 0.862096 0.808753
C101  C     C_3   0.203549 0.394818 0.252390 -0.200819
C102  C     C_3   0.694191 0.942290 0.794376 -0.177585
C103  C     C_R   0.138973 0.499191 0.143077 0.750681
C104  C     C_1   0.183288 0.629604 0.343131 0.265222
C105  C     C_2   0.167105 0.354493 0.307546 0.900035
C106  C     C_1   0.065532 0.399635 0.241024 0.234117
C107  C     C_2   0.576359 0.906660 0.634096 0.954955
C108  C     C_1   0.603628 0.896839 0.800179 0.271443
C109  C     C_1   0.819963 0.906925 0.624919 0.285235
C110  C     C_2   0.578268 0.300909 0.176292 0.924595
C111  C     C_2   0.694594 0.639243 0.303031 0.905116
C112  C     C_1   0.815223 0.377920 0.216963 0.259163
H1    H     H_    0.362295 0.459400 0.199868 0.214142
H2    H     H_    0.727786 0.923546 0.826059 0.123774
H3    H     H_    0.790481 0.095986 0.915895 0.148861
H4    H     H_    0.590894 0.424528 0.181325 0.186520
H5    H     H_    0.687310 0.337220 0.094810 0.190954
H6    H     H_    0.679561 0.432361 0.098202 0.209626
H7    H     H_    0.307601 0.553711 0.152326 0.142266
H8    H     H_    0.796898 0.621858 0.209498 0.203375
H9    H     H_    0.810133 0.545199 0.395597 0.198245
H10   H     H_    0.731014 0.409734 0.324914 0.229624
H11   H     H_    0.895607 0.538970 0.307412 0.176529
H12   H     H_    0.686536 0.917009 0.591239 0.130200
H13   H     H_    0.797663 0.664034 0.385215 0.181929
H14   H     H_    0.883441 0.666667 0.297687 0.196653
H15   H     H_    0.317766 0.218609 0.691020 0.153278
H16   H     H_    0.438004 0.209787 0.636324 0.169868
H17   H     H_    0.159006 0.076421 0.429831 0.146098
H18   H     H_    0.178584 0.152368 0.588433 0.147931
H19   H     H_    0.190777 0.901755 0.316607 0.175947
H20   H     H_    0.315627 0.098035 0.185954 0.178548
H21   H     H_    0.319260 0.858857 0.066660 0.127162
H22   H     H_    0.298423 0.773810 0.906212 0.132566
H23   H     H_    0.776968 0.090907 0.678710 0.160576
H24   H     H_    0.193746 0.765001 0.811017 0.135139
H25   H     H_    0.110487 0.842962 0.876767 0.161353
H26   H     H_    0.130938 0.928795 0.037186 0.151552
H27   H     H_    0.211714 0.335832 0.198570 0.155164
H28   H     H_    0.921952 0.604962 0.513752 0.209825
H29   H     H_    0.914401 0.604573 0.792270 0.166476
H30   H     H_    0.583249 0.394834 0.709394 0.177875
H31   H     H_    0.639060 0.237707 0.686794 0.165160
H32   H     H_    0.551202 0.112643 0.720999 0.164088
H33   H     H_    0.514254 0.168220 0.859954 0.156149
H34   H     H_    0.698197 0.098870 0.733779 0.207210
H35   H     H_    0.563320 0.347818 0.964241 0.190477
H36   H     H_    0.101958 0.330137 0.135027 0.137716
H37   H     H_    0.369780 0.831802 0.713207 0.162560
H38   H     H_    0.375260 0.728752 0.757932 0.162304
H39   H     H_    0.156953 0.566073 0.763392 0.171441
H40   H     H_    0.365561 0.538478 0.954611 0.171817
H41   H     H_    0.257809 0.583175 0.408179 0.232794
H42   H     H_    0.288354 0.240675 0.884815 0.199934
H43   H     H_    0.153749 0.156039 0.766962 0.191601
H44   H     H_    0.360110 0.665909 0.401433 0.207090
H45   H     H_    0.698772 0.085801 0.865129 0.213849
H46   H     H_    0.293028 0.666356 0.298601 0.145435
H47   H     H_    0.131579 0.377193 0.415501 0.347329
H48   H     H_    0.480774 0.925575 0.675886 0.327101
H49   H     H_    0.452045 0.176588 0.132048 0.340153
H50   H     H_    0.653698 0.733622 0.362350 0.346886
H51   H     H_    0.573854 0.184018 0.504910 0.363419
H52   H     H_    0.135110 0.936427 0.633676 0.348887
H53   H     H_    0.789034 0.343220 0.417479 0.363318
H54   H     H_    0.055040 0.040154 0.897538 0.351059
H55   H     H_    0.670352 0.613461 0.074985 0.382198
H56   H     H_    0.820926 0.911632 0.739858 0.165841
H57   H     H_    0.485628 0.431521 0.073211 0.379985
H58   H     H_    0.402722 0.592152 0.267380 0.189266
H59   H     H_    0.904988 0.096256 0.743360 0.195286
H60   H     H_    0.905045 0.085680 0.834215 0.191468
N1    N     N_1   0.136762 0.652121 0.375889 -0.153017
N2    N     N_1   0.019900 0.526765 0.457476 -0.144257
N3    N     N_1   0.432454 0.440673 0.773045 -0.192145
N4    N     N_1   0.044906 0.202357 0.657791 -0.197097
N5    N     N_1   0.008077 0.397243 0.269055 -0.151999
N6    N     N_1   0.533174 0.862712 0.806726 -0.213985
N7    N     N_1   0.835398 0.880243 0.558940 -0.130595
N8    N     N_1   0.808004 0.300018 0.179315 -0.165194
N9    N     N_1   0.202650 0.309568 0.015921 -0.189189
N10   N     N_1   0.856912 0.813360 0.890615 -0.159278
N11   N     N_1   0.234245 0.825996 0.576410 -0.170845
N12   N     N_1   0.029663 0.361234 0.536853 -0.165132
O1    O     O_3   0.500000 0.500000 0.500000 -0.500965
O2    O     O_R   0.113800 0.731630 0.056520 -0.634963
O3    O     O_R   0.819390 0.439310 0.886160 -0.644801
O4    O     O_R   0.383400 0.268380 0.323710 -0.626116
O5    O     O_R   0.115110 0.560720 0.179280 -0.637245
O6    O     O_R   0.941380 0.560750 0.885620 -0.645816
O7    O     O_R   0.115110 0.439270 0.057830 -0.638464
O8    O     O_R   0.942690 0.268390 0.886930 -0.645941
O9    O     O_R   0.114340 0.731630 0.178520 -0.644077
O10   O     O_R   0.820160 0.439310 0.057830 -0.643408
O11   O     O_R   0.113800 0.560730 0.885620 -0.644627
O12   O     O_R   0.383400 0.560740 0.616060 -0.636783
O13   O     O_R   0.555060 0.731630 0.615290 -0.615495
O14   O     O_R   0.383950 0.439280 0.616600 -0.630795
O15   O     O_R   0.677590 0.560710 0.444390 -0.629121
O16   O     O_R   0.556370 0.439260 0.616600 -0.638696
O17   O     O_R   0.382640 0.439290 0.322940 -0.636931
O18   O     O_R   0.678360 0.560700 0.616060 -0.654930
O19   O     O_R   0.382640 0.560750 0.444390 -0.617713
O20   O     O_2   0.148536 0.269717 0.283497 -0.624975
O21   O     O_R   0.155638 0.413689 0.385757 -0.811268
O22   O     O_2   0.526074 0.840666 0.556971 -0.643420
O23   O     O_R   0.555060 0.439270 0.322940 -0.623603
O24   O     O_R   0.544721 0.951083 0.700642 -0.826959
O25   O     O_2   0.610780 0.258608 0.182413 -0.631583
O26   O     O_R   0.485029 0.248231 0.145726 -0.773344
O27   O     O_2   0.648872 0.599724 0.228961 -0.618442
O28   O     O_R   0.694619 0.717315 0.377956 -0.805767
O29   O     O_2   0.433554 0.080036 0.390581 -0.625381
O30   O     O_R   0.527789 0.191888 0.532686 -0.826442
O31   O     O_2   0.000165 0.771995 0.522389 -0.641635
O32   O     O_R   0.098394 0.903400 0.662644 -0.783583
O33   O     O_2   0.777703 0.405158 0.562850 -0.631801
O34   O     O_R   0.383950 0.268380 0.445700 -0.648064
O35   O     O_R   0.819133 0.420670 0.453526 -0.820202
O36   O     O_2   0.987264 0.953066 0.742178 -0.642166
O37   O     O_R   0.027752 0.963592 0.864889 -0.802533
O38   O     O_2   0.696355 0.572885 0.937000 -0.623357
O39   O     O_R   0.648100 0.538020 0.035513 -0.787555
O40   O     O_2   0.466766 0.541802 0.052975 -0.607273
O41   O     O_R   0.429885 0.387881 0.020532 -0.811195
O42   O     O_R   0.677590 0.731610 0.615290 -0.640902
O43   O     O_3   0.997750 0.500010 0.002220 -0.486826
O44   O     O_R   0.942690 0.560750 0.179280 -0.640285
O45   O     O_R   0.114340 0.439270 0.886160 -0.641467
O46   O     O_R   0.820160 0.268410 0.886930 -0.638271
Zn1   Zn    Zn3+2 0.456040 0.586770 0.543190 1.024701
Zn2   Zn    Zn3+2 0.456820 0.413240 0.543960 0.999555
Zn3   Zn    Zn3+2 0.631110 0.586750 0.543190 0.995693
Zn4   Zn    Zn3+2 0.456040 0.413240 0.369660 1.032468
Zn5   Zn    Zn3+2 0.041710 0.413240 0.959030 0.980492
Zn6   Zn    Zn3+2 0.866640 0.413270 0.959030 0.980151
Zn7   Zn    Zn3+2 0.040930 0.586780 0.958260 0.979387
Zn8   Zn    Zn3+2 0.041710 0.586770 0.132560 0.984118

loop_
_geom_bond_atom_site_label_1
_geom_bond_atom_site_label_2
_ccdc_geom_bond_type
C22   H5    S    
C71   H35   S    
C55   C56   A    
C2    C109  S    
O45   Zn5   S    
C93   C94   A    
C49   H25   S    
C88   H40   S    
C25   C69   S    
O1    Zn3   S    
C9    C72   S    
C41   O15   A    
C67   H31   S    
C21   C110  S    
C101  H27   S    
C85   C86   A    
H52   O32   S    
C3    O30   S    
O44   Zn8   S    
O43   Zn6   S    
C80   C107  S    
C77   C89   S    
C14   N3    T    
O42   Zn3   S    
C65   O17   A    
C15   O41   S    
C8    O36   D    
C18   C91   S    
C7    C56   S    
C52   C59   A    
C76   C78   A    
C18   C19   S    
C36   C77   S    
O15   Zn3   S    
C38   C39   A    
C60   H29   S    
C19   C102  S    
C58   H36   S    
C57   C59   A    
H48   O24   S    
C45   C51   A    
C75   H38   S    
O7    Zn5   S    
C82   C87   A    
O43   Zn7   S    
C12   C79   S    
C56   C57   A    
C34   C35   A    
C23   C26   S    
C15   O40   D    
C49   C50   A    
C2    C13   S    
C9    O39   S    
C111  O28   S    
C47   C69   S    
C107  O22   D    
C52   H28   S    
C98   O46   A    
C39   C99   S    
C9    O38   D    
C1    C43   S    
C97   O45   A    
C89   H7    S    
C34   H17   S    
C28   H14   S    
C77   H58   S    
C33   C44   S    
O18   Zn3   S    
C62   C73   S    
C102  C108  S    
C1    O34   A    
C67   C73   A    
C4    N9    T    
O16   Zn2   S    
C106  N5    T    
C18   C20   S    
O3    Zn6   S    
C48   H24   S    
C23   H13   S    
C16   N4    T    
C40   C42   A    
O1    Zn4   S    
C92   H42   S    
C88   C95   A    
C60   C66   A    
C21   C22   S    
C27   C30   S    
C10   N11   T    
C47   C89   S    
C27   C96   S    
C110  O26   S    
O6    Zn7   S    
C31   H16   S    
C6    C54   S    
C21   H4    S    
C77   H1    S    
O5    Zn8   S    
H54   O37   S    
C21   C26   S    
C52   C54   A    
H47   O21   S    
C24   C30   S    
O13   Zn1   S    
C101  C105  S    
O1    Zn1   S    
C46   C48   A    
C47   C103  S    
C74   C75   A    
C5    C59   S    
C63   C64   A    
C25   H41   S    
C67   C68   A    
C19   H45   S    
C93   H43   S    
C100  O3    A    
C84   C85   A    
C98   O8    A    
C28   H8    S    
C39   C40   A    
C79   C81   A    
C78   C79   A    
C105  O20   D    
C50   C51   A    
C45   C46   A    
C5    O32   S    
C2    C20   S    
C53   C64   S    
C97   O11   A    
C31   C37   A    
C30   C112  S    
C36   C101  S    
C58   C106  S    
C84   C95   S    
C64   C66   A    
C41   O23   A    
C75   C76   A    
C38   C44   A    
C62   C63   A    
C102  H2    S    
C11   C78   S    
C8    C57   S    
C46   H22   S    
O2    Zn7   S    
C17   O42   A    
C109  N7    T    
C2    H56   S    
C90   C92   A    
C83   C84   A    
C65   O19   A    
O12   Zn1   S    
C19   H3    S    
H55   O39   S    
C24   H10   S    
C69   H46   S    
C107  O24   S    
C108  N6    T    
C3    C32   S    
C74   H37   S    
C58   C101  S    
C23   C28   S    
O46   Zn6   S    
C35   H18   S    
O34   Zn2   S    
C29   C86   S    
C70   C71   A    
C70   H33   S    
C103  O5    A    
C48   C49   A    
C20   H60   S    
C88   C90   A    
C29   O14   A    
C22   C27   S    
C43   C44   A    
C25   H44   S    
H57   O41   S    
C110  O25   D    
C103  O7    A    
C42   C43   A    
C74   C81   A    
C40   C51   S    
C96   O44   A    
C55   C66   S    
O4    Zn4   S    
O8    Zn5   S    
C12   N2    T    
C4    C89   S    
C80   H12   S    
C1    O4    A    
C22   H6    S    
O1    Zn2   S    
C54   C55   A    
C7    N10   T    
C35   C37   A    
C24   H9    S    
C86   C87   A    
C53   O16   A    
C16   C94   S    
O11   Zn7   S    
C31   C32   A    
C100  O6    A    
C11   N12   T    
C82   H39   S    
C14   C85   S    
O10   Zn6   S    
C72   C73   A    
C17   O13   A    
C76   C87   S    
C50   H26   S    
C105  O21   S    
C104  N1    T    
C13   C17   S    
C3    O29   D    
C29   O12   A    
O43   Zn5   S    
H49   O26   S    
C99   O9    A    
C10   C81   S    
C45   H21   S    
C53   O18   A    
C112  N8    T    
C38   H19   S    
C36   C65   S    
C80   C91   S    
C61   C62   A    
C23   C111  S    
C71   C72   A    
C32   C33   A    
C47   C58   S    
O19   Zn1   S    
O43   Zn8   S    
C24   C26   S    
C15   C90   S    
O17   Zn4   S    
H50   O28   S    
C96   O10   A    
C92   C93   A    
H51   O30   S    
C63   H30   S    
C33   C34   A    
C68   H32   S    
O14   Zn2   S    
C99   O2    A    
C94   C95   A    
C111  O27   D    
O9    Zn8   S    
C13   C80   S    
H53   O35   S    
C25   C36   S    
C6    O35   S    
C61   C100  S    
C20   H59   S    
C91   H23   S    
C30   H11   S    
C26   C41   S    
C68   C70   A    
C82   C83   A    
C83   C97   S    
C27   C28   S    
C6    O33   D    
C60   C61   A    
C42   H20   S    
C18   C98   S    
C37   H15   S    
C13   C102  S    
C91   H34   S    
C8    O37   S    
O23   Zn4   S    
C69   C104  S    
C5    O31   D    
