data_mof_unit_54443.cif
_audit_creation_date              2012-12-10T17:23:12-0500
_audit_creation_method            fapswitch 2.2
_symmetry_space_group_name_H-M    P1
_symmetry_Int_Tables_number       1
_space_group_crystal_system       triclinic
_cell_length_a                    15.886085
_cell_length_b                    10.765532
_cell_length_c                    9.619573
_cell_angle_alpha                 90.103172
_cell_angle_beta                  90.127378
_cell_angle_gamma                 92.549637
_cell_volume                      1643.5244724

loop_
_atom_site_label
_atom_site_type_symbol
_atom_type_description
_atom_site_fract_x
_atom_site_fract_y
_atom_site_fract_z
_atom_type_partial_charge
C1    C     C_R   0.498806 0.262863 0.499861 0.807145
C2    C     C_3   0.083814 0.500427 0.499424 0.010606
C3    C     C_3   0.975713 0.590718 0.584590 0.267255
C4    C     C_3   0.916382 0.501188 0.501848 0.002412
C5    C     C_3   0.031183 0.610285 0.455715 0.278799
C6    C     C_3   0.972484 0.520616 0.373133 0.351472
C7    C     C_1   0.175258 0.500189 0.499630 0.126845
C8    C     C_1   0.824897 0.501790 0.501279 0.115539
C9    C     C_R   0.346853 0.118318 0.574102 -0.316576
C10   C     C_R   0.273121 0.048306 0.609405 0.355058
C11   C     C_R   0.274304 0.917360 0.609382 0.468940
C12   C     C_R   0.340103 0.499291 0.499854 0.786239
C13   C     C_R   0.348443 0.859591 0.574620 -0.214405
C14   C     C_R   0.422762 0.929134 0.538895 -0.033147
C15   C     C_R   0.421712 0.059890 0.538594 0.046188
C16   C     C_R   0.495340 0.128984 0.499510 -0.136553
C17   C     C_R   0.568008 0.070651 0.459945 -0.168716
C18   C     C_R   0.570992 0.942503 0.462680 0.407917
C19   C     C_R   0.497869 0.871135 0.501264 -0.145596
C20   C     C_R   0.611703 0.665408 0.144151 -0.162489
C21   C     C_R   0.666249 0.746684 0.072835 -0.274629
C22   C     C_R   0.666618 0.747337 0.928410 0.412621
C23   C     C_R   0.499704 0.737119 0.500205 0.755523
C24   C     C_R   0.611720 0.665676 0.856901 -0.132301
C25   C     C_R   0.554858 0.581479 0.925629 0.124155
C26   C     C_R   0.554843 0.581382 0.074929 0.202152
C27   C     C_R   0.447809 0.422489 0.073466 -0.032342
C28   C     C_R   0.447830 0.422514 0.925711 -0.019024
C29   C     C_R   0.659917 0.500668 0.500183 0.786169
C30   C     C_3   0.968316 0.388945 0.546521 -0.292785
C31   C     C_3   0.025095 0.408934 0.414916 -0.304337
C32   C     C_1   0.250632 0.499744 0.499675 -0.150269
C33   C     C_1   0.749467 0.501500 0.500681 -0.133665
C34   C     C_3   0.027745 0.480782 0.628102 0.363217
Cu1   Cu    Cu3+1 0.499990 0.499990 0.640660 0.956846
Cu2   Cu    Cu3+1 0.500010 0.500010 0.359340 0.957789
H1    H     H_    0.346618 0.759093 0.575010 0.175016
H2    H     H_    0.404990 0.358854 0.128153 0.141120
H3    H     H_    0.617116 0.672572 0.253613 0.218664
H4    H     H_    0.942092 0.298472 0.585995 0.195606
H5    H     H_    0.623978 0.125699 0.430380 0.165250
H6    H     H_    0.344830 0.218664 0.573236 0.136940
N1    N     N_R   0.500800 0.501210 0.147910 -0.191591
N2    N     N_R   0.500830 0.501290 0.852040 -0.189615
O1    O     O_R   0.499990 0.319640 0.618810 -0.571742
O2    O     O_R   0.500000 0.319660 0.381240 -0.575036
O3    O     O_R   0.379070 0.499980 0.618770 -0.571206
O4    O     O_R   0.379080 0.500000 0.381190 -0.566996
O5    O     O_R   0.500000 0.680340 0.618760 -0.594432
O6    O     O_R   0.500010 0.680360 0.381190 -0.585970
O7    O     O_R   0.620920 0.500000 0.618810 -0.587542
O8    O     O_R   0.620930 0.500020 0.381230 -0.589748
H7    H     H_    0.045889 0.335317 0.343444 0.192924
O9    O     O_3   0.204496 0.842003 0.641996 -0.694015
H8    H     H_    0.156175 0.893884 0.662797 0.377271
O10   O     O_3   0.646826 0.891986 0.428676 -0.721687
H9    H     H_    0.646743 0.803969 0.458056 0.307816
H10   H     H_    0.708493 0.809262 0.131008 0.186629
O11   O     O_3   0.719973 0.826499 0.853441 -0.692184
H11   H     H_    0.754782 0.878165 0.919103 0.340999
H12   H     H_    0.616692 0.672508 0.747292 0.214331
H13   H     H_    0.405033 0.358878 0.870379 0.140850
O12   O     O_3   0.941873 0.542819 0.239536 -0.691647
H14   H     H_    0.992420 0.549907 0.179362 0.345985
O13   O     O_3   0.064708 0.724572 0.407865 -0.676966
H15   H     H_    0.015390 0.775556 0.390085 0.353029
O14   O     O_3   0.949302 0.684350 0.673151 -0.679512
H16   H     H_    0.001807 0.725821 0.709557 0.358353
O15   O     O_3   0.058488 0.461075 0.762151 -0.689849
H17   H     H_    0.007861 0.451488 0.821876 0.343839
O16   O     O_3   0.199770 0.105610 0.643193 -0.727721
H18   H     H_    0.209635 0.197075 0.637279 0.336786

loop_
_geom_bond_atom_site_label_1
_geom_bond_atom_site_label_2
_ccdc_geom_bond_type
C24   H12   S    
C2    C7    S    
C4    C8    S    
Cu1   O3    S    
C9    H6    S    
C5    C6    S    
C1    O2    A    
C23   O5    A    
C27   H2    S    
C15   C16   A    
C29   C33   S    
O10   H9    S    
C18   C19   A    
Cu1   Cu2   S    
C16   C17   A    
Cu1   O5    S    
Cu2   O2    S    
C9    C10   A    
C13   H1    S    
Cu2   O8    S    
C18   O10   S    
C10   O16   S    
C2    C34   S    
C6    C31   S    
O11   H11   S    
C21   C22   A    
C12   C32   S    
C12   O3    A    
C25   N2    A    
C26   N1    A    
C30   C34   S    
O14   H16   S    
C24   C25   A    
C5    O13   S    
C22   O11   S    
C20   H3    S    
C23   O6    A    
C3    C34   S    
C25   C26   A    
C28   N2    A    
C2    C31   S    
C6    O12   S    
C19   C23   S    
C17   C18   A    
C30   H4    S    
C1    C16   S    
C31   H7    S    
Cu1   N2    S    
C34   O15   S    
C11   O9    S    
C4    C6    S    
Cu1   O7    S    
C22   C24   A    
C2    C5    S    
C3    C4    S    
Cu1   O1    S    
Cu2   O6    S    
C29   O7    A    
O9    H8    S    
C7    C32   T    
C14   C19   A    
C3    O14   S    
C3    C5    S    
C9    C15   A    
C21   H10   S    
C11   C13   A    
C1    O1    A    
C30   C31   S    
C20   C26   A    
C12   O4    A    
Cu2   O4    S    
C8    C33   T    
O15   H17   S    
C17   H5    S    
C10   C11   A    
O12   H14   S    
C27   N1    A    
O16   H18   S    
C20   C21   A    
O13   H15   S    
C27   C28   A    
C14   C15   A    
Cu2   N1    S    
C13   C14   A    
C4    C30   S    
C29   O8    A    
C28   H13   S    
