data_mof_unit_53320.cif
_audit_creation_date              2012-10-26T20:12:12-0400
_audit_creation_method            fapswitch 2.2
_symmetry_space_group_name_H-M    P1
_symmetry_Int_Tables_number       1
_space_group_crystal_system       triclinic
_cell_length_a                    13.009498
_cell_length_b                    15.122781
_cell_length_c                    13.885494
_cell_angle_alpha                 90.402466
_cell_angle_beta                  96.271363
_cell_angle_gamma                 90.438326
_cell_volume                      2715.31665576

loop_
_atom_site_label
_atom_site_type_symbol
_atom_type_description
_atom_site_fract_x
_atom_site_fract_y
_atom_site_fract_z
_atom_type_partial_charge
C1    C     C_R   0.499844 0.329953 0.499720 0.548702
C2    C     C_R   0.500621 0.951249 0.500356 0.052575
C3    C     C_R   0.586729 0.534179 0.117862 0.209950
C4    C     C_R   0.462897 0.424205 0.886763 0.213540
C5    C     C_R   0.580488 0.538010 0.218612 0.014955
C6    C     C_R   0.458280 0.429739 0.784901 0.015559
C7    C     C_R   0.422955 0.457491 0.200583 0.398570
C8    C     C_R   0.546754 0.567187 0.796968 0.406307
C9    C     C_R   0.421170 0.460101 0.098712 -0.141623
C10   C     C_R   0.542385 0.568607 0.898261 -0.143439
C11   C     C_R   0.504007 0.496829 0.055099 -0.007638
C12   C     C_R   0.499935 0.669984 0.500248 0.551164
C13   C     C_R   0.502801 0.496248 0.945679 -0.008927
C14   C     C_R   0.300467 0.499566 0.481893 0.546904
C15   C     C_R   0.699543 0.499620 0.518098 0.544441
C16   C     C_R   0.812334 0.499347 0.528648 -0.063696
C17   C     C_R   0.187720 0.497685 0.471442 -0.071086
C18   C     C_R   0.023940 0.484791 0.370553 0.267236
C19   C     C_R   0.976538 0.508349 0.630565 0.273559
C20   C     C_R   0.131750 0.489295 0.379849 -0.114219
C21   C     C_R   0.868210 0.504870 0.620548 -0.125633
C22   C     C_R   0.135869 0.503107 0.554332 -0.131022
C23   C     C_R   0.499821 0.233545 0.499450 -0.084590
C24   C     C_R   0.864236 0.493248 0.445889 -0.138292
C25   C     C_R   0.028248 0.501351 0.546793 0.014231
C26   C     C_R   0.971772 0.493301 0.453869 0.009262
C27   C     C_R   0.463209 0.095601 0.577009 0.246043
C28   C     C_R   0.448896 0.903687 0.421209 0.247179
C29   C     C_R   0.465552 0.187652 0.577184 -0.142822
C30   C     C_R   0.451612 0.811637 0.420783 -0.136941
C31   C     C_3   0.342637 0.325119 0.221266 -0.124868
C32   C     C_3   0.697887 0.645187 0.791146 -0.134842
C33   C     C_3   0.974199 0.387099 0.249517 -0.149669
C34   C     C_R   0.499730 0.766279 0.500553 -0.084647
C35   C     C_3   0.002712 0.582956 0.776779 -0.132031
C36   C     C_3   0.322255 0.039240 0.639371 -0.010854
C37   C     C_3   0.283716 0.004932 0.731747 -0.354899
C38   C     C_3   0.298686 0.965537 0.355798 -0.007363
C39   C     C_3   0.244124 0.005615 0.264112 -0.361037
C40   C     C_3   0.679371 0.035329 0.364853 -0.010939
C41   C     C_3   0.720299 0.000810 0.273392 -0.358806
C42   C     C_3   0.705069 0.963319 0.646489 -0.010389
C43   C     C_3   0.761560 0.000578 0.739791 -0.360114
C44   C     C_3   0.746027 0.501059 0.077295 -0.015001
C45   C     C_R   0.534778 0.187058 0.422114 -0.148111
C46   C     C_3   0.844490 0.539714 0.044282 -0.347260
C47   C     C_3   0.507974 0.287471 0.940840 -0.018698
C48   C     C_3   0.469798 0.204425 0.987328 -0.358368
C49   C     C_R   0.548274 0.813140 0.580137 -0.134537
C50   C     C_R   0.538485 0.095052 0.423149 0.245392
C51   C     C_R   0.551863 0.905181 0.579522 0.244330
C52   C     C_R   0.501166 0.048532 0.500315 0.054072
Cu1   Cu    Cu3+1 0.500000 0.499990 0.596430 0.990585
Cu2   Cu    Cu3+1 0.500000 0.500010 0.403570 0.983355
H1    H     H_    0.820618 0.487888 0.374965 0.174362
H2    H     H_    0.586088 0.778539 0.641957 0.184970
H3    H     H_    0.642295 0.569787 0.265011 0.150432
H4    H     H_    0.423434 0.375879 0.740941 0.142373
H5    H     H_    0.293251 0.291377 0.270238 0.129110
H6    H     H_    0.421210 0.295763 0.234213 0.120476
H7    H     H_    0.308274 0.311740 0.145733 0.109119
H8    H     H_    0.739987 0.681713 0.738368 0.122029
H9    H     H_    0.736736 0.580259 0.803660 0.095063
H10   H     H_    0.704323 0.684735 0.859260 0.120829
H11   H     H_    0.942321 0.341725 0.301923 0.110420
H12   H     H_    0.179705 0.509624 0.625019 0.192565
H13   H     H_    0.054532 0.368028 0.238448 0.125917
H14   H     H_    0.926169 0.378738 0.179008 0.122171
H15   H     H_    0.933474 0.564983 0.812801 0.101126
H16   H     H_    0.988548 0.644088 0.733071 0.102278
H17   H     H_    0.066022 0.598220 0.834808 0.148188
H18   H     H_    0.303163 0.988850 0.581380 0.111867
H19   H     H_    0.280940 0.101949 0.619375 0.112679
H20   H     H_    0.301101 0.053987 0.791336 0.155300
H21   H     H_    0.198819 0.993638 0.719836 0.084293
H22   H     H_    0.322128 0.941536 0.752866 0.174479
H23   H     H_    0.354249 0.433867 0.054348 0.168523
H24   H     H_    0.296623 0.014787 0.415325 0.107701
H25   H     H_    0.255688 0.904559 0.372829 0.115539
H26   H     H_    0.243874 0.958060 0.202765 0.160734
H27   H     H_    0.163000 0.021426 0.275152 0.080561
H28   H     H_    0.284450 0.067400 0.246171 0.159752
H29   H     H_    0.693279 0.984011 0.421583 0.114202
H30   H     H_    0.723272 0.096826 0.388364 0.108453
H31   H     H_    0.708202 0.050712 0.215018 0.150452
H32   H     H_    0.804308 0.987318 0.288171 0.084251
H33   H     H_    0.679293 0.938581 0.248897 0.177252
H34   H     H_    0.569929 0.626730 0.939229 0.167795
H35   H     H_    0.712077 0.012297 0.588200 0.111474
H36   H     H_    0.743358 0.900447 0.628671 0.107075
H37   H     H_    0.756830 0.952969 0.799729 0.156016
H38   H     H_    0.844157 0.012513 0.730252 0.083839
H39   H     H_    0.726199 0.064089 0.758875 0.167077
H40   H     H_    0.715656 0.449203 0.024037 0.116641
H41   H     H_    0.766007 0.470301 0.149579 0.145873
H42   H     H_    0.901421 0.486376 0.037265 0.108444
H43   H     H_    0.827107 0.572037 0.972932 0.126770
H44   H     H_    0.878778 0.589375 0.097990 0.187409
H45   H     H_    0.827703 0.505858 0.684457 0.127177
H46   H     H_    0.574135 0.315335 0.989799 0.118696
H47   H     H_    0.535084 0.268397 0.870208 0.132751
H48   H     H_    0.404131 0.174538 0.939959 0.164002
H49   H     H_    0.533279 0.155597 0.997895 0.108570
H50   H     H_    0.443988 0.220933 0.058875 0.143123
H51   H     H_    0.171248 0.485416 0.315258 0.181409
H52   H     H_    0.438599 0.223011 0.637639 0.140588
H53   H     H_    0.413959 0.775683 0.358756 0.152410
H54   H     H_    0.561650 0.221990 0.361632 0.138235
N1    N     N_R   0.500000 0.500020 0.258690 -0.246000
N2    N     N_R   0.500000 0.499980 0.741310 -0.244425
O1    O     O_R   0.500010 0.371450 0.581430 -0.524448
O2    O     O_3   0.593399 0.635882 0.752402 -0.534917
O3    O     O_3   0.969568 0.476160 0.279568 -0.585221
O4    O     O_3   0.033416 0.511121 0.721329 -0.571511
O5    O     O_3   0.430206 0.052390 0.655641 -0.509007
O6    O     O_3   0.401612 0.946321 0.340619 -0.508005
O7    O     O_3   0.572534 0.051343 0.344956 -0.511847
O8    O     O_3   0.600215 0.949442 0.659637 -0.505506
O9    O     O_3   0.673269 0.569189 0.082355 -0.581123
O10   O     O_3   0.426352 0.348610 0.927178 -0.579765
O11   O     O_R   0.499990 0.628550 0.418570 -0.509656
O12   O     O_R   0.500010 0.371460 0.418560 -0.484638
O13   O     O_R   0.499990 0.628540 0.581440 -0.435942
O14   O     O_R   0.349000 0.499980 0.568210 -0.514812
O15   O     O_R   0.651000 0.500020 0.431790 -0.530041
O16   O     O_R   0.349000 0.499990 0.405340 -0.444736
O17   O     O_R   0.651000 0.500010 0.594660 -0.484126
O18   O     O_3   0.343556 0.416592 0.242233 -0.542668

loop_
_geom_bond_atom_site_label_1
_geom_bond_atom_site_label_2
_ccdc_geom_bond_type
Cu1   N2    S    
C37   H20   S    
C16   C21   A    
C47   H47   S    
C30   H53   S    
C27   C29   A    
C50   O7    S    
C40   H30   S    
C18   C26   A    
C51   O8    S    
C33   H11   S    
Cu1   Cu2   S    
C24   H1    S    
C41   H32   S    
Cu2   O16   S    
C10   H34   S    
C23   C45   A    
C23   C29   A    
C36   C37   S    
C19   C21   A    
C24   C26   A    
C8    O2    S    
C38   C39   S    
C21   H45   S    
C38   H25   S    
C15   C16   S    
C48   H50   S    
C17   C20   A    
C35   O4    S    
C31   H5    S    
C4    C13   A    
C31   H7    S    
C1    O12   A    
C22   H12   S    
C28   O6    S    
C12   O11   A    
C35   H16   S    
C49   C51   A    
C22   C25   A    
C50   C52   A    
C7    O18   S    
Cu1   O17   S    
C45   H54   S    
Cu1   O1    S    
C40   O7    S    
C37   H21   S    
C35   H17   S    
C16   C24   A    
C15   O17   A    
C6    N2    A    
C40   H29   S    
C31   O18   S    
C18   O3    S    
C44   C46   S    
C41   H33   S    
Cu2   O15   S    
C14   O14   A    
C30   C34   A    
C3    O9    S    
C3    C11   A    
C32   H10   S    
C4    C6    A    
Cu1   O13   S    
C42   O8    S    
C38   H24   S    
C19   O4    S    
C25   C26   A    
C48   H49   S    
C10   C13   A    
C43   H37   S    
C47   H46   S    
C7    N1    A    
Cu2   N1    S    
C42   H36   S    
C31   H6    S    
C8    N2    A    
C38   O6    S    
C47   C48   S    
C48   H48   S    
C9    H23   S    
C9    C11   A    
C39   H27   S    
C2    C52   S    
C40   C41   S    
C46   H43   S    
C1    C23   S    
C29   H52   S    
C42   C43   S    
C12   C34   S    
C27   C52   A    
C33   H13   S    
C20   H51   S    
C7    C9    A    
C47   O10   S    
C34   C49   A    
C32   O2    S    
Cu2   O11   S    
C17   C22   A    
C39   H28   S    
C3    C5    A    
Cu1   O14   S    
C14   O16   A    
C32   H9    S    
C49   H2    S    
C41   H31   S    
C33   O3    S    
C43   H38   S    
C44   O9    S    
C5    H3    S    
C42   H35   S    
C39   H26   S    
C28   C30   A    
C32   H8    S    
C44   H41   S    
C1    O1    A    
C11   C13   S    
C12   O13   A    
C5    N1    A    
C45   C50   A    
C43   H39   S    
C37   H22   S    
C18   C20   A    
C6    H4    S    
C46   H44   S    
C19   C25   A    
C44   H40   S    
C2    C51   A    
Cu2   O12   S    
C46   H42   S    
C35   H15   S    
C8    C10   A    
C15   O15   A    
C4    O10   S    
C2    C28   A    
C36   O5    S    
C36   H19   S    
C36   H18   S    
C33   H14   S    
C27   O5    S    
C14   C17   S    
