data_mof_unit_49152.cif
_audit_creation_date              2012-12-11T14:54:41-0500
_audit_creation_method            fapswitch 2.2
_symmetry_space_group_name_H-M    P1
_symmetry_Int_Tables_number       1
_space_group_crystal_system       triclinic
_cell_length_a                    18.964447
_cell_length_b                    10.882155
_cell_length_c                    18.847075
_cell_angle_alpha                 90.143457
_cell_angle_beta                  90.316099
_cell_angle_gamma                 89.849524
_cell_volume                      3889.46257336

loop_
_atom_site_label
_atom_site_type_symbol
_atom_type_description
_atom_site_fract_x
_atom_site_fract_y
_atom_site_fract_z
_atom_type_partial_charge
C1    C     C_R   0.731053 0.377607 0.646164 0.530139
C2    C     C_R   0.298814 0.859134 0.460432 -0.128835
C3    C     C_R   0.941446 0.553568 0.479519 -0.120494
C4    C     C_2   0.627224 0.822691 0.072867 0.223207
C5    C     C_2   0.372879 0.821389 0.926696 0.220985
C6    C     C_2   0.127224 0.322691 0.072867 0.223207
C7    C     C_2   0.872879 0.321389 0.926696 0.220983
C8    C     C_2   0.581606 0.312789 0.405517 0.248329
C9    C     C_2   0.523364 0.486977 0.565664 0.250120
C10   C     C_2   0.081669 0.812585 0.405482 0.248208
C11   C     C_2   0.023548 0.986895 0.565650 0.249676
C12   C     C_2   0.625254 0.871154 0.420001 0.243249
C13   C     C_R   0.187837 0.394285 0.535816 -0.103304
C14   C     C_2   0.358733 0.771211 0.565600 0.251554
C15   C     C_2   0.125254 0.371069 0.420012 0.243213
C16   C     C_2   0.858707 0.271142 0.565586 0.251664
C17   C     C_2   0.506809 0.396644 0.079916 0.297660
C18   C     C_2   0.494715 0.397640 0.921489 0.295717
C19   C     C_2   0.006809 0.896644 0.079916 0.297659
C20   C     C_2   0.994715 0.897640 0.921489 0.295714
C21   C     C_R   0.798797 0.359106 0.460427 -0.128860
C22   C     C_R   0.691247 0.887446 0.461805 -0.025286
C23   C     C_R   0.301981 0.848870 0.534297 -0.011703
C24   C     C_R   0.191246 0.387416 0.461807 -0.025291
C25   C     C_R   0.801967 0.348835 0.534292 -0.011760
C26   C     C_R   0.757421 0.904567 0.429274 -0.018144
C27   C     C_R   0.253263 0.918067 0.575861 -0.029789
C28   C     C_R   0.257410 0.404593 0.429269 -0.018123
C29   C     C_R   0.270748 0.375611 0.355079 0.511038
C30   C     C_R   0.753269 0.418061 0.575861 -0.029855
C31   C     C_R   0.817503 0.928678 0.471136 -0.102482
C32   C     C_R   0.211864 0.008591 0.543727 -0.149703
C33   C     C_R   0.317485 0.428767 0.471125 -0.102543
C34   C     C_R   0.711893 0.508623 0.543735 -0.149617
C35   C     C_R   0.813528 0.932937 0.543651 -0.107444
C36   C     C_R   0.211044 0.020150 0.471150 -0.113003
C37   C     C_R   0.313517 0.433011 0.543639 -0.107484
C38   C     C_R   0.711072 0.520193 0.471158 -0.112949
C39   C     C_R   0.748540 0.920791 0.576281 -0.011671
C40   C     C_R   0.231052 0.877609 0.646165 0.530152
C41   C     C_R   0.253237 0.943585 0.428880 -0.004436
C42   C     C_R   0.248540 0.420804 0.576278 -0.011637
C43   C     C_R   0.753239 0.443594 0.428881 -0.004478
C44   C     C_R   0.501136 0.057128 0.963545 -0.138952
C45   C     C_R   0.497511 0.056792 0.035770 -0.139536
C46   C     C_R   0.001136 0.557128 0.963545 -0.138952
C47   C     C_R   0.997510 0.556792 0.035770 -0.139536
C48   C     C_R   0.495171 0.166868 0.073988 -0.025315
C49   C     C_R   0.504627 0.167509 0.926006 -0.025039
C50   C     C_R   0.995170 0.666868 0.073988 -0.025313
C51   C     C_R   0.770752 0.875604 0.355082 0.511014
C52   C     C_R   0.004627 0.667509 0.926006 -0.025038
C53   C     C_R   0.500164 0.281135 0.038020 0.001700
C54   C     C_R   0.500521 0.281532 0.962667 0.005727
C55   C     C_R   0.000164 0.781135 0.038020 0.001702
C56   C     C_R   0.000521 0.781532 0.962667 0.005732
C57   C     C_R   0.531045 0.155209 0.646680 0.539318
C58   C     C_R   0.435753 0.150907 0.360833 0.552492
C59   C     C_R   0.031046 0.655210 0.646679 0.539335
C60   C     C_R   0.935753 0.650907 0.360833 0.552496
C61   C     C_R   0.800202 0.999286 0.969989 -0.131995
C62   C     C_3   0.523122 0.363011 0.450914 -0.070221
C63   C     C_R   0.200279 0.000872 0.029876 -0.130411
C64   C     C_R   0.300202 0.499286 0.969989 -0.131995
C65   C     C_R   0.700279 0.500872 0.029876 -0.130413
C66   C     C_R   0.799162 0.995533 0.042685 -0.139116
C67   C     C_R   0.201435 0.997366 0.957169 -0.139744
C68   C     C_R   0.299162 0.495533 0.042685 -0.139114
C69   C     C_R   0.701436 0.497366 0.957169 -0.139744
C70   C     C_R   0.748382 0.925833 0.078121 0.039170
C71   C     C_R   0.251965 0.926631 0.921655 0.038287
C72   C     C_R   0.248382 0.425833 0.078121 0.039173
C73   C     C_3   0.542659 0.368034 0.529800 -0.121293
C74   C     C_R   0.751965 0.426630 0.921655 0.038288
C75   C     C_R   0.690693 0.876025 0.039361 -0.002511
C76   C     C_R   0.309545 0.875900 0.960308 -0.000193
C77   C     C_R   0.190693 0.376025 0.039361 -0.002509
C78   C     C_R   0.809545 0.375900 0.960308 -0.000190
C79   C     C_R   0.691763 0.882109 0.965311 -0.162054
C80   C     C_R   0.308414 0.881849 0.034362 -0.162787
C81   C     C_R   0.191763 0.382109 0.965311 -0.162054
C82   C     C_R   0.808414 0.381848 0.034362 -0.162789
C83   C     C_R   0.746979 0.942111 0.930432 0.011610
C84   C     C_3   0.023214 0.862910 0.450880 -0.070070
C85   C     C_R   0.253254 0.942524 0.069337 0.010216
C86   C     C_R   0.246979 0.442111 0.930432 0.011610
C87   C     C_R   0.753254 0.442524 0.069337 0.010213
C88   C     C_R   0.741116 0.968101 0.647655 0.540529
C89   C     C_R   0.259533 0.973327 0.354255 0.564135
C90   C     C_R   0.241116 0.468104 0.647654 0.540526
C91   C     C_R   0.759534 0.473330 0.354256 0.564076
C92   C     C_R   0.731148 0.381404 0.851485 0.570583
C93   C     C_R   0.268930 0.381050 0.148420 0.569313
C94   C     C_R   0.231148 0.881404 0.851485 0.570598
C95   C     C_3   0.042765 0.867931 0.529765 -0.121284
C96   C     C_R   0.768930 0.881050 0.148420 0.569308
C97   C     C_R   0.531516 0.157814 0.853404 0.540716
C98   C     C_R   0.468467 0.157492 0.146613 0.556057
C99   C     C_R   0.031516 0.657814 0.853404 0.540737
C100  C     C_R   0.968467 0.657492 0.146613 0.556078
C101  C     C_R   0.740542 0.974248 0.855852 0.542368
C102  C     C_R   0.259508 0.974101 0.144074 0.552761
C103  C     C_R   0.240542 0.474248 0.855852 0.542371
C104  C     C_R   0.759508 0.474101 0.144074 0.552742
C105  C     C_R   0.450221 0.157857 0.436889 -0.000577
C106  C     C_R   0.687831 0.894319 0.535813 -0.103239
C107  C     C_R   0.489409 0.163819 0.581427 -0.000113
C108  C     C_R   0.950227 0.657859 0.436887 -0.000636
C109  C     C_R   0.989416 0.663829 0.581424 -0.000141
C110  C     C_R   0.469454 0.268007 0.470064 -0.048999
C111  C     C_R   0.487595 0.271759 0.541265 -0.061725
C112  C     C_R   0.969502 0.767996 0.470048 -0.048975
C113  C     C_R   0.987647 0.771755 0.541248 -0.061463
C114  C     C_R   0.460366 0.056517 0.551303 -0.122162
C115  C     C_R   0.441472 0.053545 0.479511 -0.120442
C116  C     C_R   0.960340 0.556545 0.551312 -0.122188
Cr1   Cr    Cr6+3 0.771950 0.169480 0.750100 1.062030
Cr2   Cr    Cr6+3 0.383410 0.010620 0.249390 1.058482
Cr3   Cr    Cr6+3 0.116590 0.510620 0.750610 1.048781
Cr4   Cr    Cr6+3 0.883410 0.510620 0.249390 1.058487
Cr5   Cr    Cr6+3 0.228050 0.169480 0.249900 1.090514
Cr6   Cr    Cr6+3 0.271950 0.669480 0.750100 1.062029
Cr7   Cr    Cr6+3 0.728050 0.669480 0.249900 1.090532
Cr8   Cr    Cr6+3 0.614930 0.323340 0.749170 1.030943
Cr9   Cr    Cr6+3 0.385070 0.323340 0.250830 1.069352
Cr10  Cr    Cr6+3 0.114930 0.823340 0.749170 1.030734
Cr11  Cr    Cr6+3 0.885070 0.823340 0.250830 1.069340
Cr12  Cr    Cr6+3 0.616590 0.010620 0.750610 1.048837
H1    H     H_    0.458663 0.971681 0.581084 0.154372
H2    H     H_    0.159362 0.043856 0.928907 0.187739
H3    H     H_    0.341450 0.541253 0.070959 0.189846
H4    H     H_    0.659362 0.543856 0.928907 0.187742
H5    H     H_    0.647813 0.845186 0.935083 0.124884
H6    H     H_    0.352211 0.844128 0.064544 0.125451
H7    H     H_    0.147813 0.345186 0.935083 0.124880
H8    H     H_    0.852211 0.344127 0.064544 0.125451
H9    H     H_    0.998335 0.947876 0.429408 0.195945
H10   H     H_    0.096756 0.834956 0.543204 0.131475
H11   H     H_    0.498213 0.447963 0.429456 0.195674
H12   H     H_    0.425202 0.967369 0.456185 0.171227
H13   H     H_    0.596673 0.335172 0.543235 0.131729
H14   H     H_    0.636914 0.888221 0.561380 0.192342
H15   H     H_    0.334495 0.806285 0.427464 0.177530
H16   H     H_    0.136928 0.388140 0.561391 0.192278
H17   H     H_    0.834463 0.306235 0.427454 0.177550
H18   H     H_    0.868884 0.942566 0.448036 0.167182
H19   H     H_    0.176759 0.066184 0.574536 0.179563
H20   H     H_    0.368858 0.442707 0.448021 0.167089
H21   H     H_    0.676815 0.566247 0.574554 0.179870
H22   H     H_    0.860796 0.953502 0.573945 0.160423
H23   H     H_    0.958608 0.471722 0.581104 0.154304
H24   H     H_    0.177678 0.090924 0.448380 0.193484
H25   H     H_    0.360780 0.453614 0.573926 0.160212
H26   H     H_    0.677728 0.591001 0.448393 0.193487
H27   H     H_    0.504278 0.968542 0.937425 0.174087
H28   H     H_    0.493547 0.968074 0.061347 0.172372
H29   H     H_    0.004278 0.468542 0.937425 0.174085
H30   H     H_    0.993547 0.468074 0.061347 0.172371
H31   H     H_    0.594465 0.758797 0.043183 0.111591
H32   H     H_    0.405475 0.757028 0.956254 0.112014
H33   H     H_    0.094465 0.258797 0.043183 0.111589
H34   H     H_    0.925150 0.467402 0.456201 0.171171
H35   H     H_    0.905475 0.257027 0.956254 0.112013
H36   H     H_    0.611672 0.232943 0.422549 0.105919
H37   H     H_    0.498314 0.485993 0.617314 0.122336
H38   H     H_    0.111703 0.732709 0.422525 0.105938
H39   H     H_    0.998958 0.985918 0.617545 0.122435
H40   H     H_    0.623951 0.890785 0.363652 0.143782
H41   H     H_    0.376473 0.785388 0.619728 0.136963
H42   H     H_    0.123940 0.390699 0.363663 0.143793
H43   H     H_    0.876462 0.285316 0.619710 0.136939
H44   H     H_    0.540014 0.397818 0.127015 0.120759
H45   H     H_    0.842017 0.050847 0.945050 0.157166
H46   H     H_    0.461799 0.400145 0.874207 0.100500
H47   H     H_    0.040014 0.897817 0.127015 0.120765
H48   H     H_    0.961799 0.900144 0.874207 0.100495
H49   H     H_    0.158544 0.053070 0.054918 0.159053
H50   H     H_    0.342017 0.550847 0.945050 0.157167
H51   H     H_    0.658544 0.553071 0.054918 0.159055
H52   H     H_    0.841450 0.041253 0.070958 0.189845
O1    O     O_R   0.787510 0.042610 0.670410 -0.513938
O2    O     O_R   0.454250 0.051070 0.169440 -0.492411
O3    O     O_R   0.045750 0.551070 0.830560 -0.496666
O4    O     O_R   0.954250 0.551070 0.169440 -0.492408
O5    O     O_R   0.681210 0.959150 0.825320 -0.502809
O6    O     O_R   0.318790 0.959150 0.174680 -0.502605
O7    O     O_R   0.181210 0.459150 0.825320 -0.502815
O8    O     O_R   0.818790 0.459150 0.174680 -0.502609
O9    O     O_3   0.667820 0.167810 0.749960 -0.255747
O10   O     O_3   0.332180 0.167810 0.250040 -0.295115
O11   O     O_3   0.167820 0.667810 0.749960 -0.255707
O12   O     O_R   0.212490 0.042610 0.329590 -0.472831
O13   O     O_3   0.832180 0.667810 0.250040 -0.295120
O14   O     O_R   0.765670 0.292090 0.675090 -0.514409
O15   O     O_R   0.234330 0.292090 0.324910 -0.517449
O16   O     O_R   0.265670 0.792090 0.675090 -0.514372
O17   O     O_R   0.734330 0.792090 0.324910 -0.517445
O18   O     O_R   0.670220 0.409020 0.668560 -0.523283
O19   O     O_R   0.329780 0.409020 0.331440 -0.522167
O20   O     O_R   0.170220 0.909020 0.668560 -0.523513
O21   O     O_R   0.829780 0.909020 0.331440 -0.522156
O22   O     O_R   0.556580 0.251590 0.674980 -0.516222
O23   O     O_R   0.287510 0.542610 0.670410 -0.513973
O24   O     O_R   0.443420 0.251590 0.325020 -0.473674
O25   O     O_R   0.056580 0.751590 0.674980 -0.516342
O26   O     O_R   0.943420 0.751590 0.325020 -0.473697
O27   O     O_R   0.545890 0.049670 0.670030 -0.512358
O28   O     O_R   0.454110 0.049670 0.329970 -0.492480
O29   O     O_R   0.045890 0.549670 0.670030 -0.512340
O30   O     O_R   0.954110 0.549670 0.329970 -0.492455
O31   O     O_R   0.681340 0.957860 0.676500 -0.507900
O32   O     O_R   0.318660 0.957860 0.323500 -0.530329
O33   O     O_R   0.181340 0.457860 0.676500 -0.507921
O34   O     O_R   0.712490 0.542610 0.329590 -0.472786
O35   O     O_R   0.818660 0.457860 0.323500 -0.530327
O36   O     O_R   0.787380 0.044010 0.830940 -0.521462
O37   O     O_R   0.212620 0.044010 0.169060 -0.506482
O38   O     O_R   0.287380 0.544010 0.830940 -0.521458
O39   O     O_R   0.712620 0.544010 0.169060 -0.506483
O40   O     O_R   0.765540 0.293390 0.823910 -0.452494
O41   O     O_R   0.234460 0.293390 0.176090 -0.453642
O42   O     O_R   0.265540 0.793390 0.823910 -0.452484
O43   O     O_R   0.734460 0.793390 0.176090 -0.453638
O44   O     O_R   0.670090 0.410410 0.829090 -0.515525
O45   O     O_R   0.556450 0.252890 0.823790 -0.508444
O46   O     O_R   0.329910 0.410410 0.170910 -0.513447
O47   O     O_R   0.170090 0.910410 0.829090 -0.515534
O48   O     O_R   0.829910 0.910410 0.170910 -0.513450
O49   O     O_2   0.608247 0.855092 0.131832 -0.485198
O50   O     O_2   0.391924 0.853256 0.867781 -0.496139
O51   O     O_2   0.108247 0.355091 0.131831 -0.485196
O52   O     O_2   0.891924 0.353255 0.867781 -0.496146
O53   O     O_2   0.595149 0.360925 0.348838 -0.474635
O54   O     O_2   0.538009 0.585267 0.538465 -0.456585
O55   O     O_2   0.095222 0.860672 0.348791 -0.474672
O56   O     O_R   0.443550 0.252890 0.176210 -0.496783
O57   O     O_2   0.037756 0.085196 0.538189 -0.456242
O58   O     O_2   0.570937 0.837247 0.448343 -0.468359
O59   O     O_2   0.388823 0.693411 0.530035 -0.493426
O60   O     O_2   0.070950 0.337119 0.448361 -0.468282
O61   O     O_2   0.888770 0.193312 0.530020 -0.493105
O62   O     O_2   0.473284 0.488772 0.064720 -0.499557
O63   O     O_2   0.528499 0.488862 0.937548 -0.501518
O64   O     O_2   0.973284 0.988772 0.064720 -0.499560
O65   O     O_2   0.028498 0.988862 0.937548 -0.501525
O66   O     O_R   0.056450 0.752890 0.823790 -0.508438
O67   O     O_R   0.943550 0.752890 0.176210 -0.496779
O68   O     O_R   0.545750 0.051070 0.830560 -0.496666

loop_
_geom_bond_atom_site_label_1
_geom_bond_atom_site_label_2
_ccdc_geom_bond_type
C18   O63   D    
C44   C49   A    
C39   C106  A    
C41   C89   S    
C55   C56   A    
Cr9   O24   S    
C12   C22   S    
Cr10  O66   S    
C97   O45   A    
Cr10  O47   S    
C20   C56   S    
C97   O68   A    
C114  C115  A    
Cr2   O6    S    
C17   H44   S    
Cr6   O11   S    
C107  C114  A    
C71   C94   S    
C73   H13   S    
C53   C54   A    
Cr4   O35   S    
C18   H46   S    
C10   O55   D    
C84   C112  S    
C21   C25   A    
Cr10  O25   S    
C96   O48   A    
C94   O42   A    
C28   C29   S    
C105  C110  A    
Cr3   O11   S    
C91   O34   A    
C3    C116  A    
Cr11  O13   S    
Cr12  O31   S    
C71   C76   A    
Cr1   O1    S    
C4    H31   S    
C2    C41   A    
Cr10  O20   S    
C49   C54   A    
Cr8   O18   S    
C16   C25   S    
C80   H6    S    
Cr1   O40   S    
Cr2   O32   S    
Cr12  O9    S    
C13   H16   S    
C74   C92   S    
C37   C42   A    
C92   O40   A    
C110  C111  A    
C112  C113  A    
C4    C75   S    
C91   O35   A    
Cr1   O14   S    
C51   O17   A    
C102  O37   A    
C21   C43   A    
C31   H18   S    
C74   C78   A    
C93   O46   A    
Cr8   O44   S    
Cr11  O26   S    
C29   O19   A    
C88   O31   A    
C50   C55   A    
C100  O4    A    
C84   H9    S    
C62   C73   S    
C73   C111  S    
Cr9   O10   S    
Cr12  O27   S    
C23   C27   A    
C62   H11   S    
C47   C50   A    
Cr6   O38   S    
C99   O3    A    
C81   C86   A    
C3    H34   S    
C109  C113  A    
Cr2   O28   S    
C16   O61   D    
C59   O25   A    
C1    O18   A    
C12   O58   D    
C9    O54   D    
C17   C53   S    
C58   O24   A    
C26   C31   A    
C6    O51   D    
C63   C85   A    
C11   H39   S    
C2    H15   S    
C36   C41   A    
C61   C83   A    
C9    C73   S    
C39   C88   S    
Cr5   O12   S    
C14   H41   S    
C101  O5    A    
C86   C103  S    
C61   C66   A    
C64   C86   A    
Cr8   O9    S    
C34   H21   S    
Cr7   O17   S    
C13   C42   A    
C65   C87   A    
C89   O32   A    
C19   H47   S    
C7    O52   D    
Cr2   O2    S    
Cr4   O30   S    
C48   C53   A    
C104  O8    A    
C63   C67   A    
C109  C116  A    
Cr3   O29   S    
C30   C34   A    
C52   C56   A    
Cr12  O5    S    
Cr12  O68   S    
C37   H25   S    
C92   O44   A    
C103  O7    A    
C8    H36   S    
C60   O30   A    
Cr5   O10   S    
C32   H19   S    
C36   H24   S    
C6    C77   S    
Cr3   O3    S    
C65   H51   S    
C22   C106  A    
C46   H29   S    
C7    H35   S    
C15   O60   D    
C43   C91   S    
C108  C112  A    
C15   H42   S    
Cr8   O22   S    
C68   C72   A    
C42   C90   S    
C84   C95   S    
C21   H17   S    
Cr6   O23   S    
C98   O2    A    
C68   H3    S    
C70   C96   S    
C104  O39   A    
C80   C85   A    
C33   H20   S    
C90   O33   A    
C64   H50   S    
C78   C82   A    
C62   C110  S    
C6    H33   S    
C58   O28   A    
C27   C40   S    
C10   H38   S    
C96   O43   A    
C61   H45   S    
C69   C74   A    
C45   H28   S    
C102  O6    A    
C115  H12   S    
C99   O66   A    
Cr11  O21   S    
Cr9   O19   S    
C17   O62   D    
Cr1   O9    S    
C94   O47   A    
C7    C78   S    
C72   C93   S    
C19   O64   D    
C15   C24   S    
C57   C107  S    
C28   C33   A    
Cr3   O33   S    
Cr6   O42   S    
Cr11  O48   S    
C3    C108  A    
C114  H1    S    
C31   C35   A    
C67   H2    S    
Cr11  O67   S    
C38   H26   S    
C14   O59   D    
Cr9   O46   S    
C64   C68   A    
C70   C75   A    
C48   C98   S    
C44   C45   A    
C24   C28   A    
C33   C37   A    
C90   O23   A    
C40   O16   A    
C45   C48   A    
C11   C95   S    
C25   C30   A    
Cr7   O39   S    
C46   C47   A    
C20   O65   D    
C106  H14   S    
C83   C101  S    
C27   C32   A    
C34   C38   A    
C44   H27   S    
C107  C111  A    
C105  C115  A    
C76   C80   A    
Cr1   O36   S    
Cr6   O16   S    
C60   C108  S    
C12   H40   S    
C72   C77   A    
C32   C36   A    
C19   C55   S    
C14   C23   S    
C11   O57   D    
Cr5   O37   S    
C40   O20   A    
C57   O27   A    
C52   C99   S    
C50   C100  S    
Cr4   O13   S    
C63   H49   S    
C58   C105  S    
C4    O49   D    
C5    C76   S    
C9    H37   S    
C1    O14   A    
C38   C43   A    
Cr9   O56   S    
C29   O15   A    
C26   C51   S    
C8    O53   D    
C46   C52   A    
C79   C83   A    
Cr2   O10   S    
C16   H43   S    
C60   O26   A    
C88   O1    A    
C20   H48   S    
C81   H7    S    
C66   H52   S    
C95   C113  S    
C69   H4    S    
C65   C69   A    
C35   C39   A    
Cr4   O8    S    
C10   C84   S    
C1    C30   S    
C59   C109  S    
C89   O12   A    
C57   O22   A    
C67   C71   A    
C95   H10   S    
C35   H22   S    
C82   H8    S    
Cr10  O11   S    
C5    H32   S    
C79   H5    S    
Cr3   O7    S    
Cr7   O43   S    
C18   C54   S    
C103  O38   A    
C49   C97   S    
C87   C104  S    
C100  O67   A    
C59   O29   A    
C98   O56   A    
C66   C70   A    
C13   C24   A    
C77   C81   A    
C22   C26   A    
Cr7   O34   S    
C51   O21   A    
C2    C23   A    
Cr4   O4    S    
Cr5   O41   S    
C5    O50   D    
Cr7   O13   S    
C93   O41   A    
Cr8   O45   S    
C101  O36   A    
C75   C79   A    
Cr5   O15   S    
C116  H23   S    
C85   C102  S    
C82   C87   A    
C8    C62   S    
C47   H30   S    
