data_mof_unit_63396.cif
_audit_creation_date              2012-12-10T16:49:23-0500
_audit_creation_method            fapswitch 2.2
_symmetry_space_group_name_H-M    P1
_symmetry_Int_Tables_number       1
_space_group_crystal_system       triclinic
_cell_length_a                    18.799067
_cell_length_b                    19.156324
_cell_length_c                    18.8012
_cell_angle_alpha                 110.264095
_cell_angle_beta                  109.115549
_cell_angle_gamma                 110.009409
_cell_volume                      5147.97096852

loop_
_atom_site_label
_atom_site_type_symbol
_atom_type_description
_atom_site_fract_x
_atom_site_fract_y
_atom_site_fract_z
_atom_type_partial_charge
C1    C     C_R   0.380189 0.383270 0.501588 0.919042
C2    C     C_2   0.311260 0.324178 0.505090 -0.331129
C3    C     C_2   0.489806 0.173048 0.248763 -0.160364
C4    C     C_R   0.498182 0.616820 0.620149 0.878990
C5    C     C_2   0.509101 0.185037 0.189999 -0.332093
C6    C     C_2   0.500934 0.245636 0.321498 -0.152096
C7    C     C_2   0.486249 0.305306 0.309404 -0.334533
C8    C     C_2   0.745127 0.745672 0.424249 -0.282320
C9    C     C_2   0.810562 0.818659 0.500534 0.385833
C10   C     C_2   0.671545 0.683319 0.422079 -0.119483
C11   C     C_2   0.687788 0.666976 0.487325 -0.253366
C12   C     C_R   0.498051 0.672675 0.760376 0.098910
C13   C     C_R   0.380354 0.992687 0.874491 0.925668
C14   C     C_R   0.503497 0.877807 0.880790 0.874784
C15   C     C_R   0.619662 0.001194 0.119202 0.900058
C16   C     C_R   0.619457 0.614269 0.496178 0.925026
C17   C     C_R   0.501993 0.116856 0.118553 0.940352
C18   C     C_R   0.881026 0.999556 0.380564 0.803992
C19   C     C_R   0.121135 0.118710 0.501678 0.925709
C20   C     C_R   0.119851 0.001131 0.619617 0.795796
C21   C     C_R   0.880335 0.881490 0.500124 0.798743
C22   C     C_2   0.253949 0.000161 0.678300 -0.279647
C23   C     C_R   0.497656 0.680030 0.688000 -0.108313
C24   C     C_2   0.190533 0.009633 0.690433 0.387581
C25   C     C_2   0.327353 0.010703 0.749163 -0.118831
C26   C     C_2   0.311536 0.978570 0.798582 -0.255407
C27   C     C_2   0.744617 0.993852 0.315929 -0.281133
C28   C     C_R   0.496731 0.377977 0.379213 0.928810
C29   C     C_2   0.813759 0.993879 0.309731 0.386885
C30   C     C_2   0.671414 0.981018 0.242964 -0.128468
C31   C     C_2   0.687953 0.016999 0.196561 -0.246560
C32   C     C_R   0.488030 0.597964 0.765059 -0.176194
C33   C     C_R   0.493798 0.595266 0.839793 -0.142808
C34   C     C_R   0.501762 0.751573 0.681811 -0.197308
C35   C     C_R   0.509505 0.666408 0.910823 -0.126672
C36   C     C_R   0.516292 0.739277 0.906122 -0.161838
C37   C     C_R   0.507326 0.741943 0.829488 0.095146
C38   C     C_3   0.878613 0.872096 0.650002 -0.337901
C39   C     C_3   0.125910 0.999027 0.774747 -0.336548
C40   C     C_3   0.890133 0.024302 0.239988 -0.332703
C41   C     C_R   0.506530 0.817175 0.747242 -0.209917
C42   C     C_R   0.508106 0.812192 0.819847 -0.105176
C43   C     C_2   0.252433 0.259951 0.578118 -0.146220
C44   C     C_2   0.192989 0.182272 0.505277 -0.345720
C45   C     C_2   0.324716 0.321566 0.578245 -0.160754
H1    H     H_    0.501831 0.756882 0.626250 0.164907
H2    H     H_    0.253297 0.986784 0.616926 0.134483
H3    H     H_    0.474575 0.540693 0.711111 0.144365
H4    H     H_    0.393113 0.043988 0.760143 0.160312
H5    H     H_    0.244555 0.937385 0.780800 0.171700
H6    H     H_    0.739809 0.999346 0.373480 0.133424
H7    H     H_    0.604881 0.942426 0.227791 0.161755
H8    H     H_    0.754779 0.062972 0.218138 0.177248
H9    H     H_    0.486717 0.538020 0.842827 0.134992
H10   H     H_    0.515754 0.664894 0.969513 0.141300
H11   H     H_    0.529718 0.793446 0.963373 0.160283
H12   H     H_    0.245849 0.286396 0.447673 0.155803
H13   H     H_    0.507185 0.871262 0.740345 0.158714
H14   H     H_    0.250221 0.276842 0.638485 0.167634
H15   H     H_    0.200963 0.161743 0.448212 0.156147
H16   H     H_    0.387687 0.366484 0.638857 0.157342
H17   H     H_    0.924388 0.942339 0.680638 0.188373
H18   H     H_    0.911592 0.834708 0.636437 0.120721
H19   H     H_    0.861303 0.863646 0.698654 0.195425
H20   H     H_    0.089827 0.927869 0.727187 0.119403
H21   H     H_    0.082375 0.025615 0.761779 0.189929
H22   H     H_    0.144908 0.008145 0.841134 0.193984
H23   H     H_    0.470213 0.111452 0.246112 0.164761
H24   H     H_    0.941531 0.009006 0.265041 0.190442
H25   H     H_    0.913796 0.093770 0.283727 0.131979
H26   H     H_    0.878790 0.014853 0.174769 0.196473
H27   H     H_    0.538133 0.249159 0.198443 0.159147
H28   H     H_    0.518342 0.248430 0.383923 0.166776
H29   H     H_    0.459137 0.297208 0.244479 0.158799
H30   H     H_    0.743939 0.733050 0.362762 0.135034
H31   H     H_    0.605299 0.652005 0.368126 0.161104
H32   H     H_    0.754827 0.691421 0.535409 0.172363
O1    O     O_R   0.460610 0.409240 0.550770 -0.625684
O2    O     O_R   0.909530 0.949160 0.358700 -0.594936
O3    O     O_R   0.090460 0.141840 0.551380 -0.610901
O4    O     O_R   0.358470 0.409870 0.449260 -0.623047
O5    O     O_R   0.090460 0.039050 0.448590 -0.626982
O6    O     O_R   0.090470 0.050840 0.641300 -0.602103
O7    O     O_R   0.090460 0.948050 0.538510 -0.640610
O8    O     O_R   0.909540 0.960950 0.551410 -0.598306
O9    O     O_R   0.909540 0.858160 0.448620 -0.638665
O10   O     O_R   0.551070 0.590720 0.641790 -0.624672
O11   O     O_R   0.448930 0.591350 0.540280 -0.618678
O12   O     O_R   0.358520 0.946380 0.906940 -0.624240
O13   O     O_R   0.641530 0.590130 0.550740 -0.624064
O14   O     O_R   0.539390 0.590760 0.449230 -0.617558
O15   O     O_R   0.551070 0.408650 0.459720 -0.617128
O16   O     O_R   0.448930 0.409280 0.358210 -0.626766
O17   O     O_R   0.460650 0.048500 0.906910 -0.616832
O18   O     O_3   0.800900 0.842580 0.574269 -0.578978
O19   O     O_3   0.202863 0.045463 0.775000 -0.579085
O20   O     O_3   0.810440 0.967562 0.229076 -0.584961
O21   O     O_R   0.551120 0.956920 0.905770 -0.621588
O22   O     O_R   0.449000 0.854790 0.905800 -0.627996
O23   O     O_R   0.641600 0.047410 0.086710 -0.625384
O24   O     O_R   0.539480 0.945290 0.086740 -0.633609
O25   O     O_R   0.551130 0.138990 0.087850 -0.622185
O26   O     O_R   0.449000 0.036870 0.087880 -0.617673
O27   O     O_R   0.909540 0.051950 0.461490 -0.640208
Zn1   Zn    Zn3+2 0.568200 0.499580 0.567780 0.951594
Zn2   Zn    Zn3+2 0.431800 0.500420 0.432220 0.955687
Zn3   Zn    Zn3+2 0.568250 0.065080 0.996810 0.957260
Zn4   Zn    Zn3+2 0.431870 0.928710 0.996840 0.947223
Zn5   Zn    Zn3+2 0.000000 0.068630 0.568630 0.963693
Zn6   Zn    Zn3+2 0.000000 0.931370 0.431370 0.954440

loop_
_geom_bond_atom_site_label_1
_geom_bond_atom_site_label_2
_ccdc_geom_bond_type
C16   O13   A    
C40   H26   S    
C27   C29   D    
C32   H3    S    
C41   C42   A    
C35   C36   A    
C15   O23   A    
C43   C44   D    
C3    C6    S    
C2    H12   S    
C14   O22   A    
C4    O10   A    
O22   Zn4   S    
C12   C23   A    
C40   H25   S    
O1    Zn1   S    
O5    Zn6   S    
C36   C37   A    
O9    Zn6   S    
C3    H23   S    
C41   H13   S    
C5    H27   S    
O8    Zn5   S    
C26   H5    S    
O27   Zn5   S    
C5    C17   S    
C1    O4    A    
C37   C42   A    
C1    C2    S    
C12   C37   A    
C11   H32   S    
C21   O9    A    
C10   H31   S    
C20   C24   S    
C18   O2    A    
C22   C25   S    
C38   O18   S    
O6    Zn5   S    
O26   Zn4   S    
C34   H1    S    
C19   O5    A    
C9    O18   S    
C43   H14   S    
C14   C42   S    
O24   Zn4   S    
C22   H2    S    
C12   C32   A    
C27   C30   S    
C1    O1    A    
C39   H20   S    
O14   Zn2   S    
C34   C41   A    
C27   H6    S    
C14   O21   A    
C7    H29   S    
C38   H19   S    
C2    C45   D    
C21   O8    A    
O17   Zn3   S    
C40   H24   S    
C35   H10   S    
C40   O20   S    
C4    C23   S    
C8    C9    D    
C15   O24   A    
C25   C26   D    
C8    H30   S    
O7    Zn6   S    
O21   Zn3   S    
C28   O16   A    
O3    Zn5   S    
C17   O25   A    
C36   H11   S    
O16   Zn2   S    
O11   Zn2   S    
C11   C16   S    
O10   Zn1   S    
C23   C34   A    
O25   Zn3   S    
C28   O15   A    
C18   C29   S    
C18   O27   A    
C31   H8    S    
C43   C45   S    
C20   O7    A    
C39   H21   S    
C22   C24   D    
C13   C26   S    
C19   C44   S    
C6    H28   S    
C38   H18   S    
C33   H9    S    
C30   H7    S    
O4    Zn2   S    
O23   Zn3   S    
O2    Zn6   S    
C13   O12   A    
C39   H22   S    
O13   Zn1   S    
C3    C5    D    
C15   C31   S    
C6    C7    D    
C4    O11   A    
C29   O20   S    
C13   O17   A    
C32   C33   A    
C24   O19   S    
C17   O26   A    
C9    C21   S    
C30   C31   D    
C44   H15   S    
O12   Zn4   S    
C45   H16   S    
C33   C35   A    
C19   O3    A    
C25   H4    S    
C39   O19   S    
C10   C11   D    
C7    C28   S    
O15   Zn1   S    
C16   O14   A    
C8    C10   S    
C20   O6    A    
C38   H17   S    
