data_mof_unit_44000.cif
_audit_creation_date              2012-12-10T18:09:11-0500
_audit_creation_method            fapswitch 2.2
_symmetry_space_group_name_H-M    P1
_symmetry_Int_Tables_number       1
_space_group_crystal_system       triclinic
_cell_length_a                    12.716526
_cell_length_b                    13.17677
_cell_length_c                    13.659148
_cell_angle_alpha                 89.753579
_cell_angle_beta                  96.029321
_cell_angle_gamma                 98.409284
_cell_volume                      2251.48993386

loop_
_atom_site_label
_atom_site_type_symbol
_atom_type_description
_atom_site_fract_x
_atom_site_fract_y
_atom_site_fract_z
_atom_type_partial_charge
C1    C     C_R   0.560422 0.691184 0.511525 0.909554
C2    C     C_R   0.455408 0.027837 0.476170 -0.039853
C3    C     C_R   0.364535 0.992983 0.527351 -0.180807
C4    C     C_R   0.516692 0.496669 0.318751 0.849624
C5    C     C_R   0.361120 0.901236 0.580522 0.575469
C6    C     C_R   0.448077 0.847729 0.587722 0.148871
C7    C     C_R   0.472300 0.132261 0.448003 0.134142
C8    C     C_R   0.301804 0.156895 0.501771 0.540095
C9    C     C_R   0.599889 0.801334 0.509011 -0.181037
C10   C     C_R   0.896162 0.375904 0.662624 -0.318128
C11   C     C_R   0.216344 0.630125 0.385295 0.009526
C12   C     C_1   0.524419 0.487499 0.217859 -0.195555
C13   C     C_R   0.121554 0.671748 0.372457 0.169204
C14   C     C_R   0.036840 0.628850 0.423772 -0.177368
C15   C     C_R   0.045448 0.543073 0.485323 -0.057844
C16   C     C_R   0.440111 0.308700 0.485975 0.949611
C17   C     C_R   0.146416 0.510974 0.503255 0.038264
C18   C     C_R   0.958798 0.489642 0.531648 -0.068105
C19   C     C_R   0.979861 0.424936 0.612789 -0.091229
C20   C     C_R   0.083305 0.404467 0.638717 0.124260
C21   C     C_R   0.161757 0.438053 0.577738 0.619350
C22   C     C_R   0.851209 0.493151 0.497781 0.230258
C23   C     C_R   0.282646 0.054582 0.529722 0.105276
C24   C     C_R   0.792823 0.388555 0.630300 0.713224
C25   C     C_R   0.483519 0.504091 0.681248 0.951088
C26   C     C_1   0.474999 0.512406 0.782061 -0.183856
C27   C     C_2   0.466392 0.526725 0.971111 0.166639
C28   C     C_2   0.529896 0.471394 0.028512 0.166291
C29   C     C_1   0.529249 0.478817 0.132172 -0.028900
C30   C     C_1   0.468699 0.520238 0.867595 -0.040724
C31   C     C_3   0.652204 0.340866 0.053242 -0.738028
C32   C     C_3   0.538167 0.801145 0.742470 -0.807203
C33   C     C_3   0.132884 0.401609 0.813510 -0.766815
C34   C     C_R   0.402257 0.198191 0.474777 -0.267818
C35   C     C_3   0.819503 0.471046 0.321073 -0.735639
C36   C     C_3   0.181435 0.849690 0.336610 -0.754040
C37   C     C_3   0.350130 0.662477 0.947433 -0.738909
C38   C     C_3   0.170269 0.045104 0.662888 -0.575328
C39   C     C_3   0.547281 0.216133 0.305398 -0.773966
C40   C     C_3   0.841510 0.781636 0.562867 -0.717887
C41   C     C_R   0.692345 0.834064 0.461874 0.083848
C42   C     C_R   0.692766 0.919245 0.401149 0.587600
C43   C     C_R   0.608158 0.975364 0.396294 -0.267403
C44   C     C_R   0.530809 0.959784 0.464576 -0.004772
C45   C     C_R   0.527545 0.870404 0.522371 -0.082938
F1    F     F_    0.711077 0.342952 0.678629 -0.651921
F2    F     F_    0.250160 0.394755 0.593179 -0.615811
F3    F     F_    0.224978 0.217014 0.508827 -0.636042
F4    F     F_    0.278890 0.868205 0.634144 -0.679104
F5    F     F_    0.771990 0.944834 0.342299 -0.676340
H1    H     H_    0.909669 0.326700 0.724995 0.207687
H2    H     H_    0.543707 0.735595 0.793022 0.238485
H3    H     H_    0.517966 0.866684 0.784103 0.254660
H4    H     H_    0.617437 0.822933 0.714997 0.250927
H5    H     H_    0.162399 0.295130 0.713574 0.280093
H6    H     H_    0.143832 0.348443 0.875800 0.245100
H7    H     H_    0.067115 0.445155 0.826747 0.251744
H8    H     H_    0.208201 0.455742 0.810856 0.250238
H9    H     H_    0.763400 0.582514 0.404478 0.278903
H10   H     H_    0.797690 0.512962 0.253009 0.232037
H11   H     H_    0.759682 0.401321 0.326008 0.253618
H12   H     H_    0.283629 0.661485 0.346724 0.140141
H13   H     H_    0.899217 0.447529 0.316320 0.247336
H14   H     H_    0.033138 0.767821 0.288787 0.239873
H15   H     H_    0.168277 0.909905 0.281434 0.245024
H16   H     H_    0.266505 0.838135 0.340311 0.233446
H17   H     H_    0.164289 0.876502 0.409351 0.260536
H18   H     H_    0.418289 0.615922 0.082345 0.231853
H19   H     H_    0.295349 0.701058 0.987736 0.240721
H20   H     H_    0.302789 0.623299 0.881798 0.249369
H21   H     H_    0.413908 0.721557 0.924088 0.241356
H22   H     H_    0.118080 0.027978 0.514631 0.246747
H23   H     H_    0.967435 0.667339 0.418236 0.162616
H24   H     H_    0.162820 0.127662 0.666298 0.228569
H25   H     H_    0.239713 0.030061 0.714460 0.255205
H26   H     H_    0.096728 0.000126 0.686784 0.220165
H27   H     H_    0.630943 0.206657 0.447953 0.271289
H28   H     H_    0.625134 0.237911 0.275378 0.238084
H29   H     H_    0.507016 0.284844 0.307817 0.233115
H30   H     H_    0.496912 0.158107 0.255204 0.240882
H31   H     H_    0.826214 0.786978 0.410386 0.259571
H32   H     H_    0.901629 0.728417 0.564036 0.231519
H33   H     H_    0.789631 0.758778 0.622186 0.249257
H34   H     H_    0.604077 0.027677 0.336055 0.213340
H35   H     H_    0.883807 0.860896 0.577637 0.242915
H36   H     H_    0.571301 0.375692 0.919533 0.249049
H37   H     H_    0.704477 0.300451 0.011674 0.248258
H38   H     H_    0.592679 0.282850 0.084419 0.236489
H39   H     H_    0.703378 0.385851 0.113588 0.245659
H40   H     H_    0.385026 0.738142 0.685386 0.280489
N1    N     N_R   0.773270 0.445590 0.549770 -0.182433
N2    N     N_2   0.564928 0.173683 0.402705 -0.298025
N3    N     N_2   0.779058 0.776241 0.467623 -0.301696
N4    N     N_R   0.227520 0.553880 0.450750 -0.126494
N5    N     N_2   0.598185 0.408155 0.987790 -0.295861
N6    N     N_2   0.456352 0.771550 0.661794 -0.288241
N7    N     N_2   0.107299 0.343467 0.722427 -0.296778
N8    N     N_2   0.822685 0.537310 0.405858 -0.311230
N9    N     N_2   0.110969 0.755770 0.308032 -0.310517
N10   N     N_2   0.396817 0.589062 0.011248 -0.306935
N11   N     N_2   0.182441 0.015316 0.563295 -0.240896
O1    O     O_R   0.631100 0.627590 0.523760 -0.614840
O2    O     O_R   0.455900 0.662370 0.491970 -0.623474
O3    O     O_R   0.600200 0.480080 0.377830 -0.628112
O4    O     O_R   0.425000 0.514870 0.346040 -0.622014
O5    O     O_R   0.544100 0.337630 0.508030 -0.588641
O6    O     O_R   0.368900 0.372410 0.476240 -0.486536
O7    O     O_R   0.575000 0.485130 0.653960 -0.561476
O8    O     O_R   0.399800 0.519920 0.622170 -0.557767
Zn1   Zn    Zn3+2 0.616980 0.476780 0.521230 0.984726
Zn2   Zn    Zn3+2 0.383020 0.523220 0.478770 1.012052

loop_
_geom_bond_atom_site_label_1
_geom_bond_atom_site_label_2
_ccdc_geom_bond_type
C15   C18   A    
H27   N2    S    
C9    C45   A    
C33   H8    S    
C22   N8    S    
C6    C45   A    
C37   H19   S    
C12   C29   T    
C41   C42   A    
C32   H3    S    
C3    C23   A    
C2    C7    A    
C40   N3    S    
C11   H12   S    
H18   N10   S    
C36   H17   S    
C38   H26   S    
C28   N5    S    
N1    Zn1   S    
C28   C29   S    
C38   N11   S    
O8    Zn2   S    
C38   H24   S    
C5    C6    A    
C36   H16   S    
H22   N11   S    
N4    Zn2   S    
C8    C23   A    
O2    Zn2   S    
C18   C19   A    
C32   H2    S    
C16   O6    A    
C16   C34   S    
H14   N9    S    
C41   N3    S    
C20   N7    S    
C19   C20   A    
C2    C44   A    
C31   H39   S    
C22   N1    A    
C4    C12   S    
C35   N8    S    
C1    O2    A    
C25   O8    A    
C33   H6    S    
O4    Zn2   S    
C37   H20   S    
C27   C30   S    
C43   H34   S    
C40   H33   S    
C5    F4    S    
C10   H1    S    
C32   H4    S    
C38   H25   S    
C27   N10   S    
C31   H37   S    
C39   H28   S    
C40   H32   S    
C1    C9    S    
C36   H15   S    
C10   C24   A    
C25   C26   S    
C17   C21   A    
C35   H10   S    
C39   H29   S    
C40   H35   S    
C13   N9    S    
C43   C44   A    
C8    F3    S    
H31   N3    S    
C14   H23   S    
C10   C19   A    
H5    N7    S    
C35   H11   S    
C8    C34   A    
C42   F5    S    
C11   N4    A    
C32   N6    S    
C26   C30   T    
C6    N6    S    
C37   H21   S    
C7    C34   A    
O1    Zn1   S    
C42   C43   A    
C24   N1    A    
C39   N2    S    
C44   C45   A    
O5    Zn1   S    
C15   C17   A    
C33   H7    S    
C31   H38   S    
C18   C22   A    
O6    Zn2   S    
C3    C5    A    
H40   N6    S    
C16   O5    A    
C4    O4    A    
C9    C41   A    
C24   F1    S    
C39   H30   S    
C2    C3    A    
O3    Zn1   S    
C11   C13   A    
C23   N11   S    
C31   N5    S    
C7    N2    S    
C4    O3    A    
O7    Zn1   S    
C36   N9    S    
C33   N7    S    
H36   N5    S    
C20   C21   A    
C27   C28   D    
H9    N8    S    
C14   C15   A    
C35   H13   S    
C17   N4    A    
C13   C14   A    
C1    O1    A    
C37   N10   S    
C25   O7    A    
C21   F2    S    
