data_mof_unit_16684.cif
_audit_creation_date              2013-03-05T15:42:56-0500
_audit_creation_method            fapswitch 2.2
_symmetry_space_group_name_H-M    P1
_symmetry_Int_Tables_number       1
_space_group_crystal_system       triclinic
_cell_length_a                    8.459966
_cell_length_b                    15.388084
_cell_length_c                    23.306883
_cell_angle_alpha                 98.237184
_cell_angle_beta                  90.725587
_cell_angle_gamma                 99.063523
_cell_volume                      2963.42998749

loop_
_atom_site_label
_atom_site_type_symbol
_atom_site_description
_atom_site_fract_x
_atom_site_fract_y
_atom_site_fract_z
_atom_type_partial_charge
P1    P     P_3+3 0.054670 0.423610 0.368990 0.504948
O1    O     O_2   0.888680 0.450300 0.360330 -0.390210
O2    O     O_3   0.129270 0.451230 0.431380 -0.397260
O3    O     O_3   0.676100 0.614850 0.396630 -0.393193
O4    O     O_2   0.778135 0.550898 0.295605 -0.412622
O5    O     O_3   0.055823 0.309964 0.340977 -0.649098
O6    O     O_3   0.698812 0.708248 0.301820 -0.541035
H1    H     H_    0.739496 0.778933 0.383673 0.140487
C1    C     C_3   0.655503 0.859860 0.323714 -0.118943
H2    H     H_    0.752558 0.868747 0.292658 0.195130
P2    P     P_3+3 0.674060 0.707690 0.546600 0.427311
P3    P     P_3+3 0.144356 0.778283 0.427221 0.425047
O7    O     O_2   0.851930 0.720960 0.529560 -0.347923
O8    O     O_3   0.095720 0.661380 0.425720 -0.411568
O9    O     O_2   0.013569 0.820104 0.462124 -0.394103
O10   O     O_3   0.696931 0.725287 0.622425 -0.580496
O11   O     O_3   0.122008 0.803225 0.356641 -0.556754
C2    C     C_3   0.111641 0.723569 0.317771 0.357559
H3    H     H_    0.005165 0.676183 0.326656 0.177321
H4    H     H_    0.221269 0.692991 0.321932 0.009736
C3    C     C_3   0.094583 0.739300 0.254909 -0.384263
H5    H     H_    0.067366 0.672882 0.227962 0.186078
C4    C     C_3   0.066404 0.733828 0.668076 0.306090
H6    H     H_    0.033708 0.782717 0.641141 0.133630
H7    H     H_    0.954134 0.688246 0.674034 0.091286
C5    C     C_3   0.130072 0.783850 0.726965 -0.880367
H8    H     H_    0.236373 0.834038 0.721529 0.247058
H9    H     H_    0.036074 0.818352 0.748507 0.240662
H10   H     H_    0.164834 0.736758 0.754868 0.284490
Ba1   Ba    Ba6+2 0.857590 0.542650 0.472590 1.542849
C6    C     C_3   0.909363 0.252811 0.337837 0.792113
H11   H     H_    0.806080 0.287392 0.334030 0.020849
C7    C     C_3   0.901362 0.173192 0.288367 -0.050469
H12   H     H_    0.784647 0.128867 0.289362 0.101530
H13   H     H_    0.996569 0.133523 0.295555 0.116769
C8    C     C_3   0.571601 0.766125 0.647802 0.358793
H14   H     H_    0.510979 0.722882 0.677891 0.146850
H15   H     H_    0.477870 0.776611 0.616841 0.069671
C9    C     C_3   0.641227 0.855520 0.682774 -0.955754
H16   H     H_    0.730355 0.846364 0.715902 0.271430
H17   H     H_    0.544073 0.886483 0.704956 0.244354
H18   H     H_    0.700799 0.900672 0.653639 0.252509
P4    P     P_3+3 0.135040 0.576460 0.631020 0.453205
O12   O     O_2   0.301020 0.549730 0.639710 -0.338690
O13   O     O_3   0.060450 0.548840 0.568630 -0.413022
O14   O     O_3   0.513610 0.385220 0.603380 -0.391383
O15   O     O_3   0.187978 0.692523 0.640231 -0.584632
P5    P     P_3+3 0.047160 0.220696 0.570583 0.487195
O16   O     O_3   0.611400 0.391150 0.470030 -0.377751
O17   O     O_3   0.093990 0.338690 0.574280 -0.371440
O18   O     O_2   0.138318 0.184257 0.518054 -0.310979
O19   O     O_3   0.151877 0.184954 0.626275 -0.512029
Ba2   Ba    Ba6+2 0.332250 0.457420 0.527420 1.590172
P6    P     P_3+3 0.648421 0.602777 0.321878 0.421720
C10   C     C_3   0.653392 0.770562 0.346099 0.300143
H19   H     H_    0.530795 0.748637 0.361030 0.018829
O20   O     O_3   0.578310 0.608920 0.529980 -0.451307
C11   C     C_3   0.393177 0.233724 0.348659 0.629524
H20   H     H_    0.285649 0.227903 0.374456 0.150184
C12   C     C_3   0.377539 0.146783 0.306384 -1.013357
H21   H     H_    0.363799 0.089647 0.331143 0.260514
H22   H     H_    0.271082 0.139225 0.276784 0.235273
H23   H     H_    0.485441 0.144821 0.279984 0.272401
P7    P     P_3+3 0.519447 0.277497 0.456731 0.540284
O21   O     O_2   0.337770 0.279070 0.470480 -0.389352
O22   O     O_3   0.536642 0.243051 0.381960 -0.535447
H24   H     H_    0.207963 0.774457 0.240680 0.192272
C13   C     C_3   0.059178 0.161659 0.673582 0.667544
H25   H     H_    0.146670 0.154300 0.707842 0.113353
C14   C     C_3   0.954560 0.070002 0.661138 -1.109687
H26   H     H_    0.938419 0.040650 0.701965 0.271153
H27   H     H_    0.833648 0.074296 0.644814 0.241030
H28   H     H_    0.012531 0.024485 0.629872 0.265825
P8    P     P_3+3 0.542688 0.400153 0.681293 0.434775
C15   C     C_3   0.513377 0.253904 0.730215 0.348379
H29   H     H_    0.644409 0.271300 0.725298 0.076511
O23   O     O_2   0.455265 0.478057 0.704798 -0.366507
O24   O     O_3   0.422383 0.309738 0.705507 -0.527801
C16   C     C_3   0.479883 0.261914 0.795394 0.111364
H30   H     H_    0.351587 0.237143 0.801452 0.088532
H31   H     H_    0.504109 0.332936 0.814947 0.097137
H32   H     H_    0.047300 0.293974 0.035568 0.194139
H33   H     H_    0.967076 0.293954 0.935803 0.191591
C17   C     C_R   0.333486 0.521213 0.332558 -0.451414
C18   C     C_R   0.136230 0.595222 0.945277 -0.294541
C19   C     C_R   0.072399 0.593093 0.887251 0.645289
O25   O     O_2   0.072607 0.662101 0.867269 -0.503854
N1    N     N_R   0.002021 0.513861 0.854099 -0.178346
C20   C     C_R   0.985940 0.435982 0.878669 0.514841
O26   O     O_2   0.927138 0.365517 0.849861 -0.546050
C21   C     C_R   0.036076 0.436304 0.936832 -0.003416
C22   C     C_R   0.107448 0.516452 0.970956 -0.062331
C23   C     C_R   0.229354 0.672170 0.978421 0.534852
C24   C     C_R   0.262590 0.673856 0.038889 0.023583
C25   C     C_R   0.219882 0.596046 0.065934 -0.156800
C26   C     C_R   0.151790 0.516586 0.030552 -0.018621
C27   C     C_R   0.017907 0.356895 0.961252 -0.076528
C28   C     C_R   0.064893 0.356773 0.018772 -0.103169
C29   C     C_R   0.129518 0.436268 0.054477 -0.074364
C30   C     C_R   0.172143 0.436451 0.113549 0.562308
N2    N     N_R   0.215653 0.515446 0.150802 -0.163193
C31   C     C_R   0.245426 0.594381 0.126945 0.524272
C32   C     C_2   0.794365 0.469797 0.775476 -0.155629
C33   C     C_3   0.760996 0.431484 0.711896 0.037237
C34   C     C_1   0.013662 0.528242 0.690627 0.230981
C35   C     C_2   0.059300 0.541207 0.747143 -0.287659
C36   C     C_2   0.945392 0.511218 0.793418 0.132917
C37   C     C_R   0.402775 0.551334 0.236126 -0.279332
C38   C     C_R   0.445222 0.553492 0.294395 0.230749
C39   C     C_R   0.177173 0.483818 0.314051 0.207090
C40   C     C_R   0.131258 0.479424 0.252929 0.073774
C41   C     C_R   0.247485 0.515724 0.213552 0.111512
O27   O     O_2   0.169134 0.365895 0.131815 -0.507251
O28   O     O_2   0.294081 0.663461 0.158917 -0.644655
C42   C     C_2   0.873372 0.479600 0.672782 -0.136013
H34   H     H_    0.493078 0.576796 0.207570 0.176295
H35   H     H_    0.182484 0.569590 0.759942 0.186255
H36   H     H_    0.710274 0.447668 0.807047 0.152723
H37   H     H_    0.371989 0.519898 0.376677 0.166267
C43   C     C_R   0.735940 0.231796 0.534725 -0.346191
C44   C     C_R   0.833803 0.173302 0.549670 0.256353
C45   C     C_R   0.778642 0.081152 0.536498 -0.269196
C46   C     C_R   0.621407 0.047663 0.512491 0.101146
C47   C     C_R   0.532079 0.110959 0.494610 -0.229684
C48   C     C_R   0.594661 0.201917 0.502444 0.382558
C49   C     C_R   0.406683 0.915180 0.471992 -0.310337
C50   C     C_R   0.348138 0.824210 0.461133 0.262046
C51   C     C_R   0.582769 0.792594 0.511406 0.247209
C52   C     C_R   0.641230 0.884671 0.522899 -0.302838
C53   C     C_R   0.556896 0.948242 0.501953 0.098283
C54   C     C_R   0.441033 0.764725 0.478092 -0.228528
H38   H     H_    0.331022 0.957770 0.456929 0.157175
H39   H     H_    0.862093 0.037057 0.542929 0.146867
H40   H     H_    0.749440 0.905104 0.549534 0.147527
H41   H     H_    0.420046 0.091817 0.470368 0.136431
H42   H     H_    0.785143 0.299934 0.536789 0.159438
S1    S     S_3+6 0.906200 0.206709 0.402172 -0.081864
O29   O     O_2   0.751530 0.145493 0.404641 -0.369768
O30   O     O_2   0.041250 0.154839 0.405610 -0.366275
O31   O     O_3   0.930344 0.293976 0.454692 -0.538663
H43   H     H_    0.046631 0.306778 0.463811 0.411257
S2    S     S_3+6 0.921214 0.198383 0.216269 -0.035029
O32   O     O_2   0.907272 0.112277 0.175468 -0.257840
O33   O     O_2   0.791856 0.247522 0.199853 -0.286988
O34   O     O_3   0.101280 0.258808 0.209988 -0.488851
H44   H     H_    0.172075 0.215080 0.196543 0.367810
N3    N     N_2   0.684952 0.931072 0.372553 -0.130455
H45   H     H_    0.613008 0.979510 0.374544 0.236339
C55   C     C_3   0.852449 0.965091 0.386364 -0.711892
H46   H     H_    0.902554 0.004728 0.352722 0.253231
H47   H     H_    0.921672 0.910227 0.387759 0.265077
H48   H     H_    0.866005 0.006470 0.429550 0.292690
N4    N     N_2   0.504520 0.860793 0.293463 -0.103229
H49   H     H_    0.457696 0.799381 0.270888 0.203903
C56   C     C_3   0.505783 0.929528 0.256935 -0.865318
H50   H     H_    0.381029 0.932751 0.243114 0.253022
H51   H     H_    0.575368 0.914170 0.217689 0.256087
H52   H     H_    0.559503 0.995512 0.280507 0.260775
N5    N     N_2   0.392708 0.309084 0.317449 -0.132768
H53   H     H_    0.295351 0.302578 0.289655 0.214935
C57   C     C_3   0.538997 0.343435 0.291621 -0.802007
H54   H     H_    0.594362 0.288621 0.268830 0.265675
H55   H     H_    0.620843 0.384137 0.325873 0.283047
H56   H     H_    0.513668 0.386282 0.259340 0.234391
N6    N     N_2   0.969073 0.230123 0.697383 -0.112921
H57   H     H_    0.875585 0.239722 0.671535 0.113244
C58   C     C_3   0.066254 0.311364 0.724494 -0.718614
H58   H     H_    0.988108 0.353477 0.747244 0.250363
H59   H     H_    0.131235 0.347132 0.691545 0.276176
H60   H     H_    0.150809 0.297958 0.757569 0.239945
N7    N     N_2   0.461707 0.162791 0.702505 -0.112096
H61   H     H_    0.493732 0.114551 0.724680 0.212583
C59   C     C_3   0.494959 0.145463 0.641732 -0.819812
H62   H     H_    0.434813 0.077657 0.623149 0.245193
H63   H     H_    0.625286 0.149762 0.636805 0.191494
H64   H     H_    0.451277 0.194290 0.617319 0.302723
S3    S     S_3+6 0.598302 0.201742 0.834734 -0.018469
O35   O     O_2   0.506929 0.110306 0.837036 -0.279697
O36   O     O_2   0.754686 0.193781 0.806147 -0.260217
O37   O     O_3   0.633895 0.256245 0.902631 -0.496121
H65   H     H_    0.677518 0.214098 0.924467 0.377582
N8    N     N_2   0.349347 0.753186 0.070964 -0.066330
H66   H     H_    0.449028 0.748362 0.095477 0.220335
C60   C     C_3   0.259189 0.822995 0.092135 -0.638334
H67   H     H_    0.322594 0.887414 0.081897 0.260943
H68   H     H_    0.250323 0.827937 0.139918 0.218415
H69   H     H_    0.136741 0.810787 0.071649 0.230291
S4    S     S_3+6 0.323887 0.762474 0.943590 0.020306
O38   O     O_2   0.466414 0.815885 0.978393 -0.263704
O39   O     O_2   0.380557 0.726817 0.885294 -0.260569
O40   O     O_3   0.189735 0.829770 0.934755 -0.471919
H70   H     H_    0.242500 0.872297 0.910053 0.390547
N9    N     N_2   0.978318 0.431311 0.231091 -0.041690
H71   H     H_    0.912660 0.393458 0.257996 0.234441
C61   C     C_3   0.882951 0.464549 0.189353 -0.662526
H72   H     H_    0.878437 0.421570 0.146808 0.244438
H73   H     H_    0.928878 0.534706 0.184912 0.189409
H74   H     H_    0.756710 0.459765 0.202469 0.235965
N10   N     N_2   0.832396 0.462362 0.614026 -0.109518
H75   H     H_    0.785803 0.397495 0.601964 0.141311
C62   C     C_3   0.739385 0.525134 0.597248 -0.461387
H76   H     H_    0.678098 0.494404 0.556071 0.280652
H77   H     H_    0.817302 0.587675 0.593011 0.230498
H78   H     H_    0.649784 0.543242 0.629213 0.215810
N11   N     N_2   0.375189 0.675130 0.468343 -0.139948
H79   H     H_    0.443955 0.630744 0.449489 0.198133
C63   C     C_3   0.274419 0.649729 0.513875 -0.479683
H80   H     H_    0.207217 0.585043 0.496007 0.287473
H81   H     H_    0.189080 0.696741 0.525999 0.220046
H82   H     H_    0.342148 0.647960 0.553870 0.228239
N12   N     N_2   0.969178 0.790948 0.247415 -0.058497
H83   H     H_    0.005322 0.858271 0.260202 0.205006
C64   C     C_3   0.883746 0.770216 0.191704 -0.751506
H84   H     H_    0.789530 0.812677 0.190574 0.231295
H85   H     H_    0.824712 0.699537 0.184564 0.254070
H86   H     H_    0.966984 0.782518 0.156345 0.233149

loop_
_geom_bond_atom_site_label_1
_geom_bond_atom_site_label_2
_geom_bond_distance
_ccdc_geom_bond_type
C10   H19   1.114983 S    
Ba1   O20   2.976524 S    
N6    H57   1.029810 S    
C61   H73   1.108170 S    
C56   H51   1.111135 S    
C2    C3    1.527515 S    
H32   C28   1.083425 S    
C62   H76   1.092528 S    
Ba1   O13   2.784760 S    
C40   C41   1.455286 A    
O6    C10   1.405247 S    
N7    H61   1.030199 S    
C51   C52   1.411034 A    
O34   H44   0.990447 S    
C46   C47   1.426087 A    
C58   H59   1.109667 S    
P3    C50   1.875601 S    
C64   H84   1.109683 S    
C37   C38   1.394778 A    
N2    C41   1.483000 S    
N9    H71   1.025962 S    
S1    O30   1.500723 D    
C5    H8    1.110567 S    
N2    C31   1.395955 Am   
C49   C50   1.394920 A    
S4    O40   1.681745 S    
S2    O32   1.503568 D    
C12   H22   1.108539 S    
C8    H14   1.110368 S    
N3    C55   1.446391 S    
C2    H3    1.107724 S    
C11   N5    1.454992 S    
C55   H47   1.104504 S    
C20   C21   1.414374 A    
C19   N1    1.388433 Am   
C64   H86   1.108272 S    
P2    O7    1.550915 D    
C35   C36   1.527617 S    
C49   C53   1.425981 A    
C11   C12   1.530152 S    
C26   C29   1.414475 A    
C22   C26   1.433798 A    
C60   H67   1.109410 S    
S4    O39   1.504230 D    
P1    O1    1.542619 D    
P4    C34   1.904317 S    
C4    C5    1.521291 S    
N8    H66   1.030884 S    
C30   N2    1.384017 Am   
N3    H45   1.030502 S    
C39   C40   1.461156 A    
C18   C23   1.431104 A    
O12   Ba2   2.829743 S    
P4    Ba2   3.430275 S    
P5    O18   1.539948 D    
N5    H53   1.024672 S    
P2    Ba1   3.448318 S    
C60   H68   1.109647 S    
C13   H25   1.111579 S    
S3    O36   1.503079 D    
P8    O23   1.544556 D    
P3    O11   1.756421 S    
C63   H82   1.093905 S    
C4    H6    1.110450 S    
C16   S3    1.792748 S    
C14   H26   1.111360 S    
C1    C10   1.535793 S    
C6    S1    1.747039 S    
Ba2   O21   2.879889 S    
C1    H2    1.106716 S    
P8    O24   1.755985 S    
O19   C13   1.416259 S    
C25   C31   1.440064 A    
C61   H74   1.108800 S    
C13   N6    1.447413 S    
P5    O17   1.785721 S    
O5    C6    1.396428 S    
O13   Ba2   2.979393 S    
N10   H75   1.011730 S    
N6    C58   1.440396 S    
O16   P7    1.780399 S    
C59   H62   1.110344 S    
C3    H5    1.109189 S    
C3    H24   1.103944 S    
C56   H52   1.108047 S    
C62   H77   1.095201 S    
S2    O34   1.674813 S    
O8    Ba1   2.838637 S    
H1    C10   1.111796 S    
C57   H55   1.102317 S    
C18   C22   1.416092 A    
C11   O22   1.409050 S    
C27   C28   1.393791 A    
C9    H18   1.109673 S    
N8    C60   1.447419 S    
C64   H85   1.111268 S    
S1    O31   1.667233 S    
C56   H50   1.110225 S    
O17   Ba2   2.839199 S    
C4    O15   1.409857 S    
C63   H80   1.088293 S    
O7    Ba1   2.879773 S    
O31   H43   0.986636 S    
C9    H17   1.110600 S    
C55   H48   1.105487 S    
C21   C22   1.410797 A    
C16   H31   1.108346 S    
N1    C36   1.480408 S    
Ba2   O20   2.863534 S    
C43   C48   1.382375 A    
N9    C61   1.453126 S    
C11   H20   1.095757 S    
C18   C19   1.443925 A    
C42   N10   1.385924 S    
C1    N3    1.451885 S    
C17   C39   1.393059 A    
P1    O5    1.778485 S    
P6    C38   1.833791 S    
C12   H21   1.111030 S    
P1    O2    1.551950 S    
P7    O22   1.762124 S    
O2    Ba1   2.978530 S    
C15   H29   1.110018 S    
C45   H39   1.076426 S    
C31   O28   1.217418 D    
P1    C39   1.908672 S    
C33   C42   1.508861 S    
N7    C59   1.442915 S    
P2    O10   1.752610 S    
O4    P6    1.539308 D    
C6    H11   1.101167 S    
P3    O9    1.548313 D    
C49   H38   1.074667 S    
S3    O37   1.681169 S    
C14   H28   1.110476 S    
C6    C7    1.549896 S    
O11   C2    1.405983 S    
C23   C24   1.429364 A    
C58   H58   1.087912 S    
Ba1   Ba2   4.635497 S    
C21   C27   1.408207 A    
P4    O13   1.551923 S    
N10   C62   1.430039 S    
C44   C45   1.409231 A    
C59   H63   1.102548 S    
C40   N9    1.433455 S    
C58   H60   1.107523 S    
N12   C64   1.447427 S    
Ba1   O16   2.864193 S    
P3    O8    1.776240 S    
S3    O35   1.503389 D    
C12   H23   1.109230 S    
C46   C53   1.524672 S    
C15   N7    1.454049 S    
C62   H78   1.108436 S    
S2    O33   1.499607 D    
C16   H30   1.110060 S    
C32   H36   1.082696 S    
N4    C56   1.448563 S    
C54   N11   1.388447 S    
C51   C54   1.394121 A    
O14   P8    1.806144 S    
C57   H56   1.108732 S    
O37   H65   0.990490 S    
P8    C33   1.933828 S    
C52   C53   1.432558 A    
C34   C35   1.345923 D    
C59   H64   1.108825 S    
O40   H70   0.990662 S    
N11   H79   1.021627 S    
C47   H41   1.074756 S    
O3    P6    1.734337 S    
C19   O25   1.218870 D    
C34   C42   1.326750 D    
C8    C9    1.521487 S    
C30   O27   1.218473 D    
C14   H27   1.101854 S    
C60   H69   1.112125 S    
C45   C46   1.425007 A    
C7    S2    1.781974 S    
S1    O29   1.493969 D    
C5    H9    1.110438 S    
C17   C38   1.389744 A    
O6    P6    1.743240 S    
C29   C30   1.418314 A    
O1    Ba1   2.829162 S    
P7    O21   1.577202 D    
C37   H34   1.083234 S    
C8    H15   1.111183 S    
N5    C57   1.441310 S    
C25   C26   1.408573 A    
C35   H35   1.084977 S    
C57   H54   1.102455 S    
C55   H46   1.109278 S    
O10   C8    1.410052 S    
C3    N12   1.445142 S    
O2    Ba2   2.785370 S    
P7    C48   1.861098 S    
C15   C16   1.539961 S    
P4    O12   1.542913 D    
C17   H37   1.078623 S    
O16   Ba2   2.975585 S    
O14   Ba2   2.784708 S    
N12   H83   1.031974 S    
P1    Ba1   3.429636 S    
C7    H13   1.109149 S    
C7    H12   1.110702 S    
P2    C51   1.893467 S    
C2    H4    1.113215 S    
C4    H7    1.111195 S    
C24   C25   1.430808 A    
C15   O24   1.414680 S    
C50   C54   1.390753 A    
C52   H40   1.077613 S    
C1    N4    1.454209 S    
C61   H72   1.106934 S    
C9    H16   1.111069 S    
C23   S4    1.794210 S    
C37   C41   1.405737 A    
P5    O19   1.761006 S    
N1    C20   1.389189 Am   
C5    H10   1.109904 S    
C13   C14   1.529618 S    
C28   C29   1.404959 A    
H33   C27   1.082828 S    
C32   C33   1.519812 S    
C63   H81   1.111564 S    
C43   C44   1.390788 A    
S4    O38   1.503109 D    
C32   C36   1.366426 D    
C24   N8    1.424811 S    
P5    C44   1.867773 S    
C43   H42   1.059481 S    
C20   O26   1.219428 D    
P2    O20   1.597410 S    
N11   C63   1.429158 S    
P4    O15   1.752748 S    
O3    Ba1   2.785374 S    
C47   C48   1.401277 A    
N4    H49   1.030102 S    
