data_mof_unit_56541.cif
_audit_creation_date              2012-12-11T14:39:25-0500
_audit_creation_method            fapswitch 2.2
_symmetry_space_group_name_H-M    P1
_symmetry_Int_Tables_number       1
_space_group_crystal_system       triclinic
_cell_length_a                    7.209966
_cell_length_b                    14.123895
_cell_length_c                    16.352137
_cell_angle_alpha                 90.00047
_cell_angle_beta                  97.270737
_cell_angle_gamma                 90.000225
_cell_volume                      1651.79454642

loop_
_atom_site_label
_atom_site_type_symbol
_atom_type_description
_atom_site_fract_x
_atom_site_fract_y
_atom_site_fract_z
_atom_type_partial_charge
O1    O     O_R   0.525340 0.338340 0.164530 -0.491049
O2    O     O_R   0.474660 0.661660 0.835470 -0.491049
O3    O     O_R   0.974660 0.838340 0.835470 -0.491071
O4    O     O_R   0.025340 0.161660 0.164530 -0.491071
O5    O     O_R   0.253520 0.352000 0.336710 -0.554104
O6    O     O_R   0.746480 0.648000 0.663290 -0.554104
O7    O     O_R   0.246480 0.852000 0.663290 -0.554106
O8    O     O_R   0.753520 0.148000 0.336710 -0.554106
O9    O     O_R   0.083330 0.168380 0.337300 -0.544172
O10   O     O_R   0.916670 0.831620 0.662700 -0.544172
O11   O     O_R   0.416670 0.668380 0.662700 -0.544142
O12   O     O_R   0.583330 0.331620 0.337300 -0.544142
C1    C     C_R   0.432323 0.368747 0.363740 0.646559
C2    C     C_R   0.567677 0.631253 0.636260 0.646559
C3    C     C_R   0.067677 0.868746 0.636259 0.646530
C4    C     C_R   0.932323 0.131254 0.363741 0.646529
O13   O     O_R   0.195840 0.349670 0.165140 -0.529268
O14   O     O_R   0.804160 0.650330 0.834860 -0.529268
O15   O     O_R   0.304160 0.849670 0.834860 -0.529337
O16   O     O_R   0.695840 0.150330 0.165140 -0.529337
C5    C     C_R   0.357628 0.371755 0.137750 0.793680
C6    C     C_R   0.642372 0.628244 0.862250 0.793680
C7    C     C_R   0.142373 0.871753 0.862252 0.793603
C8    C     C_R   0.857627 0.128247 0.137747 0.793603
O17   O     O_3   0.387830 0.193120 0.250910 -0.369599
O18   O     O_3   0.612170 0.806880 0.749090 -0.369599
O19   O     O_3   0.112170 0.693120 0.749090 -0.369505
O20   O     O_3   0.887830 0.306880 0.250910 -0.369505
V1    V     V_3+5 0.113010 0.264540 0.250910 1.569624
V2    V     V_3+5 0.886990 0.735460 0.749090 1.569624
V3    V     V_3+5 0.386990 0.764540 0.749090 1.569533
V4    V     V_3+5 0.613010 0.235460 0.250910 1.569532
C9    C     C_R   0.080695 0.194943 0.526520 -0.267845
C10   C     C_R   0.919305 0.805057 0.473480 -0.267845
C11   C     C_R   0.419379 0.694949 0.473477 -0.267859
C12   C     C_R   0.580621 0.305051 0.526523 -0.267859
C13   C     C_R   0.151920 0.227657 0.604571 -0.201619
C14   C     C_R   0.848080 0.772343 0.395429 -0.201619
C15   C     C_R   0.348174 0.727665 0.395424 -0.201639
C16   C     C_R   0.651826 0.272335 0.604576 -0.201639
C17   C     C_R   0.183869 0.164815 0.670220 0.725880
C18   C     C_R   0.816131 0.835185 0.329780 0.725880
C19   C     C_R   0.316212 0.664822 0.329775 0.725926
C20   C     C_R   0.683788 0.335178 0.670225 0.725926
C21   C     C_R   0.144635 0.068791 0.658203 -0.233213
C22   C     C_R   0.855365 0.931209 0.341797 -0.233213
C23   C     C_R   0.355415 0.568794 0.341793 -0.233151
C24   C     C_R   0.644585 0.431205 0.658207 -0.233151
C25   C     C_R   0.073908 0.033378 0.579364 -0.031902
C26   C     C_R   0.926092 0.966622 0.420635 -0.031902
C27   C     C_R   0.426121 0.533381 0.420633 -0.031921
C28   C     C_R   0.573879 0.466619 0.579367 -0.031921
C29   C     C_R   0.041357 0.097600 0.512257 0.060307
C30   C     C_R   0.958643 0.902400 0.487743 0.060307
C31   C     C_R   0.458679 0.597603 0.487741 0.060298
C32   C     C_R   0.541321 0.402397 0.512259 0.060298
C33   C     C_R   0.032430 0.935965 0.566944 -0.095951
C34   C     C_R   0.967570 0.064035 0.433056 -0.095951
C35   C     C_R   0.467567 0.435965 0.433055 -0.095937
C36   C     C_R   0.532433 0.564035 0.566945 -0.095937
H1    H     H_    0.055792 0.247053 0.477905 0.148078
H2    H     H_    0.944207 0.752947 0.522095 0.148078
H3    H     H_    0.444295 0.747059 0.522092 0.148073
H4    H     H_    0.555705 0.252941 0.477908 0.148073
H5    H     H_    0.181534 0.302285 0.614143 0.157405
H6    H     H_    0.818466 0.697715 0.385856 0.157405
H7    H     H_    0.318588 0.802295 0.385851 0.157393
H8    H     H_    0.681411 0.197705 0.614149 0.157393
H9    H     H_    0.169270 0.022909 0.711442 0.131953
H10   H     H_    0.830730 0.977091 0.288558 0.131953
H11   H     H_    0.330769 0.522911 0.288554 0.131976
H12   H     H_    0.669231 0.477089 0.711446 0.131976
C37   C     C_2   0.147760 0.941887 0.929860 -0.325528
C38   C     C_2   0.852240 0.058113 0.070140 -0.325528
C39   C     C_2   0.352216 0.441841 0.070103 -0.325421
C40   C     C_2   0.647784 0.558159 0.929897 -0.325421
C41   C     C_2   0.994664 0.964775 0.966311 0.539357
C42   C     C_2   0.005336 0.035225 0.033689 0.539357
C43   C     C_2   0.505388 0.464855 0.033752 0.539348
C44   C     C_2   0.494612 0.535145 0.966248 0.539348
H13   H     H_    0.718629 0.024918 0.049373 0.173353
H14   H     H_    0.281371 0.975082 0.950627 0.173353
H15   H     H_    0.781503 0.525146 0.950806 0.173400
H16   H     H_    0.218497 0.474854 0.049194 0.173400
F1    F     F_    0.747844 0.802872 0.253819 -0.630268
F2    F     F_    0.252155 0.197128 0.746181 -0.630268
F3    F     F_    0.752059 0.302865 0.746188 -0.630270
F4    F     F_    0.247941 0.697135 0.253812 -0.630270
F5    F     F_    0.173779 0.077072 0.057644 -0.671697
F6    F     F_    0.826221 0.922928 0.942356 -0.671698
F7    F     F_    0.325985 0.576700 0.942067 -0.671700
F8    F     F_    0.674015 0.423300 0.057933 -0.671699

loop_
_geom_bond_atom_site_label_1
_geom_bond_atom_site_label_2
_ccdc_geom_bond_type
O1    C5    A    
O13   V1    S    
O3    C7    A    
C6    C40   S    
O15   V3    S    
C41   C42   S    
C17   F2    S    
C26   C30   A    
C19   F4    S    
O20   V1    S    
O9    C4    A    
C24   H12   S    
C14   C18   A    
O10   C3    A    
O4    C8    A    
O11   C2    A    
C39   H16   S    
C10   H2    S    
C25   C33   A    
C18   C22   A    
C28   C36   A    
C14   H6    S    
C13   H5    S    
O2    C6    A    
O14   V2    S    
C20   F3    S    
C16   C20   A    
O5    C1    A    
O4    V1    S    
O9    V1    S    
O17   V4    S    
O7    C3    A    
O11   V3    S    
O18   V3    S    
O8    C4    A    
C10   C14   A    
C31   C36   A    
O12   V4    S    
O19   V2    S    
C3    C33   S    
C7    C37   S    
C40   H15   S    
O5    V1    S    
C42   F5    S    
C9    C29   A    
C41   F6    S    
O7    V3    S    
C21   H9    S    
C26   C34   A    
O16   C8    A    
C12   C16   A    
O15   C7    A    
C23   C27   A    
C11   C31   A    
O1    V4    S    
O13   C5    A    
O2    V3    S    
O8    V4    S    
O3    V2    S    
C11   C15   A    
C12   C32   A    
O6    C2    A    
O10   V2    S    
C21   C25   A    
C18   F1    S    
C4    C34   S    
C23   H11   S    
C43   F8    S    
O6    V2    S    
C10   C30   A    
C16   H8    S    
C27   C35   A    
C38   H13   S    
C37   H14   S    
O16   V4    S    
C22   C26   A    
C17   C21   A    
O14   C6    A    
C15   H7    S    
C40   C44   D    
C15   C19   A    
C29   C34   A    
C1    C35   S    
C2    C36   S    
C5    C39   S    
C32   C35   A    
C44   F7    S    
C8    C38   S    
C39   C43   D    
C25   C29   A    
C27   C31   A    
C13   C17   A    
C9    C13   A    
C22   H10   S    
C43   C44   S    
C28   C32   A    
C24   C28   A    
O12   C1    A    
C9    H1    S    
C38   C42   D    
C37   C41   D    
C11   H3    S    
C12   H4    S    
C19   C23   A    
C20   C24   A    
C30   C33   A    
