data_mof_unit_67410.cif
_audit_creation_date              2013-03-05T15:39:48-0500
_audit_creation_method            fapswitch 2.2
_symmetry_space_group_name_H-M    P1
_symmetry_Int_Tables_number       1
_space_group_crystal_system       triclinic
_cell_length_a                    12.062153
_cell_length_b                    12.587221
_cell_length_c                    7.48417
_cell_angle_alpha                 89.499152
_cell_angle_beta                  107.86696
_cell_angle_gamma                 90.100756
_cell_volume                      1081.4693754

loop_
_atom_site_label
_atom_site_type_symbol
_atom_site_description
_atom_site_fract_x
_atom_site_fract_y
_atom_site_fract_z
_atom_type_partial_charge
O1    O     O_R   0.398880 0.887420 0.621600 -0.538935
O2    O     O_R   0.601120 0.112580 0.378400 -0.538971
O3    O     O_R   0.601120 0.887420 0.378400 -0.573639
O4    O     O_R   0.398880 0.112580 0.621600 -0.573546
O5    O     O_R   0.898880 0.387420 0.621600 -0.538949
O6    O     O_R   0.101120 0.612580 0.378400 -0.538960
O7    O     O_R   0.101120 0.387420 0.378400 -0.573623
O8    O     O_R   0.898880 0.612580 0.621600 -0.573550
O9    O     O_R   0.369080 0.887420 0.305440 -0.592103
O10   O     O_R   0.630920 0.112580 0.694560 -0.591997
O11   O     O_R   0.630920 0.887420 0.694560 -0.630061
O12   O     O_R   0.369080 0.112580 0.305440 -0.630082
O13   O     O_R   0.869080 0.387420 0.305440 -0.592094
O14   O     O_R   0.130920 0.612580 0.694560 -0.592017
O15   O     O_R   0.130920 0.387420 0.694560 -0.630063
O16   O     O_R   0.869080 0.612580 0.305440 -0.630080
C1    C     C_R   0.344687 0.856037 0.454089 0.843842
C2    C     C_R   0.655312 0.143964 0.545912 0.843747
C3    C     C_R   0.654892 0.855356 0.546339 0.841117
C4    C     C_R   0.345111 0.144647 0.453661 0.841120
C5    C     C_R   0.844688 0.356035 0.454090 0.843820
C6    C     C_R   0.155311 0.643965 0.545912 0.843758
C7    C     C_R   0.154892 0.355356 0.546339 0.841128
C8    C     C_R   0.845111 0.644647 0.453661 0.841099
Cu1   Cu    Cu3+1 0.517640 0.000000 0.687200 0.996432
Cu2   Cu    Cu3+1 0.482360 0.000000 0.312800 0.996359
Cu3   Cu    Cu3+1 0.017640 0.500000 0.687200 0.996419
Cu4   Cu    Cu3+1 0.982360 0.500000 0.312800 0.996366
C9    C     C_2   0.246927 0.212637 0.433751 -0.009241
C10   C     C_2   0.753080 0.787370 0.566244 -0.009136
C11   C     C_2   0.753309 0.211845 0.565739 0.005653
C12   C     C_2   0.246687 0.788158 0.434268 0.005721
C13   C     C_2   0.746926 0.712635 0.433752 -0.009239
C14   C     C_2   0.253079 0.287369 0.566246 -0.009167
C15   C     C_2   0.253308 0.711846 0.565738 0.005623
C16   C     C_2   0.746689 0.288158 0.434270 0.005728
N1    N     N_2   0.455760 0.000000 0.031460 0.119933
N2    N     N_2   0.544240 1.000000 0.968540 0.119940
N3    N     N_2   0.955760 0.500000 0.031460 0.119933
N4    N     N_2   0.044240 0.500000 0.968540 0.119934
C17   C     C_3   0.635451 0.684148 0.280353 -0.886394
H1    H     H_    0.642175 0.605151 0.219809 0.206066
H2    H     H_    0.561169 0.679530 0.338418 0.231593
H3    H     H_    0.616791 0.743256 0.164085 0.259431
C18   C     C_3   0.364551 0.315849 0.719658 -0.886233
H4    H     H_    0.357831 0.394848 0.780200 0.206040
H5    H     H_    0.383199 0.256740 0.835924 0.259429
H6    H     H_    0.438840 0.320462 0.661607 0.231561
C19   C     C_3   0.364483 0.683160 0.720561 -0.853204
H7    H     H_    0.358867 0.602742 0.778976 0.201871
H8    H     H_    0.439908 0.681675 0.664928 0.216579
H9    H     H_    0.380471 0.740490 0.837536 0.290710
C20   C     C_3   0.635509 0.316857 0.279479 -0.853164
H10   H     H_    0.641122 0.397282 0.221100 0.201824
H11   H     H_    0.619511 0.259543 0.162482 0.290728
H12   H     H_    0.560091 0.318330 0.335125 0.216561
C21   C     C_3   0.135455 0.184155 0.280342 -0.886379
H13   H     H_    0.142177 0.105157 0.219800 0.206064
H14   H     H_    0.061169 0.179541 0.338397 0.231588
H15   H     H_    0.116803 0.243263 0.164075 0.259431
C22   C     C_3   0.864556 0.815858 0.719639 -0.886242
H16   H     H_    0.857834 0.894858 0.780176 0.206038
H17   H     H_    0.883213 0.756752 0.835911 0.259429
H18   H     H_    0.938839 0.820472 0.661576 0.231572
C23   C     C_3   0.864483 0.183159 0.720565 -0.853212
H19   H     H_    0.858861 0.102749 0.779010 0.201870
H20   H     H_    0.939905 0.181655 0.664924 0.216592
H21   H     H_    0.880480 0.240500 0.837524 0.290720
C24   C     C_3   0.135506 0.816855 0.279469 -0.853117
H22   H     H_    0.141114 0.897283 0.221089 0.201826
H23   H     H_    0.119513 0.759541 0.162470 0.290716
H24   H     H_    0.060085 0.818326 0.335114 0.216551
O17   O     O_3   0.360389 0.954674 0.914249 -0.474310
C25   C     C_3   0.263217 0.014698 0.919015 0.221162
H25   H     H_    0.278490 0.101545 0.908593 0.131599
H26   H     H_    0.241359 0.997439 0.049263 0.155335
C26   C     C_3   0.159065 0.983722 0.753576 -0.876178
H27   H     H_    0.143039 0.896954 0.757948 0.255790
H28   H     H_    0.080310 0.026988 0.760032 0.203134
H29   H     H_    0.175715 0.004050 0.619381 0.253701
O18   O     O_3   0.639587 0.045391 0.085693 -0.474283
C27   C     C_3   0.736775 0.985331 0.081112 0.221093
H30   H     H_    0.758616 0.002424 0.950790 0.155310
H31   H     H_    0.721528 0.898502 0.091853 0.131575
C28   C     C_3   0.840925 0.016475 0.246419 -0.876126
H32   H     H_    0.824207 0.996499 0.380702 0.253769
H33   H     H_    0.919650 0.973028 0.240300 0.203134
H34   H     H_    0.857042 0.103203 0.241517 0.255727
O19   O     O_3   0.860385 0.454675 0.914244 -0.474310
C29   C     C_3   0.763219 0.514716 0.919005 0.221195
H35   H     H_    0.778513 0.601569 0.908641 0.131580
H36   H     H_    0.741333 0.497435 0.049236 0.155283
C30   C     C_3   0.659080 0.483774 0.753503 -0.875977
H37   H     H_    0.642962 0.397016 0.757942 0.255697
H38   H     H_    0.580350 0.527140 0.759837 0.203108
H39   H     H_    0.675812 0.504015 0.619315 0.253721
O20   O     O_3   0.139593 0.545380 0.085706 -0.474284
C31   C     C_3   0.236777 0.485326 0.081087 0.221097
H40   H     H_    0.258619 0.502449 0.950775 0.155320
H41   H     H_    0.221527 0.398494 0.091774 0.131580
C32   C     C_3   0.340929 0.516442 0.246414 -0.876153
H42   H     H_    0.324223 0.496413 0.380682 0.253763
H43   H     H_    0.419658 0.473024 0.240243 0.203143
H44   H     H_    0.357031 0.603175 0.241593 0.255740

loop_
_geom_bond_atom_site_label_1
_geom_bond_atom_site_label_2
_geom_bond_distance
_ccdc_geom_bond_type
O16   Cu4   1.958937 S    
C30   H37   1.110880 S    
O2    C2    1.288399 A    
O17   C25   1.405403 S    
C20   H11   1.109626 S    
O18   C27   1.405413 S    
C21   H13   1.109660 S    
C5    C16   1.428418 S    
C28   H32   1.110708 S    
C20   H12   1.110871 S    
C6    C15   1.428414 S    
O11   C3    1.296975 A    
C32   H42   1.110680 S    
C25   H26   1.104876 S    
C28   H34   1.110765 S    
O11   Cu1   1.958937 S    
O6    C6    1.288398 A    
C24   H23   1.109651 S    
C17   H1    1.109661 S    
C22   H17   1.109277 S    
C27   H31   1.114283 S    
C16   C20   1.520564 S    
O5    Cu3   1.968415 S    
C29   H36   1.104970 S    
O6    Cu4   1.968413 S    
C19   H8    1.110883 S    
C25   C26   1.521715 S    
C15   C19   1.520599 S    
O13   Cu4   1.956156 S    
O3    C3    1.286528 A    
O14   Cu3   1.956154 S    
C19   H9    1.109656 S    
C26   H28   1.109861 S    
C32   H43   1.109870 S    
O1    Cu1   1.968415 S    
C17   H2    1.110556 S    
C24   H22   1.109291 S    
O9    Cu2   1.956156 S    
O20   C31   1.405423 S    
C4    C9    1.431866 S    
C18   H5    1.109280 S    
C25   H25   1.114286 S    
C28   H33   1.109885 S    
C12   C15   1.353783 D    
N3    N4    1.291967 D    
C21   H15   1.109275 S    
C18   H6    1.110565 S    
Cu4   N3    2.030254 S    
C23   H20   1.110892 S    
Cu1   Cu2   2.702039 S    
C26   H27   1.110751 S    
C9    C14   1.358156 D    
C27   H30   1.104906 S    
O7    Cu4   1.965861 S    
O12   Cu2   1.958937 S    
C24   H24   1.110887 S    
N1    N2    1.291967 D    
Cu1   N2    2.030255 S    
O15   Cu3   1.958937 S    
Cu3   N4    2.030255 S    
C23   H21   1.109650 S    
O12   C4    1.296966 A    
O13   C5    1.293477 A    
O2    Cu2   1.968413 S    
C14   C18   1.520827 S    
O10   Cu1   1.956154 S    
O9    C1    1.293476 A    
C9    C21   1.520822 S    
C31   H40   1.104909 S    
C32   H44   1.110740 S    
C31   H41   1.114285 S    
N2    O18   1.343728 S    
C1    C12   1.428424 S    
C17   H3    1.109275 S    
C31   C32   1.521702 S    
O4    Cu1   1.965860 S    
N4    O20   1.343748 S    
C29   C30   1.521767 S    
C26   H29   1.110679 S    
C11   C23   1.520598 S    
N1    O17   1.343738 S    
C7    C14   1.431874 S    
C10   C13   1.358155 D    
O3    Cu2   1.965861 S    
Cu2   N1    2.030254 S    
C20   H10   1.109269 S    
C12   C24   1.520594 S    
C30   H39   1.110831 S    
C27   C28   1.521699 S    
O1    C1    1.288392 A    
C8    C13   1.431866 S    
C13   C17   1.520823 S    
O14   C6    1.293466 A    
C22   H18   1.110564 S    
C29   H35   1.114371 S    
C30   H38   1.109925 S    
O10   C2    1.293465 A    
O7    C7    1.286530 A    
O15   C7    1.296972 A    
O8    C8    1.286532 A    
C23   H19   1.109318 S    
C22   H16   1.109664 S    
C21   H14   1.110555 S    
O4    C4    1.286532 A    
C18   H4    1.109663 S    
O5    C5    1.288389 A    
O16   C8    1.296967 A    
C19   H7    1.109296 S    
C10   C22   1.520823 S    
Cu3   Cu4   2.702039 S    
O8    Cu3   1.965860 S    
C11   C16   1.353782 D    
C2    C11   1.428416 S    
O19   C29   1.405454 S    
C3    C10   1.431874 S    
N3    O19   1.343779 S    
