data_mof_unit_64463.cif
_audit_creation_date              2013-03-05T16:38:17-0500
_audit_creation_method            fapswitch 2.2
_symmetry_space_group_name_H-M    P1
_symmetry_Int_Tables_number       1
_space_group_crystal_system       triclinic
_cell_length_a                    15.758424
_cell_length_b                    19.334666
_cell_length_c                    18.502385
_cell_angle_alpha                 89.399423
_cell_angle_beta                  89.948299
_cell_angle_gamma                 91.080071
_cell_volume                      5636.0635182

loop_
_atom_site_label
_atom_site_type_symbol
_atom_site_description
_atom_site_fract_x
_atom_site_fract_y
_atom_site_fract_z
_atom_type_partial_charge
O1    O     O_R   0.500000 0.398180 0.560840 -0.619440
O2    O     O_R   0.500000 0.601820 0.439160 -0.619444
O3    O     O_R   0.499960 0.398180 0.439210 -0.627177
O4    O     O_R   0.500040 0.601820 0.560790 -0.627168
C1    C     C_R   0.502017 0.365711 0.500533 0.893382
C2    C     C_R   0.497980 0.634288 0.499467 0.893374
O5    O     O_R   0.376800 0.500000 0.560800 -0.616278
O6    O     O_R   0.623200 0.500000 0.439200 -0.616274
O7    O     O_R   0.376760 0.499990 0.439180 -0.611984
O8    O     O_R   0.623240 0.500010 0.560820 -0.611986
C3    C     C_R   0.337902 0.499884 0.500021 0.906531
C4    C     C_R   0.662097 0.500116 0.499979 0.906536
Zn1   Zn    Zn3+2 0.500030 0.500000 0.581210 0.982807
Zn2   Zn    Zn3+2 0.499970 0.500000 0.418790 0.982801
C5    C     C_3   0.970209 0.436262 0.515150 0.585692
C6    C     C_3   0.029791 0.563739 0.484850 0.585692
C7    C     C_3   0.027173 0.455989 0.450123 0.587737
C8    C     C_3   0.972827 0.544012 0.549877 0.587736
C9    C     C_1   0.249279 0.499821 0.500077 -0.126492
C10   C     C_1   0.750721 0.500179 0.499923 -0.126496
C11   C     C_3   0.026977 0.480062 0.565433 -0.360104
C12   C     C_3   0.973023 0.519939 0.434567 -0.360105
C13   C     C_3   0.083598 0.499784 0.500418 -0.276367
C14   C     C_3   0.916403 0.500217 0.499582 -0.276367
C15   C     C_1   0.174208 0.499796 0.500157 0.167904
C16   C     C_1   0.825791 0.500205 0.499843 0.167903
C17   C     C_R   0.459033 0.746405 0.439274 -0.073663
C18   C     C_R   0.540902 0.253582 0.560742 -0.073638
C19   C     C_R   0.459681 0.818873 0.440255 -0.007786
C20   C     C_R   0.540255 0.181115 0.559749 -0.007825
C21   C     C_R   0.494246 0.853612 0.500203 0.100559
C22   C     C_R   0.505745 0.146385 0.499774 0.100575
C23   C     C_R   0.527144 0.816797 0.559293 0.016957
C24   C     C_R   0.472901 0.183209 0.440668 0.016988
C25   C     C_R   0.526697 0.745233 0.558011 -0.220282
C26   C     C_R   0.473347 0.254772 0.441960 -0.220273
H1    H     H_    0.552850 0.717221 0.603586 0.174467
H2    H     H_    0.447237 0.282790 0.396370 0.174469
C27   C     C_R   0.494229 0.709627 0.498323 -0.102477
C28   C     C_R   0.505761 0.290370 0.501674 -0.102497
C29   C     C_R   0.573093 0.963290 0.483284 -0.330812
C30   C     C_R   0.426895 0.036708 0.516680 -0.330806
H3    H     H_    0.629458 0.934693 0.470202 0.208017
H4    H     H_    0.370530 0.065306 0.529763 0.208020
C31   C     C_R   0.576185 0.034944 0.482586 0.699023
C32   C     C_R   0.423803 0.965054 0.517379 0.699011
C33   C     C_R   0.502973 0.071345 0.499323 -0.162632
C34   C     C_R   0.497015 0.928653 0.500642 -0.162628
C35   C     C_R   0.554530 0.542430 0.726614 -0.055227
C36   C     C_R   0.445471 0.457568 0.273387 -0.055230
C37   C     C_R   0.554513 0.542834 0.802700 0.536960
C38   C     C_R   0.445488 0.457164 0.197301 0.536958
C39   C     C_R   0.498720 0.499039 0.841884 -0.092357
C40   C     C_R   0.501279 0.500961 0.158116 -0.092356
C41   C     C_R   0.442973 0.455355 0.802758 -0.186534
C42   C     C_R   0.557025 0.544646 0.197242 -0.186538
C43   C     C_R   0.445072 0.456500 0.726146 0.046735
C44   C     C_R   0.554927 0.543501 0.273853 0.046720
N1    N     N_R   0.500010 0.499980 0.689440 -0.164283
N2    N     N_R   0.499990 0.500020 0.310560 -0.164283
C45   C     C_R   0.513722 0.438504 0.963120 -0.167380
C46   C     C_R   0.486276 0.561495 0.036880 -0.167382
H5    H     H_    0.525210 0.390461 0.935508 0.158096
H6    H     H_    0.474789 0.609538 0.064492 0.158092
C47   C     C_R   0.513811 0.438943 0.039050 -0.075310
C48   C     C_R   0.486187 0.561057 0.960950 -0.075311
H7    H     H_    0.525320 0.391253 0.068342 0.170291
H8    H     H_    0.474678 0.608747 0.931658 0.170289
C49   C     C_R   0.500409 0.500489 0.076928 0.166854
C50   C     C_R   0.499589 0.499511 0.923071 0.166854
F1    F     F_    0.056515 0.410492 0.399060 -0.584209
F2    F     F_    0.943485 0.589509 0.600940 -0.584210
C51   C     C_1   0.614252 0.586450 0.688264 0.366624
N3    N     N_1   0.662811 0.621809 0.657916 -0.161099
C52   C     C_1   0.385753 0.413545 0.311737 0.366610
N4    N     N_1   0.337197 0.378184 0.342086 -0.161087
F3    F     F_    0.610184 0.584760 0.838409 -0.642800
F4    F     F_    0.389819 0.415237 0.161592 -0.642802
C53   C     C_1   0.381978 0.411137 0.840642 0.215423
N5    N     N_1   0.333258 0.375847 0.870874 -0.134485
C54   C     C_1   0.618019 0.588864 0.159357 0.215419
N6    N     N_1   0.666738 0.624155 0.129125 -0.134486
C55   C     C_1   0.389052 0.411084 0.686164 0.287694
N7    N     N_1   0.343897 0.374390 0.654647 -0.186646
C56   C     C_1   0.610945 0.588917 0.313836 0.287691
N8    N     N_1   0.656100 0.625612 0.345352 -0.186640
F5    F     F_    0.938179 0.370646 0.530418 -0.585679
F6    F     F_    0.061822 0.629355 0.469582 -0.585680
C57   C     C_1   0.942757 0.541742 0.363076 0.404078
N9    N     N_1   0.918797 0.558934 0.306714 -0.147163
C58   C     C_1   0.057243 0.458260 0.636924 0.404077
N10   N     N_1   0.081203 0.441067 0.693286 -0.147163
C59   C     C_1   0.420041 0.710721 0.378765 0.236520
N11   N     N_1   0.388947 0.682336 0.330490 -0.157004
C60   C     C_1   0.579836 0.289255 0.621285 0.236552
N12   N     N_1   0.610884 0.317630 0.669588 -0.157059
C61   C     C_1   0.425754 0.857811 0.379619 0.233548
N13   N     N_1   0.398747 0.888912 0.331350 -0.136973
C62   C     C_1   0.574131 0.142166 0.620399 0.233496
N14   N     N_1   0.601098 0.111057 0.668680 -0.136983
C63   C     C_1   0.561744 0.851584 0.621805 0.222955
N15   N     N_1   0.589426 0.879484 0.671800 -0.133819
C64   C     C_1   0.438357 0.148430 0.378128 0.222970
N16   N     N_1   0.410720 0.120536 0.328111 -0.133842
F7    F     F_    0.649884 0.068867 0.465668 -0.622329
F8    F     F_    0.350105 0.931132 0.534300 -0.622336

loop_
_geom_bond_atom_site_label_1
_geom_bond_atom_site_label_2
_geom_bond_distance
_ccdc_geom_bond_type
C45   C50   1.407783 A    
C48   H8    1.082974 S    
C59   N11   1.157599 T    
C17   C19   1.401286 A    
C8    C11   1.540317 S    
C51   N3    1.157440 T    
C60   N12   1.157602 T    
O7    Zn2   1.977572 S    
C61   N13   1.157333 T    
C42   C54   1.449592 S    
C56   N8    1.157638 T    
O5    C3    1.281255 A    
C3    C9    1.396541 S    
C63   N15   1.157276 T    
C18   C60   1.452047 S    
C8    C14   1.537267 S    
C12   C14   1.537585 S    
C25   H1    1.083381 S    
C14   C16   1.427886 S    
C43   N1    1.370042 A    
C18   C28   1.416562 A    
C44   N2    1.370040 A    
C30   C32   1.385267 A    
O4    Zn1   2.000686 S    
C45   H5    1.082931 S    
C46   H6    1.082932 S    
C12   C57   1.466932 S    
C62   N14   1.157333 T    
C38   C40   1.404841 A    
C35   C37   1.407878 A    
C36   C38   1.407876 A    
C21   C23   1.403346 A    
C31   C33   1.398863 A    
O2    Zn2   2.008274 S    
C29   H3    1.083597 S    
O2    C2    1.286675 A    
C30   H4    1.083597 S    
C38   F4    1.359666 S    
C39   C50   1.502353 S    
C31   F7    1.357673 S    
C54   N6    1.157324 T    
C32   C34   1.398867 A    
C39   C41   1.412514 A    
C8    F2    1.382826 S    
C40   C42   1.412514 A    
C46   C48   1.405010 A    
C26   C28   1.399663 A    
O4    C2    1.291672 A    
C17   C27   1.416550 A    
C58   N10   1.157040 T    
O6    Zn2   1.978623 S    
C47   H7    1.082973 S    
C20   C62   1.452536 S    
C46   C49   1.407783 A    
C37   C39   1.404840 A    
C22   C24   1.403336 A    
C25   C27   1.399647 A    
C52   N4    1.157441 T    
C37   F3    1.359667 S    
C41   C53   1.449592 S    
C55   N7    1.157639 T    
C5    C11   1.540274 S    
O6    C4    1.281256 A    
C4    C10   1.396541 S    
C43   C55   1.443328 S    
C7    C13   1.537269 S    
O7    C3    1.280940 A    
O3    Zn2   2.000687 S    
O8    C4    1.280942 A    
C5    C14   1.537357 S    
C7    F1    1.382826 S    
C6    C13   1.537358 S    
C21   C34   1.450835 S    
C41   C43   1.417785 A    
C22   C33   1.450823 S    
C35   C51   1.438584 S    
C17   C59   1.452049 S    
O1    Zn1   2.008278 S    
C44   C56   1.443329 S    
O1    C1    1.286682 A    
C5    F5    1.382820 S    
C11   C58   1.466930 S    
C5    C7    1.540905 S    
C6    C12   1.540273 S    
C24   C64   1.446063 S    
O3    C1    1.291677 A    
O8    Zn1   1.977570 S    
Zn1   N1    2.002511 S    
Zn2   N2    2.002507 S    
C7    C12   1.540317 S    
C35   N1    1.367915 A    
C19   C61   1.452534 S    
C36   N2    1.367916 A    
C23   C63   1.446063 S    
C11   C13   1.537586 S    
C18   C20   1.401289 A    
C19   C21   1.407493 A    
C36   C52   1.438584 S    
C20   C22   1.407486 A    
C48   C50   1.406595 A    
C40   C49   1.502355 S    
C10   C16   1.182986 T    
C47   C49   1.406594 A    
C32   F8    1.357675 S    
C26   H2    1.083383 S    
C23   C25   1.383993 A    
C29   C34   1.397652 A    
C42   C44   1.417786 A    
C24   C26   1.383991 A    
C30   C33   1.397648 A    
C13   C15   1.427884 S    
C9    C15   1.182986 T    
C53   N5    1.157324 T    
C45   C47   1.405012 A    
O5    Zn1   1.978624 S    
C6    C8    1.540906 S    
C1    C28   1.458929 S    
C64   N16   1.157276 T    
C6    F6    1.382820 S    
C29   C31   1.385267 A    
C2    C27   1.458903 S    
C57   N9    1.157038 T    
