data_mof_unit_29835.cif
_audit_creation_date              2012-12-10T20:45:32-0500
_audit_creation_method            fapswitch 2.2
_symmetry_space_group_name_H-M    P1
_symmetry_Int_Tables_number       1
_space_group_crystal_system       triclinic
_cell_length_a                    10.626676
_cell_length_b                    10.691952
_cell_length_c                    9.894291
_cell_angle_alpha                 90.688376
_cell_angle_beta                  89.994716
_cell_angle_gamma                 90.449636
_cell_volume                      1124.07270068

loop_
_atom_site_label
_atom_site_type_symbol
_atom_type_description
_atom_site_fract_x
_atom_site_fract_y
_atom_site_fract_z
_atom_type_partial_charge
C1    C     C_R   0.501467 0.260080 0.499697 0.956101
C2    C     C_R   0.231844 0.045993 0.319067 -0.146126
C3    C     C_R   0.931230 0.392300 0.454254 0.181410
C4    C     C_R   0.872267 0.500839 0.502509 -0.129537
C5    C     C_R   0.940521 0.603624 0.554748 -0.047389
C6    C     C_R   0.069699 0.599152 0.551012 -0.253067
C7    C     C_R   0.128561 0.493467 0.499496 -0.103460
C8    C     C_R   0.061724 0.387914 0.452539 -0.062844
C9    C     C_R   0.892227 0.831569 0.549483 -0.180253
C10   C     C_R   0.850080 0.940690 0.613341 -0.119805
C11   C     C_R   0.797419 0.935495 0.742498 -0.125689
C12   C     C_R   0.260724 0.495327 0.499821 0.895989
C13   C     C_R   0.785574 0.820869 0.807746 -0.149711
C14   C     C_R   0.828622 0.711594 0.744736 -0.092735
C15   C     C_R   0.881596 0.716166 0.614815 0.102378
C16   C     C_R   0.522986 0.065306 0.622260 0.017770
C17   C     C_R   0.517102 0.128575 0.500129 -0.032586
C18   C     C_R   0.532109 0.063049 0.378240 -0.186134
C19   C     C_R   0.534664 0.934188 0.378450 -0.260238
C20   C     C_R   0.518000 0.871474 0.500877 -0.049020
C21   C     C_R   0.521829 0.937904 0.622364 0.079790
C22   C     C_3   0.440955 0.931225 0.745587 -0.549527
C23   C     C_R   0.502252 0.739868 0.500532 0.867495
C24   C     C_3   0.443806 0.073713 0.747224 0.368007
C25   C     C_R   0.606661 0.478156 0.069681 0.120654
C26   C     C_R   0.393080 0.529550 0.072305 -0.137582
C27   C     C_R   0.392794 0.528592 0.928589 -0.127706
C28   C     C_R   0.607608 0.484368 0.927702 0.125340
C29   C     C_3   0.693130 0.377030 0.911108 -0.585010
C30   C     C_3   0.685504 0.361402 0.063897 0.372488
C31   C     C_R   0.739600 0.504232 0.500510 0.937393
C32   C     C_R   0.238095 0.151786 0.237638 -0.143092
C33   C     C_R   0.184431 0.264149 0.281476 -0.089761
C34   C     C_R   0.126167 0.271749 0.408602 0.110698
C35   C     C_R   0.122346 0.165654 0.490949 -0.048927
C36   C     C_R   0.174863 0.053124 0.446089 -0.083225
H1    H     H_    0.271995 0.958712 0.284109 0.134382
H2    H     H_    0.764662 0.020197 0.791227 0.113541
H3    H     H_    0.744678 0.816966 0.907822 0.116199
H4    H     H_    0.823690 0.624182 0.798451 0.127713
H5    H     H_    0.530961 0.110095 0.282730 0.222958
H6    H     H_    0.539426 0.884805 0.282357 0.166473
H7    H     H_    0.346579 0.889720 0.724201 0.213310
H8    H     H_    0.491529 0.890238 0.832630 0.167420
H9    H     H_    0.497290 0.116937 0.833070 0.087013
H10   H     H_    0.307616 0.552144 0.126265 0.141203
H11   H     H_    0.284017 0.146464 0.140326 0.128654
H12   H     H_    0.306910 0.549790 0.875290 0.147627
H13   H     H_    0.649537 0.299934 0.850452 0.232394
H14   H     H_    0.788079 0.406405 0.876089 0.158489
H15   H     H_    0.776807 0.372274 0.118193 0.114971
H16   H     H_    0.186806 0.344457 0.215865 0.128769
H17   H     H_    0.076437 0.169657 0.588569 0.137935
H18   H     H_    0.170886 0.971378 0.509510 0.134480
H19   H     H_    0.124948 0.677936 0.589066 0.143213
H20   H     H_    0.935299 0.837217 0.450489 0.140653
H21   H     H_    0.859215 0.029415 0.563316 0.183412
N1    N     N_R   0.499160 0.499140 0.142800 -0.085740
N2    N     N_R   0.499160 0.499180 0.857150 -0.085666
O1    O     O_R   0.500020 0.316790 0.614690 -0.609802
O2    O     O_R   0.500000 0.316760 0.385350 -0.577293
O3    O     O_R   0.316770 0.500030 0.614670 -0.620939
O4    O     O_R   0.316750 0.499990 0.385330 -0.639298
O5    O     O_R   0.500000 0.683240 0.614650 -0.613016
O6    O     O_R   0.499980 0.683210 0.385310 -0.638028
O7    O     O_R   0.683250 0.500010 0.614670 -0.624742
O8    O     O_R   0.683230 0.499970 0.385330 -0.604268
Zn1   Zn    Zn3+2 0.500010 0.500020 0.653130 0.959373
Zn2   Zn    Zn3+2 0.499990 0.499980 0.346870 0.975609
O9    O     O_3   0.325050 0.126107 0.719680 -0.584419
C37   C     C_3   0.264194 0.154466 0.842569 -0.315043
H22   H     H_    0.316404 0.228543 0.899875 0.178653
H23   H     H_    0.251861 0.069291 0.904906 0.155849
H24   H     H_    0.169263 0.191217 0.820194 0.177959
O10   O     O_3   0.614922 0.253902 0.098579 -0.566309
C38   C     C_3   0.687276 0.144943 0.075656 -0.352433
H25   H     H_    0.742175 0.122320 0.166964 0.233301
H26   H     H_    0.752786 0.151218 0.988290 0.149218
H27   H     H_    0.622294 0.065289 0.054826 0.157796
Br1   Br    Br    0.833435 0.248643 0.396592 -0.643659

loop_
_geom_bond_atom_site_label_1
_geom_bond_atom_site_label_2
_ccdc_geom_bond_type
C27   H12   S    
C31   O7    A    
O7    Zn1   S    
C30   H15   S    
C16   C21   A    
C35   H17   S    
C35   C36   A    
C38   H27   S    
C6    H19   S    
C24   O9    S    
C7    C8    A    
C29   H13   S    
C33   H16   S    
C31   O8    A    
C26   C27   A    
C24   H9    S    
O5    Zn1   S    
C28   C29   S    
C38   H26   S    
C18   C19   A    
C5    C6    A    
O2    Zn2   S    
C2    C32   A    
C34   C35   A    
C22   H8    S    
C19   C20   A    
C16   C17   A    
O9    C37   S    
C9    C10   A    
C19   H6    S    
C16   C24   S    
C21   C22   S    
C3    Br1   S    
C17   C18   A    
C29   H14   S    
C7    C12   S    
C5    C15   S    
O4    Zn2   S    
C10   H21   S    
C38   H25   S    
C3    C8    A    
C18   H5    S    
C37   H23   S    
C12   O4    A    
C14   H4    S    
O8    Zn2   S    
C11   H2    S    
O10   C38   S    
C29   C30   S    
N2    Zn1   S    
C12   O3    A    
C22   H7    S    
C20   C23   S    
C33   C34   A    
C9    H20   S    
C8    C34   S    
C26   N1    A    
C23   O5    A    
C32   H11   S    
C22   C24   S    
C1    O1    A    
C25   N1    A    
C3    C4    A    
C28   N2    A    
C2    C36   A    
C25   C30   S    
C4    C5    A    
C1    O2    A    
C37   H24   S    
N1    Zn2   S    
C6    C7    A    
C1    C17   S    
O3    Zn1   S    
C32   C33   A    
C23   O6    A    
C9    C15   A    
C37   H22   S    
C27   N2    A    
C30   O10   S    
C11   C13   A    
C2    H1    S    
O6    Zn2   S    
C13   H3    S    
C4    C31   S    
C36   H18   S    
C10   C11   A    
C26   H10   S    
C25   C28   A    
C20   C21   A    
O1    Zn1   S    
C14   C15   A    
C13   C14   A    
