data_mof_unit_39572.cif
_audit_creation_date              2012-12-10T16:37:58-0500
_audit_creation_method            fapswitch 2.2
_symmetry_space_group_name_H-M    P1
_symmetry_Int_Tables_number       1
_space_group_crystal_system       triclinic
_cell_length_a                    28.142887
_cell_length_b                    18.613891
_cell_length_c                    16.78224
_cell_angle_alpha                 90.052514
_cell_angle_beta                  60.797714
_cell_angle_gamma                 90.029355
_cell_volume                      7673.99214332

loop_
_atom_site_label
_atom_site_type_symbol
_atom_type_description
_atom_site_fract_x
_atom_site_fract_y
_atom_site_fract_z
_atom_type_partial_charge
C1    C     C_R   0.700167 0.264613 0.677467 0.864903
C2    C     C_R   0.299786 0.735182 0.322028 0.910642
C3    C     C_R   0.299591 0.264767 0.322449 0.867546
C4    C     C_R   0.699726 0.736497 0.677900 0.932025
C5    C     C_R   0.199478 0.763204 0.677442 0.859743
C6    C     C_R   0.800275 0.236514 0.322139 0.931746
C7    C     C_R   0.799826 0.764632 0.322517 0.865708
C8    C     C_R   0.199733 0.236502 0.677881 0.934785
C9    C     C_R   0.913006 0.503644 0.464313 0.069588
C10   C     C_R   0.094874 0.505239 0.516512 0.071317
C11   C     C_R   0.404492 0.004505 0.487049 0.069220
C12   C     C_R   0.587670 0.003639 0.535354 0.069824
C13   C     C_R   0.117181 0.386008 0.449685 -0.042717
C14   C     C_R   0.926096 0.631565 0.429073 -0.066667
C15   C     C_R   0.904103 0.377231 0.505702 -0.054062
C16   C     C_R   0.073791 0.629425 0.569723 -0.052843
C17   C     C_R   0.599604 0.878915 0.486289 -0.052451
C18   C     C_R   0.424984 0.129125 0.435753 -0.057202
C19   C     C_R   0.385067 0.882916 0.547625 -0.057481
C20   C     C_R   0.573187 0.130909 0.574951 -0.059127
C21   C     C_R   0.730122 0.277411 0.943202 -0.041246
C22   C     C_R   0.291203 0.746969 0.029596 -0.081692
C23   C     C_R   0.263828 0.284552 0.062662 -0.026387
C24   C     C_R   0.706015 0.751075 0.970991 -0.042909
C25   C     C_R   0.228731 0.772715 0.940905 -0.067356
C26   C     C_R   0.793899 0.251096 0.029181 -0.042945
C27   C     C_R   0.769799 0.777337 0.056959 -0.039823
C28   C     C_R   0.199695 0.258753 0.977201 -0.045910
C29   C     C_R   0.772473 0.225381 0.904709 -0.048831
C30   C     C_R   0.248293 0.797147 0.065697 0.071947
C31   C     C_R   0.218696 0.236220 0.104899 -0.017988
C32   C     C_R   0.743298 0.807991 0.940467 -0.047773
C33   C     C_R   0.270053 0.719024 0.904564 -0.039871
C34   C     C_R   0.756628 0.308042 0.059781 -0.048137
C35   C     C_R   0.727464 0.725241 0.095391 -0.046147
C36   C     C_R   0.238915 0.313522 0.944198 -0.042896
C37   C     C_R   0.804719 0.211918 0.948790 -0.049915
C38   C     C_R   0.224447 0.818064 0.011428 0.009856
C39   C     C_R   0.185062 0.224179 0.062286 -0.068177
C40   C     C_R   0.777244 0.819393 0.980731 -0.109396
C41   C     C_R   0.304027 0.708981 0.946991 -0.054385
C42   C     C_R   0.722687 0.319481 0.019486 -0.109444
C43   C     C_R   0.695166 0.711872 0.051337 -0.050080
C44   C     C_R   0.272761 0.324945 0.984645 -0.109375
C45   C     C_R   0.660482 0.349483 0.930245 -0.104630
C46   C     C_R   0.366742 0.688695 0.038188 -0.076511
C47   C     C_R   0.337504 0.352005 0.070821 -0.104660
C48   C     C_R   0.632983 0.688375 0.960776 -0.081504
C49   C     C_R   0.162446 0.849272 0.924674 -0.058555
C50   C     C_R   0.866901 0.188240 0.039307 -0.082183
C51   C     C_R   0.839458 0.849487 0.069899 -0.105021
C52   C     C_R   0.128535 0.194335 0.963294 -0.070793
C53   C     C_R   0.625832 0.359692 0.890723 -0.097787
C54   C     C_R   0.390199 0.663156 0.092061 -0.117192
C55   C     C_R   0.373087 0.360610 0.109300 -0.098410
C56   C     C_R   0.610193 0.662180 0.906669 -0.118168
C57   C     C_R   0.125179 0.857693 0.889996 -0.092339
C58   C     C_R   0.889706 0.162083 0.093401 -0.116156
C59   C     C_R   0.874135 0.859741 0.109342 -0.097823
C60   C     C_R   0.108490 0.164259 0.907258 -0.114409
C61   C     C_R   0.634401 0.321712 0.814915 -0.301406
C62   C     C_R   0.370356 0.685973 0.180608 -0.334891
C63   C     C_R   0.364507 0.321949 0.184557 -0.311917
C64   C     C_R   0.630258 0.684705 0.817938 -0.334377
C65   C     C_R   0.131678 0.817519 0.816569 -0.310607
C66   C     C_R   0.869616 0.184601 0.182145 -0.337494
C67   C     C_R   0.865532 0.821886 0.185189 -0.298500
C68   C     C_R   0.130540 0.184105 0.817283 -0.344546
C69   C     C_R   0.676572 0.273868 0.776234 -0.105190
C70   C     C_R   0.325621 0.730445 0.221248 -0.107556
C71   C     C_R   0.321488 0.275442 0.224253 -0.101881
C72   C     C_R   0.673497 0.731935 0.778494 -0.080348
C73   C     C_R   0.174163 0.769894 0.776859 -0.107141
C74   C     C_R   0.826472 0.231939 0.221576 -0.081211
C75   C     C_R   0.823396 0.773970 0.223790 -0.106401
C76   C     C_R   0.173169 0.232364 0.778540 -0.082506
C77   C     C_R   0.703045 0.249976 0.826350 -0.066554
C78   C     C_R   0.302500 0.759520 0.167369 -0.000102
C79   C     C_R   0.292500 0.254756 0.176671 -0.035864
C80   C     C_R   0.694505 0.763860 0.833952 -0.004476
C81   C     C_R   0.200128 0.745045 0.827065 -0.053746
C82   C     C_R   0.805474 0.263889 0.166173 -0.003639
C83   C     C_R   0.796957 0.749985 0.173632 -0.064248
C84   C     C_R   0.192689 0.266384 0.835123 -0.006524
C85   C     C_R   0.691265 0.129714 0.535319 0.858240
C86   C     C_R   0.304608 0.872334 0.478972 0.847363
C87   C     C_R   0.308654 0.129614 0.465165 0.864444
C88   C     C_R   0.694464 0.872218 0.523383 0.875135
C89   C     C_R   0.191101 0.629881 0.536058 0.856058
C90   C     C_R   0.805788 0.372128 0.476177 0.875480
C91   C     C_R   0.808661 0.629590 0.465239 0.857895
C92   C     C_R   0.195076 0.372444 0.522286 0.871142
C93   C     C_R   0.697079 0.291189 0.901319 -0.068252
C94   C     C_R   0.319650 0.731180 0.079030 -0.081994
C95   C     C_R   0.298600 0.296190 0.102207 -0.062886
C96   C     C_R   0.678317 0.733664 0.921187 -0.087756
C97   C     C_R   0.196070 0.787738 0.899338 -0.060755
C98   C     C_R   0.821612 0.233644 0.078930 -0.087280
C99   C     C_R   0.802862 0.791175 0.098791 -0.067202
C100  C     C_R   0.174132 0.239036 0.924649 -0.090204
C101  C     C_R   0.660752 0.396078 0.996433 0.443457
C102  C     C_R   0.386967 0.670834 0.945074 0.447623
C103  C     C_R   0.338119 0.398206 0.003795 0.445106
C104  C     C_R   0.613443 0.669429 0.053384 0.445671
C105  C     C_R   0.173730 0.904483 0.971270 0.411803
C106  C     C_R   0.886369 0.169159 0.946706 0.442658
C107  C     C_R   0.839202 0.896022 0.003759 0.444568
C108  C     C_R   0.103915 0.182442 0.058132 0.466711
C109  C     C_R   0.681343 0.372472 0.052276 0.393975
C110  C     C_R   0.349254 0.661330 0.913208 0.335551
C111  C     C_R   0.315988 0.375522 0.949584 0.390917
C112  C     C_R   0.651614 0.661762 0.084246 0.327368
C113  C     C_R   0.205077 0.888744 0.015020 0.425205
C114  C     C_R   0.848176 0.161683 0.915827 0.327775
C115  C     C_R   0.818628 0.872332 0.947910 0.393633
C116  C     C_R   0.137290 0.179932 0.099581 0.352749
C117  C     C_R   0.738944 0.190597 0.799666 0.509036
C118  C     C_R   0.263200 0.815535 0.196992 0.416457
C119  C     C_R   0.254765 0.197439 0.204353 0.504188
C120  C     C_R   0.725722 0.828360 0.812475 0.473575
C121  C     C_R   0.234850 0.684358 0.801068 0.504597
C122  C     C_R   0.774268 0.328405 0.187761 0.474221
C123  C     C_R   0.761203 0.690462 0.200127 0.507471
C124  C     C_R   0.224494 0.330520 0.812466 0.470178
C125  C     C_R   0.780794 0.190597 0.822759 -0.078240
C126  C     C_R   0.231416 0.826125 0.154191 -0.065921
C127  C     C_R   0.210768 0.202206 0.186982 -0.064081
C128  C     C_R   0.740013 0.855816 0.877479 -0.118914
C129  C     C_R   0.276874 0.682444 0.824217 -0.032904
C130  C     C_R   0.759943 0.355856 0.122841 -0.119374
C131  C     C_R   0.719306 0.690262 0.177125 -0.069097
C132  C     C_R   0.237886 0.359534 0.877812 -0.119485
C133  C     C_R   0.070918 0.103614 0.937070 0.950011
C134  C     C_R   0.920623 0.907734 0.071198 0.953650
C135  C     C_R   0.928090 0.102599 0.063731 0.927215
C136  C     C_R   0.079492 0.907526 0.928450 0.977521
C137  C     C_R   0.571864 0.602637 0.936329 0.921586
C138  C     C_R   0.420353 0.407923 0.071236 0.953801
C139  C     C_R   0.428743 0.603434 0.062899 0.921431
C140  C     C_R   0.579381 0.407740 0.928790 0.955191
C141  C     C_R   0.535944 0.134572 0.540732 0.101988
C142  C     C_R   0.438152 0.877478 0.534807 0.104901
C143  C     C_R   0.460242 0.133808 0.473973 0.099742
C144  C     C_R   0.544226 0.875314 0.511001 0.094679
C145  C     C_R   0.038039 0.634119 0.532323 0.095586
C146  C     C_R   0.959751 0.375343 0.479612 0.087761
C147  C     C_R   0.962679 0.635104 0.464657 0.095771
C148  C     C_R   0.064887 0.379810 0.459460 0.119716
C149  C     C_R   0.517227 0.199549 0.522564 -0.176867
C150  C     C_R   0.462345 0.811688 0.536586 -0.161824
C151  C     C_R   0.481578 0.199050 0.486143 -0.177633
C152  C     C_R   0.516546 0.810389 0.518718 -0.154482
C153  C     C_R   0.016004 0.699302 0.521708 -0.157804
C154  C     C_R   0.989375 0.311264 0.466543 -0.145541
C155  C     C_R   0.980492 0.699956 0.484987 -0.154944
C156  C     C_R   0.043247 0.314116 0.450331 -0.184728
C157  C     C_R   0.475105 0.070062 0.500457 0.008749
C158  C     C_R   0.517140 0.940184 0.520835 0.007673
C159  C     C_R   0.517009 0.070056 0.523397 0.009616
C160  C     C_R   0.467922 0.940942 0.519793 0.009688
C161  C     C_R   0.982250 0.570562 0.480291 0.011686
C162  C     C_R   0.033575 0.442186 0.478202 0.018038
C163  C     C_R   0.023872 0.570583 0.504015 0.009611
C164  C     C_R   0.984844 0.440823 0.475568 0.005741
C165  C     C_R   0.960218 0.505150 0.472750 -0.048880
C166  C     C_R   0.050783 0.506230 0.499712 -0.046923
C167  C     C_R   0.449004 0.005400 0.502722 -0.049705
C168  C     C_R   0.540348 0.004756 0.527397 -0.050019
C169  C     C_R   0.883961 0.438342 0.479837 -0.059444
C170  C     C_R   0.108288 0.567505 0.548919 -0.031472
C171  C     C_R   0.126673 0.442256 0.497269 -0.050607
C172  C     C_R   0.893896 0.567804 0.445245 -0.036090
C173  C     C_R   0.373242 0.941089 0.505053 -0.053241
C174  C     C_R   0.605993 0.067555 0.556618 -0.037442
C175  C     C_R   0.617725 0.939057 0.517099 -0.059271
C176  C     C_R   0.390663 0.067091 0.455767 -0.034530
C177  C     C_R   0.836288 0.437564 0.469844 -0.115203
C178  C     C_R   0.157612 0.565898 0.553660 -0.146260
C179  C     C_R   0.167509 0.439174 0.523541 -0.118269
C180  C     C_R   0.842370 0.565694 0.447672 -0.137115
C181  C     C_R   0.331881 0.938690 0.479658 -0.113592
C182  C     C_R   0.657599 0.065732 0.553694 -0.139034
C183  C     C_R   0.664521 0.937938 0.529174 -0.117343
C184  C     C_R   0.341539 0.065456 0.450348 -0.136933
C185  C     C_R   0.817173 0.500747 0.452534 -0.255920
C186  C     C_R   0.182328 0.501067 0.551553 -0.248768
C187  C     C_R   0.316599 0.000806 0.453127 -0.282868
C188  C     C_R   0.683005 0.000877 0.548434 -0.253489
H1    H     H_    0.066280 0.264860 0.437637 0.170396
H2    H     H_    0.964823 0.751133 0.477708 0.183802
H3    H     H_    0.971531 0.259743 0.466364 0.179056
H4    H     H_    0.028102 0.750352 0.536968 0.190561
H5    H     H_    0.536066 0.759222 0.513978 0.178726
H6    H     H_    0.468936 0.250117 0.472024 0.183363
H7    H     H_    0.440990 0.761413 0.545170 0.176133
H8    H     H_    0.532450 0.250774 0.530875 0.182276
H9    H     H_    0.779709 0.500069 0.449012 0.196824
H10   H     H_    0.216634 0.499986 0.564159 0.198317
H11   H     H_    0.282110 0.999870 0.441028 0.193103
H12   H     H_    0.720212 0.000185 0.552758 0.197039
H13   H     H_    0.610778 0.333881 0.781291 0.197253
H14   H     H_    0.387680 0.664194 0.220736 0.192574
H15   H     H_    0.389121 0.332350 0.216897 0.195653
H16   H     H_    0.613932 0.661284 0.777129 0.191933
H17   H     H_    0.107456 0.829243 0.783912 0.197873
H18   H     H_    0.885874 0.161114 0.222968 0.193914
H19   H     H_    0.889138 0.834143 0.218843 0.199234
H20   H     H_    0.115912 0.158227 0.775428 0.194893
O1    O     O_R   0.746490 0.236330 0.638080 -0.570491
O2    O     O_R   0.253510 0.763670 0.361920 -0.556025
O3    O     O_R   0.253510 0.236330 0.361920 -0.569219
O4    O     O_R   0.746490 0.763670 0.638080 -0.602297
O5    O     O_R   0.246490 0.736330 0.638080 -0.576662
O6    O     O_R   0.753510 0.263670 0.361920 -0.602136
O7    O     O_R   0.753510 0.736330 0.361920 -0.571116
O8    O     O_R   0.246490 0.263670 0.638080 -0.602000
O9    O     O_R   0.674170 0.186160 0.516270 -0.643351
O10   O     O_R   0.325830 0.813840 0.483730 -0.642514
O11   O     O_R   0.325830 0.186160 0.483730 -0.645742
O12   O     O_R   0.674170 0.813840 0.516270 -0.643331
O13   O     O_R   0.174170 0.686160 0.516270 -0.639572
O14   O     O_R   0.825830 0.313840 0.483730 -0.641646
O15   O     O_R   0.825830 0.686160 0.483730 -0.645688
O16   O     O_R   0.174170 0.313840 0.516270 -0.642401
O17   O     O_R   0.739960 0.127620 0.525000 -0.599520
O18   O     O_R   0.260040 0.872380 0.475000 -0.608370
O19   O     O_R   0.260040 0.127620 0.475000 -0.595254
O20   O     O_R   0.739960 0.872380 0.525000 -0.623491
O21   O     O_R   0.239960 0.627620 0.525000 -0.597773
O22   O     O_R   0.760040 0.372380 0.475000 -0.623690
O23   O     O_R   0.760040 0.627620 0.475000 -0.599337
O24   O     O_R   0.239960 0.372380 0.525000 -0.623115
O25   O     O_R   0.680700 0.294870 0.629350 -0.635073
O26   O     O_R   0.319300 0.705130 0.370650 -0.633767
O27   O     O_R   0.319300 0.294870 0.370650 -0.637503
O28   O     O_R   0.680700 0.705130 0.629350 -0.632509
O29   O     O_R   0.180700 0.794870 0.629350 -0.635550
O30   O     O_R   0.819300 0.205130 0.370650 -0.631766
O31   O     O_R   0.819300 0.794870 0.370650 -0.634397
O32   O     O_R   0.180700 0.205130 0.629350 -0.629848
O33   O     O_R   0.062020 0.072840 0.007170 -0.554303
O34   O     O_R   0.937980 0.927160 0.992830 -0.582595
O35   O     O_R   0.937980 0.072840 0.992830 -0.558639
O36   O     O_R   0.062020 0.927160 0.007170 -0.577523
O37   O     O_R   0.562020 0.572840 0.007170 -0.556072
O38   O     O_R   0.437980 0.427160 0.992830 -0.582340
O39   O     O_R   0.437980 0.572840 0.992830 -0.555468
O40   O     O_R   0.562020 0.427160 0.007170 -0.581652
O41   O     O_R   0.947860 0.073950 0.109290 -0.626693
O42   O     O_R   0.052140 0.926050 0.890710 -0.639041
O43   O     O_R   0.052140 0.073950 0.890710 -0.633575
O44   O     O_R   0.947860 0.926050 0.109290 -0.632278
O45   O     O_R   0.447860 0.573950 0.109290 -0.627741
O46   O     O_R   0.552140 0.426050 0.890710 -0.635240
O47   O     O_R   0.552140 0.573950 0.890710 -0.629780
O48   O     O_R   0.447860 0.426050 0.109290 -0.633500
Zn1   Zn    Zn3+2 0.792340 0.208750 0.507670 1.049581
Zn2   Zn    Zn3+2 0.207660 0.791250 0.492330 1.021581
Zn3   Zn    Zn3+2 0.207660 0.208750 0.492330 1.048624
Zn4   Zn    Zn3+2 0.792340 0.791250 0.507670 0.957703
Zn5   Zn    Zn3+2 0.292340 0.708750 0.507670 1.033498
Zn6   Zn    Zn3+2 0.707660 0.291250 0.492330 0.954817
Zn7   Zn    Zn3+2 0.707660 0.708750 0.492330 1.043435
Zn8   Zn    Zn3+2 0.292340 0.291250 0.507670 0.952701
Zn9   Zn    Zn3+2 0.505960 0.500000 0.080520 1.000881
Zn10  Zn    Zn3+2 0.494040 0.500000 0.919480 0.999754
Zn11  Zn    Zn3+2 0.005960 1.000000 0.080520 1.015148
Zn12  Zn    Zn3+2 0.994040 1.000000 0.919480 1.004026
C189  C     C_2   0.164298 0.358182 0.364956 0.423331
H21   H     H_    0.204945 0.358264 0.356587 0.070026
O49   O     O_2   0.159130 0.342207 0.299128 -0.637910
C190  C     C_2   0.930695 0.684114 0.358322 0.473713
H22   H     H_    0.907517 0.675758 0.322994 0.039249
O50   O     O_2   0.961908 0.735079 0.335351 -0.577138
C191  C     C_2   0.866502 0.337516 0.590415 0.466275
H23   H     H_    0.823992 0.353104 0.629389 0.051161
O51   O     O_2   0.882704 0.288521 0.619022 -0.621731
C192  C     C_2   0.067772 0.679340 0.644060 0.450844
H24   H     H_    0.092500 0.671783 0.676728 0.042748
O52   O     O_2   0.033411 0.726667 0.673581 -0.611321
C193  C     C_2   0.639194 0.841662 0.400748 0.464016
H25   H     H_    0.682064 0.855789 0.367373 0.054126
O53   O     O_2   0.624223 0.797258 0.364328 -0.631527
C194  C     C_2   0.432166 0.178506 0.360337 0.450584
H26   H     H_    0.408717 0.170043 0.325528 0.048183
O54   O     O_2   0.466003 0.226513 0.332591 -0.611342
C195  C     C_2   0.339607 0.846403 0.627313 0.459878
H27   H     H_    0.297688 0.858500 0.646374 0.055478
O55   O     O_2   0.348153 0.806122 0.676128 -0.643343
C196  C     C_2   0.569450 0.183272 0.645412 0.456943
H28   H     H_    0.593761 0.175238 0.678772 0.043163
O56   O     O_2   0.537628 0.233615 0.670551 -0.611552
O57   O     O_3   0.648093 0.468100 0.999891 -0.568506
C197  C     C_3   0.691737 0.502592 0.924958 -0.252906
H29   H     H_    0.693656 0.486714 0.859549 0.134040
H30   H     H_    0.731425 0.491918 0.922374 0.142534
H31   H     H_    0.685226 0.561207 0.932344 0.193327
O58   O     O_3   0.442221 0.664316 0.883766 -0.621057
C198  C     C_3   0.469419 0.728655 0.881449 -0.321311
H32   H     H_    0.473065 0.734945 0.944085 0.154761
H33   H     H_    0.449090 0.776431 0.871412 0.160138
H34   H     H_    0.511330 0.726162 0.822702 0.195620
O59   O     O_3   0.351982 0.469804 0.999464 -0.569680
C199  C     C_3   0.308740 0.505340 0.074031 -0.226324
H35   H     H_    0.306999 0.490209 0.139498 0.136069
H36   H     H_    0.268789 0.494963 0.077384 0.149269
H37   H     H_    0.315598 0.563759 0.065579 0.190159
O60   O     O_3   0.558348 0.663298 0.116104 -0.619266
C200  C     C_3   0.530789 0.727121 0.117848 -0.318883
H38   H     H_    0.525951 0.731647 0.056186 0.155236
H39   H     H_    0.551588 0.775580 0.125211 0.156001
H40   H     H_    0.489340 0.725304 0.177906 0.192600
O61   O     O_3   0.160578 0.974906 0.963941 -0.607354
C201  C     C_3   0.200624 0.002724 0.879291 -0.345461
H41   H     H_    0.198321 0.976889 0.821500 0.161125
H42   H     H_    0.242357 0.996900 0.870273 0.184476
H43   H     H_    0.193124 0.060949 0.877274 0.194513
O62   O     O_3   0.941446 0.162886 0.883938 -0.620350
C202  C     C_3   0.969093 0.226700 0.882059 -0.310159
H44   H     H_    0.973744 0.231543 0.943879 0.155727
H45   H     H_    0.948464 0.275103 0.874229 0.154667
H46   H     H_    0.010622 0.224594 0.822227 0.196270
O63   O     O_3   0.851849 0.968061 0.000354 -0.569101
C203  C     C_3   0.808233 0.002559 0.075391 -0.253727
H47   H     H_    0.806540 0.986961 0.140681 0.134492
H48   H     H_    0.768476 0.991595 0.078330 0.143280
H49   H     H_    0.814600 0.061189 0.067849 0.193195
O64   O     O_3   0.047874 0.175600 0.110994 -0.617390
C204  C     C_3   0.022876 0.241442 0.111698 -0.357413
H50   H     H_    0.025795 0.252299 0.044328 0.162704
H51   H     H_    0.040401 0.286910 0.132138 0.165318
H52   H     H_    0.979026 0.237899 0.162774 0.201991
O65   O     O_3   0.663402 0.406344 0.135298 -0.605752
C205  C     C_3   0.623299 0.362684 0.203644 -0.345108
H53   H     H_    0.640092 0.309458 0.207510 0.175335
H54   H     H_    0.587620 0.355687 0.192636 0.187810
H55   H     H_    0.608730 0.389511 0.270613 0.174652
O66   O     O_3   0.346160 0.596252 0.874497 -0.611722
C206  C     C_3   0.397582 0.565775 0.815387 -0.077917
H56   H     H_    0.415544 0.540496 0.854428 0.225231
H57   H     H_    0.425992 0.605580 0.765467 0.123965
H58   H     H_    0.391958 0.522910 0.774917 0.194224
O67   O     O_3   0.334656 0.407923 0.865591 -0.601998
C207  C     C_3   0.374561 0.362992 0.798843 -0.347872
H59   H     H_    0.357375 0.309669 0.796361 0.171859
H60   H     H_    0.409995 0.356300 0.810560 0.187301
H61   H     H_    0.389621 0.388489 0.731031 0.176320
O68   O     O_3   0.655856 0.598019 0.124256 -0.611791
C208  C     C_3   0.605044 0.565693 0.182542 -0.075391
H62   H     H_    0.587745 0.539524 0.142981 0.225939
H63   H     H_    0.575685 0.604569 0.232724 0.128199
H64   H     H_    0.611393 0.523441 0.222820 0.195743
O69   O     O_3   0.229397 0.941922 0.041582 -0.665304
C209  C     C_3   0.193749 0.997875 0.091393 -0.121565
H65   H     H_    0.150205 0.981217 0.128427 0.189723
H66   H     H_    0.200291 0.043537 0.044785 0.228646
H67   H     H_    0.204487 0.016921 0.143286 0.181833
O70   O     O_3   0.843876 0.098114 0.875424 -0.611666
C210  C     C_3   0.894629 0.065643 0.817166 -0.070910
H68   H     H_    0.911837 0.039371 0.856753 0.225193
H69   H     H_    0.924056 0.104467 0.767063 0.131428
H70   H     H_    0.888219 0.023435 0.776814 0.195942
O71   O     O_3   0.836601 0.906098 0.864879 -0.606441
C211  C     C_3   0.876676 0.862348 0.796545 -0.344370
H71   H     H_    0.859837 0.809132 0.792656 0.174428
H72   H     H_    0.912335 0.855332 0.807589 0.189080
H73   H     H_    0.891291 0.889105 0.729575 0.176106
O72   O     O_3   0.131658 0.125191 0.160162 -0.684052
C212  C     C_3   0.077908 0.101041 0.216875 -0.249829
H74   H     H_    0.063860 0.067061 0.177937 0.214978
H75   H     H_    0.049777 0.146465 0.252568 0.186480
H76   H     H_    0.077797 0.066288 0.270616 0.177482
O73   O     O_3   0.738167 0.136074 0.743578 -0.542524
C213  C     C_3   0.686192 0.103627 0.782834 -0.153994
H77   H     H_    0.658068 0.134809 0.767499 0.089409
H78   H     H_    0.667943 0.095872 0.857947 0.167382
H79   H     H_    0.690506 0.049897 0.751348 0.220263
O74   O     O_3   0.255296 0.862234 0.266632 -0.599302
C214  C     C_3   0.301388 0.906718 0.236834 -0.302606
H80   H     H_    0.307438 0.939878 0.177488 0.159181
H81   H     H_    0.338891 0.875631 0.219583 0.145927
H82   H     H_    0.294506 0.943037 0.293737 0.190653
O75   O     O_3   0.255990 0.141212 0.257355 -0.538211
C215  C     C_3   0.304065 0.101152 0.206619 -0.333922
H83   H     H_    0.341535 0.134463 0.179713 0.144088
H84   H     H_    0.302703 0.072137 0.149799 0.166885
H85   H     H_    0.307066 0.061319 0.252759 0.178662
O76   O     O_3   0.730848 0.871510 0.741296 -0.585895
C216  C     C_3   0.786300 0.889912 0.684455 -0.119761
H86   H     H_    0.800181 0.931388 0.715994 0.196453
H87   H     H_    0.813551 0.842183 0.665969 0.108989
H88   H     H_    0.790982 0.913047 0.620164 0.176490
O77   O     O_3   0.233711 0.631499 0.743338 -0.543097
C217  C     C_3   0.181259 0.600617 0.780629 -0.152209
H89   H     H_    0.154547 0.632670 0.762899 0.087683
H90   H     H_    0.161547 0.593249 0.856014 0.164201
H91   H     H_    0.185213 0.546812 0.749501 0.217982
O78   O     O_3   0.769151 0.371559 0.259019 -0.585240
C218  C     C_3   0.713699 0.389955 0.315905 -0.121276
H92   H     H_    0.686443 0.342230 0.334283 0.108920
H93   H     H_    0.699818 0.431438 0.284471 0.196575
H94   H     H_    0.709017 0.413075 0.380244 0.176110
O79   O     O_3   0.762164 0.635983 0.256002 -0.542937
C219  C     C_3   0.814222 0.603767 0.216547 -0.152624
H95   H     H_    0.842335 0.635144 0.231779 0.090993
H96   H     H_    0.832394 0.595950 0.141443 0.167216
H97   H     H_    0.810077 0.550089 0.247965 0.220756
O80   O     O_3   0.231495 0.371943 0.738794 -0.585309
C220  C     C_3   0.287464 0.388303 0.682978 -0.113731
H98   H     H_    0.301417 0.430469 0.713544 0.200278
H99   H     H_    0.313765 0.339873 0.667817 0.105935
H100  H     H_    0.293588 0.409639 0.616973 0.175771
C221  C     C_2   0.836083 0.171656 0.748681 0.620227
H101  H     H_    0.871365 0.196681 0.747011 0.053950
O81   O     O_2   0.843142 0.129517 0.688028 -0.529451
C222  C     C_2   0.177137 0.860012 0.210219 0.441074
H102  H     H_    0.170836 0.898881 0.262717 0.112116
O82   O     O_2   0.138131 0.842090 0.201610 -0.589526
C223  C     C_2   0.155840 0.193112 0.267714 0.597936
H103  H     H_    0.121326 0.221289 0.270442 0.075839
O83   O     O_2   0.148428 0.155714 0.332561 -0.566608
C224  C     C_2   0.733573 0.934120 0.899895 0.534702
H104  H     H_    0.737909 0.954185 0.956715 0.077045
O84   O     O_2   0.720344 0.976686 0.859095 -0.571066
C225  C     C_2   0.331237 0.660113 0.750078 0.622367
H105  H     H_    0.367385 0.686762 0.742936 0.048683
O85   O     O_2   0.336522 0.613160 0.695453 -0.551392
C226  C     C_2   0.766404 0.434150 0.100549 0.534701
H106  H     H_    0.762123 0.454197 0.043710 0.076333
O86   O     O_2   0.779589 0.476733 0.141477 -0.570545
C227  C     C_2   0.664146 0.670628 0.251131 0.621699
H107  H     H_    0.628681 0.695316 0.253165 0.056877
O87   O     O_2   0.657383 0.628374 0.311424 -0.539488
C228  C     C_2   0.233020 0.438444 0.896400 0.541532
H108  H     H_    0.236809 0.459733 0.953252 0.081240
O88   O     O_2   0.221877 0.480302 0.852180 -0.563538

loop_
_geom_bond_atom_site_label_1
_geom_bond_atom_site_label_2
_ccdc_geom_bond_type
C154  H3    S    
O3    Zn3   S    
O27   Zn8   S    
C4    O28   A    
C225  H105  S    
C9    C169  A    
C34   C42   A    
C134  O44   A    
C139  O39   A    
C181  C187  A    
O65   C205  S    
C6    O30   A    
C27   C99   A    
C85   C182  S    
C170  C178  A    
C12   C174  A    
C194  H26   S    
C42   C109  A    
C24   C96   A    
C149  H8    S    
C92   O24   A    
C52   C108  A    
C62   C70   A    
C218  H93   S    
C135  O35   A    
C127  C223  S    
C3    O27   A    
O39   Zn10  S    
O26   Zn5   S    
C1    O25   A    
C203  H47   S    
C195  O55   D    
C126  C222  S    
C147  C155  A    
C212  H76   S    
C8    O32   A    
C64   H16   S    
C90   C177  S    
C221  O81   D    
C11   C167  A    
C82   C98   A    
C136  O42   A    
C131  C227  S    
O72   C212  S    
C161  C163  A    
C228  H108  S    
C162  C164  A    
C2    O2    A    
O63   C203  S    
C84   C100  A    
C92   O16   A    
C121  C129  A    
C37   C114  A    
C27   C35   A    
C201  H41   S    
C21   C29   A    
C81   C121  A    
C23   C31   A    
C24   C32   A    
C138  O38   A    
O44   Zn11  S    
O1    Zn1   S    
O59   C199  S    
C146  C154  A    
C5    O5    A    
C15   C191  S    
C137  O47   A    
C63   C71   A    
C189  O49   D    
C216  H86   S    
C36   C44   A    
C10   C170  A    
O58   C198  S    
O75   C215  S    
C32   C40   A    
C175  C183  A    
C176  C184  A    
O46   Zn10  S    
C48   C96   A    
C26   C34   A    
O37   Zn9   S    
O11   Zn8   S    
C8    O8    A    
C215  H84   S    
O47   Zn10  S    
O77   C217  S    
C20   C196  S    
C222  H102  S    
C107  O63   S    
C112  O68   S    
C148  C162  A    
C183  C188  A    
C128  C224  S    
C205  H55   S    
C142  C150  A    
C21   C93   A    
C78   C94   A    
C203  H49   S    
C9    C165  A    
O68   C208  S    
C111  O67   S    
O32   Zn3   S    
C217  H89   S    
C106  O62   S    
C49   C97   A    
C21   C42   A    
C22   C41   A    
O28   Zn7   S    
C51   C107  A    
O5    Zn5   S    
O29   Zn2   S    
C24   C43   A    
C185  H9    S    
C220  H98   S    
C101  C109  A    
C82   C122  A    
C161  C165  A    
C17   C175  A    
C18   C176  A    
C101  O57   S    
C202  H45   S    
C208  H62   S    
C117  O73   S    
C69   C77   A    
C223  H103  S    
C31   C127  A    
C45   C93   A    
C174  C182  A    
C71   C79   A    
C227  O87   D    
C179  C186  A    
C30   C38   A    
C11   C176  A    
C63   H15   S    
C17   C144  A    
C151  H6    S    
C105  C113  A    
C18   C143  A    
C78   C118  A    
C36   C132  A    
C89   O13   A    
C32   C128  A    
C65   H17   S    
C188  H12   S    
C218  H92   S    
C66   C74   A    
C8    C76   S    
C49   C57   A    
C211  H71   S    
C124  C132  A    
C86   O10   A    
C213  H77   S    
C52   C60   A    
C59   C67   A    
C120  O76   S    
C53   C61   A    
C141  C159  A    
C134  O34   A    
C54   C139  S    
C23   C95   A    
O76   C216  S    
C55   C63   A    
C108  O64   S    
C86   C181  S    
C16   C192  S    
C56   C64   A    
O34   Zn12  S    
C35   C43   A    
C156  H1    S    
C199  H36   S    
C45   C53   A    
C22   C94   A    
C171  C179  A    
C169  C177  A    
C51   C59   A    
C199  H37   S    
C3    O3    A    
C50   C98   A    
C1    O1    A    
C219  H95   S    
C104  C112  A    
C205  H53   S    
C190  H22   S    
C214  H82   S    
O40   Zn9   S    
C145  C163  A    
C146  C164  A    
C14   C147  A    
C52   C100  A    
C91   O23   A    
C16   C145  A    
C213  H79   S    
C178  C186  A    
O57   C197  S    
C13   C189  S    
C25   C38   A    
C137  O37   A    
C116  O72   S    
C227  H107  S    
C46   C94   A    
C27   C40   A    
C10   C166  A    
C91   C180  S    
C182  C188  A    
C89   C178  S    
C220  H100  S    
C28   C36   A    
O16   Zn3   S    
C25   C97   A    
C208  H64   S    
C224  H104  S    
O12   Zn7   S    
C85   O17   A    
C29   C37   A    
O13   Zn2   S    
C210  H68   S    
C226  H106  S    
C216  H87   S    
C129  C225  S    
O23   Zn7   S    
C22   C30   A    
C140  O40   A    
C20   C141  A    
C207  H60   S    
O64   C204  S    
C102  O58   S    
C15   C146  A    
O20   Zn4   S    
O21   Zn5   S    
C58   C135  S    
C193  O53   D    
C59   C134  S    
C184  C187  A    
O36   Zn11  S    
O41   Zn11  S    
C194  O54   D    
C124  O80   S    
O42   Zn12  S    
C144  C152  A    
C56   C137  S    
C88   O20   A    
C60   C133  S    
C143  C151  A    
C210  H70   S    
C125  C221  S    
C5    C73   S    
C198  H34   S    
C150  H7    S    
O14   Zn1   S    
C13   C171  A    
C206  H58   S    
C67   C75   A    
C207  H59   S    
C190  O50   D    
C209  H65   S    
O10   Zn5   S    
C192  H24   S    
C90   O22   A    
C130  C226  S    
O38   Zn10  S    
C117  C125  A    
C25   C33   A    
C212  H75   S    
C119  C127  A    
O48   Zn9   S    
O22   Zn6   S    
C221  H101  S    
C191  H23   S    
C219  H97   S    
C76   C84   A    
C80   C120  A    
O69   C209  S    
C158  C168  A    
C214  H80   S    
C139  O45   A    
C5    O29   A    
C164  C165  A    
C223  O83   D    
C123  O79   S    
C29   C125  A    
C197  H29   S    
C14   C190  S    
C40   C115  A    
C122  O78   S    
C201  H42   S    
C177  C185  A    
O30   Zn1   S    
C103  C111  A    
C196  H28   S    
C73   C81   A    
C62   H14   S    
C162  C166  A    
C2    O26   A    
C79   C119  A    
C68   H20   S    
O71   C211  S    
C153  C155  A    
O24   Zn8   S    
C133  O43   A    
C154  C156  A    
C17   C193  S    
C172  C180  A    
C201  H43   S    
C173  C181  A    
C157  C159  A    
C83   C99   A    
C189  H21   S    
C158  C160  A    
C225  O85   D    
C135  O41   A    
C138  O48   A    
C6    C74   S    
C47   C103  A    
C50   C58   A    
O7    Zn7   S    
O31   Zn4   S    
C163  C166  A    
O35   Zn12  S    
O8    Zn8   S    
C197  H31   S    
C147  C161  A    
C105  O61   S    
C38   C113  A    
C49   C105  A    
C54   C62   A    
C28   C39   A    
O4    Zn4   S    
C1    C69   S    
C23   C44   A    
C88   O12   A    
C132  C228  S    
C222  O82   D    
C3    C71   S    
C198  H32   S    
C19   C173  A    
C79   C95   A    
C155  H2    S    
C206  H56   S    
C6    O6    A    
C207  H61   S    
C46   C54   A    
C217  H90   S    
C19   C142  A    
C87   O19   A    
C157  C167  A    
C102  C110  A    
C140  O46   A    
C91   O15   A    
C35   C131  A    
C4    C72   S    
C118  O74   S    
C33   C129  A    
C123  C131  A    
O6    Zn6   S    
C57   C65   A    
C217  H91   S    
C120  C128  A    
C26   C37   A    
O2    Zn2   S    
C33   C41   A    
C108  C116  A    
C149  C151  A    
C10   C171  A    
C75   C83   A    
O61   C201  S    
C77   C93   A    
C211  H72   S    
C213  H78   S    
C202  H44   S    
C44   C111  A    
C16   C170  A    
C18   C194  S    
O80   C220  S    
C60   C68   A    
C72   C80   A    
C39   C116  A    
C187  H11   S    
C50   C106  A    
C186  H10   S    
C9    C172  A    
C148  C156  A    
C83   C123  A    
C2    C70   S    
O43   Zn12  S    
C7    O7    A    
O25   Zn6   S    
C114  O70   S    
C218  H94   S    
C197  H30   S    
O67   C207  S    
C30   C126  A    
C192  O52   D    
C70   C78   A    
C53   C140  S    
C204  H50   S    
O79   C219  S    
C215  H83   S    
C141  C149  A    
C200  H38   S    
C46   C102  A    
C104  O60   S    
C55   C138  S    
C152  H5    S    
C106  C114  A    
C92   C179  S    
C219  H96   S    
C90   O14   A    
C77   C117  A    
O15   Zn4   S    
C66   H18   S    
C205  H54   S    
C214  H81   S    
C48   C104  A    
C65   C73   A    
C159  C168  A    
C15   C169  A    
C160  C167  A    
C85   O9    A    
C61   H13   S    
C58   C66   A    
C195  H27   S    
C57   C136  S    
C87   O11   A    
C220  H99   S    
O19   Zn3   S    
C133  O33   A    
C28   C100  A    
C103  O59   S    
C202  H46   S    
C208  H63   S    
C224  O84   D    
C226  O86   D    
C143  C157  A    
C51   C99   A    
C20   C174  A    
C11   C173  A    
C136  O36   A    
C14   C172  A    
C87   C184  S    
C88   C183  S    
C7    C75   S    
O45   Zn9   S    
C193  H25   S    
C211  H73   S    
C119  O75   S    
O62   C202  S    
O18   Zn2   S    
C216  H88   S    
C191  O51   D    
C19   C195  S    
O33   Zn11  S    
C204  H51   S    
C210  H69   S    
C110  O66   S    
C68   C76   A    
C198  H33   S    
C107  C115  A    
C45   C101  A    
C26   C98   A    
C12   C175  A    
C203  H48   S    
C199  H35   S    
C206  H57   S    
C7    O31   A    
C209  H66   S    
C41   C110  A    
C86   O18   A    
C204  H52   S    
C150  C152  A    
C80   C96   A    
C43   C112  A    
C144  C158  A    
C215  H85   S    
C67   H19   S    
O60   C200  S    
C47   C55   A    
C212  H74   S    
C74   C82   A    
C200  H40   S    
C61   C69   A    
C145  C153  A    
C48   C56   A    
O9    Zn6   S    
C142  C160  A    
C12   C168  A    
C228  O88   D    
C84   C124  A    
C209  H67   S    
C113  O69   S    
C4    O4    A    
C115  O71   S    
O17   Zn1   S    
O73   C213  S    
C109  O65   S    
C200  H39   S    
C81   C97   A    
O74   C214  S    
C31   C39   A    
C196  O56   D    
C64   C72   A    
O70   C210  S    
C180  C185  A    
C121  O77   S    
C34   C130  A    
O66   C206  S    
C47   C95   A    
O78   C218  S    
C118  C126  A    
C13   C148  A    
C89   O21   A    
C122  C130  A    
C153  H4    S    
