data_mof_unit_57351.cif
_audit_creation_date              2013-03-05T15:45:47-0500
_audit_creation_method            fapswitch 2.2
_symmetry_space_group_name_H-M    P1
_symmetry_Int_Tables_number       1
_space_group_crystal_system       triclinic
_cell_length_a                    9.965796
_cell_length_b                    11.027685
_cell_length_c                    15.590078
_cell_angle_alpha                 97.047338
_cell_angle_beta                  79.931816
_cell_angle_gamma                 111.258854
_cell_volume                      1568.87824773

loop_
_atom_site_label
_atom_site_type_symbol
_atom_site_description
_atom_site_fract_x
_atom_site_fract_y
_atom_site_fract_z
_atom_type_partial_charge
O1    O     O_R   0.426810 0.668300 0.492040 -0.573416
O2    O     O_R   0.573190 0.331700 0.507960 -0.570424
O3    O     O_R   0.658240 0.703130 0.517240 -0.515195
O4    O     O_R   0.341760 0.296870 0.482760 -0.530969
C1    C     C_R   0.557156 0.745780 0.505884 0.775340
C2    C     C_R   0.444866 0.254437 0.491046 0.760245
O5    O     O_R   0.319390 0.472820 0.610170 -0.510215
O6    O     O_R   0.680610 0.527180 0.389830 -0.512638
O7    O     O_R   0.550820 0.507640 0.635370 -0.573853
O8    O     O_R   0.449180 0.492360 0.364630 -0.588048
C3    C     C_R   0.411016 0.477072 0.662292 0.835819
C4    C     C_R   0.587584 0.517615 0.337239 0.855295
Cu1   Cu    Cu3+1 0.362980 0.479380 0.485080 1.137385
Cu2   Cu    Cu3+1 0.637020 0.520620 0.514920 1.147204
C5    C     C_R   0.354889 0.433356 0.752367 -0.201234
C6    C     C_R   0.637988 0.528513 0.242697 -0.195495
C7    C     C_R   0.165304 0.304124 0.861039 0.114586
C8    C     C_R   0.828642 0.595837 0.118954 0.110173
C9    C     C_R   0.209781 0.350205 0.776503 0.289154
C10   C     C_R   0.782204 0.602676 0.209754 0.298564
C11   C     C_R   0.454914 0.459405 0.811123 -0.173307
C12   C     C_R   0.537591 0.463803 0.185092 -0.179113
C13   C     C_R   0.417028 0.399229 0.890694 0.086458
C14   C     C_R   0.580223 0.453934 0.094671 0.084640
C15   C     C_R   0.268973 0.328955 0.918609 -0.029512
C16   C     C_R   0.728661 0.518809 0.062006 -0.026499
C17   C     C_R   0.523065 0.414593 0.945414 -0.045682
C18   C     C_R   0.477523 0.391017 0.034995 -0.042507
C19   C     C_R   0.331461 0.307842 0.059714 0.310157
C20   C     C_R   0.673466 0.449697 0.913935 0.298231
C21   C     C_R   0.229585 0.279948 0.001799 -0.178893
C22   C     C_R   0.773995 0.505774 0.972426 -0.188902
H1    H     H_    0.119845 0.216413 0.022220 0.210427
H2    H     H_    0.888366 0.536340 0.947213 0.208468
H3    H     H_    0.424680 0.424856 0.212331 0.214037
H4    H     H_    0.564688 0.525611 0.793493 0.191331
H5    H     H_    0.633171 0.139706 0.491054 0.225848
H6    H     H_    0.420479 0.865333 0.440566 0.229316
C23   C     C_2   0.590048 0.886921 0.511129 0.173794
C24   C     C_2   0.417692 0.114304 0.477403 0.169298
C25   C     C_2   0.506186 0.932534 0.475122 -0.166296
C26   C     C_2   0.526757 0.071064 0.480010 -0.151248
N1    N     N_2   0.842890 0.551600 0.537350 -0.130554
N2    N     N_2   0.157110 0.448400 0.462650 -0.147210
C27   C     C_2   0.933281 0.505486 0.483031 0.366008
C28   C     C_2   0.086445 0.526816 0.498392 0.384526
N3    N     N_R   0.874190 0.696035 0.267026 0.162617
O9    O     O_R   0.824887 0.776564 0.319346 -0.320073
O10   O     O_R   0.008241 0.704783 0.265440 -0.216769
N4    N     N_R   0.110959 0.300989 0.713339 0.152088
O11   O     O_R   0.076917 0.179925 0.683036 -0.249460
O12   O     O_R   0.050264 0.374579 0.688551 -0.248995
I1    I     I_    0.939170 0.196885 0.897916 -0.093477
I2    I     I_    0.043306 0.718376 0.067208 -0.108014
N5    N     N_R   0.289625 0.234303 0.136098 0.115950
O13   O     O_R   0.376222 0.181607 0.156850 -0.292372
O14   O     O_R   0.158025 0.204657 0.177893 -0.288663
N6    N     N_R   0.724928 0.412494 0.826194 0.126251
O15   O     O_R   0.644400 0.309492 0.784598 -0.282068
O16   O     O_R   0.861900 0.462935 0.795604 -0.294150
N7    N     N_R   0.276580 0.027090 0.460199 0.163938
O17   O     O_R   0.161249 0.031225 0.512596 -0.204365
O18   O     O_R   0.261795 0.961677 0.384975 -0.245427
N8    N     N_R   0.705416 0.971883 0.558080 0.133440
O19   O     O_R   0.829120 0.953476 0.548129 -0.211529
O20   O     O_R   0.679999 0.054686 0.619938 -0.273591
N9    N     N_R   0.163069 0.649247 0.540212 0.113875
O21   O     O_R   0.203743 0.653527 0.615738 -0.296574
O22   O     O_R   0.163835 0.755924 0.512428 -0.303097
N10   N     N_R   0.896481 0.447821 0.398494 0.121885
O23   O     O_R   0.992764 0.483721 0.329864 -0.301725
O24   O     O_R   0.787520 0.339496 0.391566 -0.349595
I3    I     I_    0.043734 0.252867 0.427713 0.152462
I4    I     I_    0.882165 0.656644 0.656754 0.092345

loop_
_geom_bond_atom_site_label_1
_geom_bond_atom_site_label_2
_geom_bond_distance
_ccdc_geom_bond_type
C15   C21   1.402981 A    
O5    Cu1   1.926839 S    
N4    O12   1.299400 A    
O7    Cu2   1.922877 S    
C21   H1    1.079656 S    
C5    C9    1.416509 A    
C16   C22   1.397268 A    
N10   O23   1.300675 A    
C12   H3    1.076202 S    
C13   C17   1.422341 A    
N1    C27   1.321742 D    
C25   C26   1.459924 S    
N3    O9    1.301507 A    
C8    C16   1.418828 A    
C6    C10   1.410978 A    
O6    C4    1.310135 A    
C7    C15   1.416570 A    
N8    O19   1.300750 A    
N7    O17   1.300382 A    
N1    I4    2.087383 S    
C24   C26   1.344049 D    
N4    O11   1.301341 A    
C27   N10   1.438767 S    
C28   N9    1.428811 S    
C19   C21   1.402327 A    
C11   H4    1.081803 S    
C27   C28   1.515326 S    
C17   C20   1.416323 A    
C20   C22   1.396226 A    
C23   N8    1.442327 S    
O7    C3    1.311732 A    
C9    N4    1.433343 S    
N8    O20   1.301620 A    
C2    C24   1.463790 S    
O2    C2    1.305213 A    
O3    Cu2   1.942421 S    
O8    C4    1.306550 A    
O1    C1    1.308414 A    
C20   N6    1.439459 S    
O4    C2    1.304366 A    
C18   C19   1.425158 A    
C7    C9    1.410098 A    
N2    C28   1.319236 D    
O5    C3    1.309707 A    
C8    C10   1.412006 A    
N5    O14   1.301556 A    
C11   C13   1.406547 A    
N2    I3    2.093575 S    
O2    Cu2   1.940208 S    
C12   C14   1.402147 A    
N5    O13   1.301766 A    
C10   N3    1.440063 S    
O1    Cu1   1.940206 S    
H5    C26   1.084907 S    
N6    O16   1.298860 A    
N9    O21   1.300901 A    
C7    I1    2.142192 S    
C5    C11   1.400823 A    
C13   C15   1.412827 A    
C6    C12   1.398561 A    
C23   C25   1.343424 D    
H6    C25   1.082998 S    
N3    O10   1.300064 A    
C4    C6    1.476504 S    
N9    O22   1.299590 A    
O4    Cu1   1.942423 S    
N7    O18   1.301211 A    
C1    C23   1.464530 S    
C8    I2    2.149699 S    
O6    Cu2   1.926838 S    
C19   N5    1.437966 S    
O3    C1    1.301445 A    
N6    O15   1.301905 A    
Cu1   Cu2   2.715399 S    
C3    C5    1.487676 S    
N10   O24   1.298657 A    
Cu1   N2    2.039985 S    
C24   N7    1.436096 S    
C14   C18   1.433200 A    
C14   C16   1.420576 A    
Cu2   N1    2.039986 S    
C17   C18   1.416293 A    
O8    Cu1   1.922874 S    
C22   H2    1.079129 S    
