data_mof_unit_54783.cif
_audit_creation_date              2012-12-11T15:55:48-0500
_audit_creation_method            fapswitch 2.2
_symmetry_space_group_name_H-M    P1
_symmetry_Int_Tables_number       1
_space_group_crystal_system       triclinic
_cell_length_a                    6.940306
_cell_length_b                    14.544426
_cell_length_c                    16.09156
_cell_angle_alpha                 89.951166
_cell_angle_beta                  90.030042
_cell_angle_gamma                 90.10202
_cell_volume                      1624.32320537

loop_
_atom_site_label
_atom_site_type_symbol
_atom_type_description
_atom_site_fract_x
_atom_site_fract_y
_atom_site_fract_z
_atom_type_partial_charge
O1    O     O_R   0.505680 0.583900 0.413320 -0.540276
O2    O     O_R   0.176010 0.594950 0.586080 -0.543302
O3    O     O_R   0.005680 0.416100 0.586680 -0.537144
C1    C     C_R   0.345137 0.617155 0.615025 0.683792
O4    O     O_R   0.175960 0.594930 0.413930 -0.543548
O5    O     O_R   0.005640 0.416080 0.413300 -0.540420
C2    C     C_R   0.345057 0.617139 0.385002 0.686462
O6    O     O_R   0.505720 0.583920 0.586700 -0.540904
O7    O     O_3   0.339190 0.441320 0.500000 -0.368731
V1    V     V_3+5 0.064350 0.510890 0.500000 1.395293
O8    O     O_R   0.675920 0.405050 0.413920 -0.544329
C3    C     C_R   0.844768 0.383041 0.384924 0.712252
O9    O     O_R   0.675960 0.405070 0.586070 -0.542962
C4    C     C_R   0.844669 0.383033 0.614915 0.696209
V2    V     V_3+5 0.564340 0.489110 0.500000 1.393960
O10   O     O_3   0.839370 0.558680 0.500000 -0.370623
C5    C     C_R   0.008774 0.252309 0.689320 0.104904
C6    C     C_R   0.852606 0.312588 0.681523 -0.111433
C7    C     C_R   0.700554 0.302571 0.738781 -0.177468
H1    H     H_    0.577747 0.347917 0.735553 0.129792
C8    C     C_R   0.712245 0.238727 0.804593 -0.181536
H2    H     H_    0.596995 0.235936 0.849694 0.127019
C9    C     C_R   0.876981 0.183506 0.815433 -0.108800
C10   C     C_R   0.020764 0.189444 0.754649 0.103331
C11   C     C_3   0.231330 0.205582 0.764979 -0.416388
C12   C     C_3   0.218381 0.273625 0.693536 -0.395690
H3    H     H_    0.317715 0.143517 0.749891 0.175179
H4    H     H_    0.265240 0.238552 0.825538 0.167629
H5    H     H_    0.296574 0.250740 0.636964 0.176660
H6    H     H_    0.245661 0.345980 0.712471 0.165722
C13   C     C_R   0.045681 0.237328 0.208704 0.472545
C14   C     C_R   0.032429 0.299168 0.275498 -0.233555
H7    H     H_    0.161654 0.334825 0.295331 0.134484
C15   C     C_R   0.855997 0.315545 0.315654 -0.116908
C16   C     C_R   0.692070 0.267367 0.288585 -0.149581
H8    H     H_    0.553746 0.278054 0.318132 0.145498
C17   C     C_R   0.704996 0.203493 0.223807 -0.215324
H9    H     H_    0.576524 0.166070 0.206182 0.194170
C18   C     C_R   0.881111 0.187000 0.183054 -0.158860
C19   C     C_R   0.188290 0.724612 0.717419 -0.157879
H10   H     H_    0.047712 0.706161 0.693386 0.116893
C20   C     C_R   0.199279 0.788176 0.782611 -0.153943
H11   H     H_    0.066655 0.816873 0.806594 0.118126
C21   C     C_R   0.378599 0.814380 0.816191 -0.045668
C22   C     C_R   0.546620 0.775238 0.782648 -0.157734
H12   H     H_    0.687200 0.793692 0.806678 0.116351
C23   C     C_R   0.535632 0.711675 0.717455 -0.154302
H13   H     H_    0.668258 0.682985 0.693468 0.118437
C24   C     C_R   0.356313 0.685473 0.683873 -0.047016
C25   C     C_R   0.188280 0.724428 0.282361 -0.158508
H14   H     H_    0.047651 0.705839 0.306217 0.116893
C26   C     C_R   0.199398 0.788007 0.217141 -0.151265
H15   H     H_    0.066780 0.816592 0.192940 0.118209
C27   C     C_R   0.378833 0.814360 0.183812 -0.047413
C28   C     C_R   0.546839 0.775355 0.217577 -0.157940
H16   H     H_    0.687463 0.793944 0.193715 0.116115
C29   C     C_R   0.535721 0.711774 0.282800 -0.152645
H17   H     H_    0.668331 0.683181 0.307001 0.118614
C30   C     C_R   0.356285 0.685448 0.316146 -0.047317
O11   O     O_R   0.229200 0.915950 0.913350 -0.542740
O12   O     O_R   0.559090 0.905000 0.086080 -0.544611
O13   O     O_R   0.729280 0.083880 0.086680 -0.544119
C31   C     C_R   0.390019 0.882728 0.115002 0.691404
O14   O     O_R   0.558920 0.904980 0.913920 -0.544531
O15   O     O_R   0.729110 0.083860 0.913300 -0.541256
C32   C     C_R   0.389783 0.882727 0.885015 0.679627
O16   O     O_R   0.229360 0.915970 0.086730 -0.540570
O17   O     O_3   0.395680 0.058580 0.000030 -0.361350
V3    V     V_3+5 0.670570 0.989070 0.999990 1.401450
O18   O     O_R   0.058820 0.094950 0.913870 -0.542131
C33   C     C_R   0.889769 0.117283 0.885339 0.685766
O19   O     O_R   0.058990 0.094970 0.086020 -0.507574
C34   C     C_R   0.890448 0.117657 0.114701 0.718887
V4    V     V_3+5 0.170560 0.010930 0.999930 1.437287
O20   O     O_3   0.895590 0.941310 0.999960 -0.376099
O21   O     O_3   0.223104 0.222316 0.172275 -0.556091
C35   C     C_3   0.262439 0.295100 0.116873 -0.253653
H18   H     H_    0.282106 0.361174 0.150634 0.125096
H19   H     H_    0.147538 0.301793 0.068889 0.118852
H20   H     H_    0.399274 0.279953 0.084035 0.161229

loop_
_geom_bond_atom_site_label_1
_geom_bond_atom_site_label_2
_ccdc_geom_bond_type
C28   H16   S    
C4    C6    S    
C21   C32   S    
C16   H8    S    
C1    O6    A    
C13   O21   S    
C23   C24   A    
C22   H12   S    
C21   C22   A    
C11   H4    S    
C5    C12   S    
C16   C17   A    
C6    C7    A    
O5    C3    A    
C29   C30   A    
C27   C31   S    
O17   V4    S    
V2    O10   S    
C15   C16   A    
C22   C23   A    
O12   C31   A    
O8    V2    S    
C7    H1    S    
O17   V3    S    
O18   V4    S    
C25   C26   A    
C9    C10   A    
O13   C34   A    
O18   C33   A    
O1    V2    S    
O7    V1    S    
C19   C20   A    
O11   C32   A    
O9    C4    A    
C20   C21   A    
C2    C30   S    
C26   C27   A    
C25   H14   S    
C35   H19   S    
C8    C9    A    
C31   O16   A    
C5    C10   A    
V4    O20   S    
C23   H13   S    
C9    C33   S    
C10   C11   S    
O19   V4    S    
O4    C2    A    
C11   C12   S    
C35   H18   S    
O13   V3    S    
O14   C32   A    
O2    C1    A    
C17   H9    S    
C13   C14   A    
C5    C6    A    
O16   V4    S    
O14   V3    S    
O21   C35   S    
O3    C4    A    
C19   H10   S    
C12   H6    S    
O6    V2    S    
C28   C29   A    
C20   H11   S    
C25   C30   A    
C3    C15   S    
O2    V1    S    
C26   H15   S    
C35   H20   S    
O12   V3    S    
C27   C28   A    
C7    C8    A    
O1    C2    A    
O19   C34   A    
O5    V1    S    
O8    C3    A    
C11   H3    S    
C1    C24   S    
C14   H7    S    
O9    V2    S    
O7    V2    S    
O4    V1    S    
C17   C18   A    
O3    V1    S    
O15   C33   A    
C29   H17   S    
O15   V3    S    
O11   V4    S    
C13   C18   A    
V3    O20   S    
C18   C34   S    
C12   H5    S    
V1    O10   S    
C8    H2    S    
C19   C24   A    
C14   C15   A    
