data_mof_unit_13203.cif
_audit_creation_date              2013-03-05T16:00:01-0500
_audit_creation_method            fapswitch 2.2
_symmetry_space_group_name_H-M    P1
_symmetry_Int_Tables_number       1
_space_group_crystal_system       triclinic
_cell_length_a                    26.139168
_cell_length_b                    7.245665
_cell_length_c                    23.808584
_cell_angle_alpha                 89.966753
_cell_angle_beta                  101.286917
_cell_angle_gamma                 90.077467
_cell_volume                      4422.02652073

loop_
_atom_site_label
_atom_site_type_symbol
_atom_site_description
_atom_site_fract_x
_atom_site_fract_y
_atom_site_fract_z
_atom_type_partial_charge
O1    O     O_R   0.192370 0.384760 0.193350 -0.573261
O2    O     O_R   0.807630 0.615240 0.806650 -0.572298
O3    O     O_R   0.307630 0.884760 0.306650 -0.573138
O4    O     O_R   0.692370 0.115240 0.693350 -0.571086
O5    O     O_R   0.296630 0.711620 0.196480 -0.594968
O6    O     O_R   0.703370 0.288380 0.803520 -0.596320
O7    O     O_R   0.203370 0.211620 0.303520 -0.594665
O8    O     O_R   0.796630 0.788380 0.696480 -0.603128
C1    C     C_R   0.311641 0.546014 0.183006 0.935164
C2    C     C_R   0.688364 0.453987 0.817001 0.932736
C3    C     C_R   0.188355 0.045781 0.317006 0.934969
C4    C     C_R   0.810623 0.954465 0.681989 0.932804
O9    O     O_R   0.192080 0.714290 0.186600 -0.572530
O10   O     O_R   0.807920 0.285710 0.813400 -0.573338
O11   O     O_R   0.307920 0.214290 0.313400 -0.572632
O12   O     O_R   0.692080 0.785710 0.686600 -0.577116
O13   O     O_R   0.202340 0.887460 0.296690 -0.591421
O14   O     O_R   0.797660 0.112540 0.703310 -0.585268
O15   O     O_R   0.297660 0.387460 0.203310 -0.591427
O16   O     O_R   0.702340 0.612540 0.796690 -0.592696
C5    C     C_R   0.173807 0.546130 0.171385 0.933244
C6    C     C_R   0.826195 0.453869 0.828613 0.933569
C7    C     C_R   0.326209 0.046243 0.328599 0.933098
C8    C     C_R   0.673808 0.953794 0.671374 0.936067
O17   O     O_3   0.253490 0.552180 0.286130 -0.292202
O18   O     O_3   0.746510 0.447820 0.713870 -0.282153
O19   O     O_3   0.246510 0.052180 0.213870 -0.292281
O20   O     O_3   0.753490 0.947820 0.786130 -0.293645
V1    V     V_3+5 0.249350 0.825920 0.243300 1.166698
V2    V     V_3+5 0.750650 0.174080 0.756700 1.175512
V3    V     V_3+5 0.250650 0.325920 0.256700 1.166750
V4    V     V_3+5 0.749350 0.674080 0.743300 1.174073
C9    C     C_3   0.536236 0.895524 0.480032 -0.364874
C10   C     C_3   0.463954 0.105718 0.519735 -0.366982
C11   C     C_3   0.963776 0.395043 0.019842 -0.368731
C12   C     C_3   0.036268 0.604952 0.980102 -0.368641
C13   C     C_3   0.513382 0.082350 0.455069 0.300261
C14   C     C_3   0.486801 0.918880 0.544692 0.300392
C15   C     C_3   0.986807 0.581807 0.044765 0.301173
C16   C     C_3   0.013236 0.418188 0.955177 0.301518
H1    H     H_    0.564946 0.809182 0.463278 0.228680
H2    H     H_    0.435237 0.192070 0.536474 0.227690
H3    H     H_    0.934973 0.308796 0.036592 0.227616
H4    H     H_    0.065071 0.691200 0.963352 0.227620
C17   C     C_1   0.371765 0.039244 0.374372 -0.251703
C18   C     C_1   0.628294 0.961054 0.625542 -0.245312
C19   C     C_1   0.128298 0.538835 0.125562 -0.251622
C20   C     C_1   0.871719 0.461159 0.874418 -0.251426
C21   C     C_3   0.479826 0.837525 0.484189 0.312247
C22   C     C_3   0.520373 0.163721 0.515579 0.311088
C23   C     C_3   0.020133 0.336846 0.015702 0.313519
C24   C     C_3   0.979910 0.663149 0.984241 0.313551
C25   C     C_3   0.457375 0.021934 0.458334 -0.181662
C26   C     C_3   0.542808 0.979280 0.541439 -0.182311
C27   C     C_3   0.042754 0.521203 0.041521 -0.182000
C28   C     C_3   0.957289 0.478791 0.958423 -0.181998
C29   C     C_1   0.410220 0.033380 0.412336 0.268408
C30   C     C_1   0.589897 0.967381 0.587508 0.269993
C31   C     C_1   0.089882 0.532761 0.087552 0.268146
C32   C     C_1   0.910150 0.467232 0.912409 0.268188
C33   C     C_R   0.881216 0.117253 0.645044 -0.223467
C34   C     C_R   0.119852 0.876596 0.356154 -0.230482
C35   C     C_R   0.619870 0.622106 0.856178 -0.231185
C36   C     C_R   0.380150 0.377904 0.143855 -0.231024
H5    H     H_    0.879279 0.223896 0.676476 0.153856
H6    H     H_    0.123361 0.766557 0.326318 0.151274
H7    H     H_    0.623488 0.732673 0.826507 0.151080
H8    H     H_    0.376528 0.267347 0.173529 0.151265
C37   C     C_R   0.917686 0.137534 0.609192 0.172084
C38   C     C_R   0.083913 0.854541 0.392561 0.175333
C39   C     C_R   0.583835 0.643216 0.892482 0.175807
C40   C     C_R   0.416196 0.356790 0.107564 0.175615
C41   C     C_R   0.922829 0.995350 0.569849 0.048737
C42   C     C_R   0.077577 0.998403 0.430847 0.055309
C43   C     C_R   0.577294 0.498454 0.930468 0.055458
C44   C     C_R   0.422739 0.501537 0.069573 0.055433
C45   C     C_R   0.887794 0.846355 0.564108 -0.219697
C46   C     C_R   0.110191 0.153690 0.434279 -0.229680
C47   C     C_R   0.609919 0.343507 0.933835 -0.230538
C48   C     C_R   0.390113 0.656485 0.066197 -0.230117
H9    H     H_    0.890935 0.738982 0.533290 0.132735
H10   H     H_    0.106205 0.261485 0.464679 0.132342
H11   H     H_    0.605835 0.235086 0.964047 0.132639
H12   H     H_    0.394203 0.764902 0.035986 0.132658
C49   C     C_R   0.847954 0.834072 0.596177 0.161545
C50   C     C_R   0.147879 0.173040 0.399684 0.157173
C51   C     C_R   0.647781 0.325313 0.899454 0.157092
C52   C     C_R   0.352245 0.674690 0.100569 0.157203
C53   C     C_R   0.846798 0.965779 0.640457 -0.198154
C54   C     C_R   0.151612 0.034648 0.358046 -0.188192
C55   C     C_R   0.651603 0.464356 0.857990 -0.186874
C56   C     C_R   0.348413 0.535646 0.142030 -0.187952
N1    N     N_R   0.952350 0.930651 0.479225 -0.077248
N2    N     N_R   0.048533 0.059850 0.521919 -0.073911
N3    N     N_R   0.547735 0.431789 0.020944 -0.074263
N4    N     N_R   0.452300 0.568187 0.979098 -0.073948
N5    N     N_R   0.988569 0.929459 0.446808 -0.076555
N6    N     N_R   0.012321 0.060844 0.554354 -0.075836
N7    N     N_R   0.511509 0.430427 0.053348 -0.076186
N8    N     N_R   0.488525 0.569550 0.946694 -0.075919
C57   C     C_R   0.037530 0.993090 0.467543 0.101978
C58   C     C_R   0.963304 0.997682 0.533581 0.101604
C59   C     C_R   0.462888 0.497378 0.033000 0.101726
C60   C     C_R   0.537147 0.502600 0.967043 0.101703
N9    N     N_R   0.529239 0.174578 0.406807 0.278528
O21   O     O_R   0.578126 0.213910 0.408929 -0.339469
O22   O     O_R   0.495193 0.210814 0.360543 -0.367348
N10   N     N_R   0.470918 0.826630 0.592937 0.278779
O23   O     O_R   0.422027 0.787309 0.590782 -0.336416
O24   O     O_R   0.504942 0.790373 0.639217 -0.367240
N11   N     N_R   0.971023 0.674069 0.093007 0.278909
O25   O     O_R   0.922177 0.713671 0.090842 -0.336814
O26   O     O_R   0.005076 0.709926 0.139311 -0.366928
N12   N     N_R   0.029018 0.325941 0.906930 0.278853
O27   O     O_R   0.077862 0.286332 0.909092 -0.336957
O28   O     O_R   0.994966 0.290149 0.860619 -0.367789
N13   N     N_R   0.543914 0.341874 0.533406 0.268454
O29   O     O_R   0.521469 0.452090 0.564183 -0.339487
O30   O     O_R   0.590485 0.380499 0.525193 -0.373198
N14   N     N_R   0.456307 0.659380 0.466347 0.268698
O31   O     O_R   0.478751 0.549229 0.435550 -0.339833
O32   O     O_R   0.409722 0.620832 0.474506 -0.381263
N15   N     N_R   0.956555 0.841319 0.966337 0.268679
O33   O     O_R   0.979048 0.951140 0.935397 -0.339291
O34   O     O_R   0.910021 0.880079 0.974524 -0.381018
N16   N     N_R   0.043489 0.158677 0.033605 0.268649
O35   O     O_R   0.020998 0.048854 0.064545 -0.339292
O36   O     O_R   0.090023 0.119920 0.025417 -0.380979
C61   C     C_3   0.946953 0.318864 0.611534 -0.484310
C62   C     C_3   0.991733 0.327613 0.663712 -0.210065
C63   C     C_3   0.020909 0.510835 0.665617 -0.836627
H13   H     H_    0.038088 0.527025 0.626744 0.253097
H14   H     H_    0.994021 0.627854 0.668185 0.260008
H15   H     H_    0.052879 0.514319 0.703935 0.265573
H16   H     H_    0.976088 0.312996 0.703681 0.221099
H17   H     H_    0.019516 0.212789 0.661967 0.213090
H18   H     H_    0.961885 0.343509 0.571648 0.201571
H19   H     H_    0.919326 0.433879 0.613932 0.190033
C64   C     C_3   0.056586 0.669896 0.392143 -0.489987
C65   C     C_3   0.011863 0.651388 0.340212 -0.207223
C66   C     C_3   0.985159 0.463787 0.339934 -0.845025
H20   H     H_    0.013512 0.350913 0.338008 0.261152
H21   H     H_    0.968484 0.446924 0.379125 0.253816
H22   H     H_    0.953072 0.453402 0.301871 0.264880
H23   H     H_    0.982629 0.761947 0.341178 0.213078
H24   H     H_    0.027170 0.666040 0.300033 0.219241
H25   H     H_    0.085378 0.558196 0.390734 0.189569
H26   H     H_    0.041920 0.647015 0.432290 0.201465
C67   C     C_3   0.556694 0.827874 0.892313 -0.490235
C68   C     C_3   0.511928 0.847132 0.840466 -0.207318
C69   C     C_3   0.485409 0.034728 0.840464 -0.842727
H27   H     H_    0.468826 0.051029 0.879725 0.254200
H28   H     H_    0.513852 0.147639 0.838609 0.260623
H29   H     H_    0.453278 0.045654 0.802467 0.265122
H30   H     H_    0.527170 0.833095 0.800235 0.218981
H31   H     H_    0.482598 0.736547 0.841328 0.213763
H32   H     H_    0.542176 0.850366 0.932551 0.201498
H33   H     H_    0.585576 0.939567 0.890941 0.189299
C70   C     C_3   0.443349 0.172148 0.107757 -0.489695
C71   C     C_3   0.488107 0.152969 0.159617 -0.207177
C72   C     C_3   0.514639 0.965387 0.159651 -0.844573
H34   H     H_    0.486200 0.852464 0.161508 0.260898
H35   H     H_    0.531236 0.949052 0.120401 0.254324
H36   H     H_    0.546760 0.954518 0.197658 0.264559
H37   H     H_    0.517432 0.263568 0.158750 0.213376
H38   H     H_    0.472854 0.167045 0.199839 0.219022
H39   H     H_    0.414473 0.060437 0.109131 0.189288
H40   H     H_    0.457879 0.149629 0.067527 0.201490
C73   C     C_3   0.807121 0.683545 0.579133 -0.440751
C74   C     C_3   0.777304 0.708579 0.517217 -0.330652
C75   C     C_3   0.734379 0.563642 0.501635 -0.757426
H41   H     H_    0.751394 0.422697 0.506115 0.249820
H42   H     H_    0.705363 0.576872 0.529829 0.271659
H43   H     H_    0.714006 0.583677 0.456550 0.259460
H44   H     H_    0.759280 0.848093 0.512248 0.216583
H45   H     H_    0.804249 0.696094 0.486682 0.212428
H46   H     H_    0.826771 0.546852 0.583694 0.188755
H47   H     H_    0.777309 0.681359 0.605982 0.223868
C76   C     C_3   0.184122 0.338937 0.410812 -0.435335
C77   C     C_3   0.240063 0.280869 0.437709 -0.278189
C78   C     C_3   0.276807 0.446684 0.446634 -0.730669
H48   H     H_    0.278227 0.513424 0.404972 0.265648
H49   H     H_    0.263614 0.549018 0.475466 0.244318
H50   H     H_    0.316730 0.400160 0.466433 0.268544
H51   H     H_    0.240210 0.214422 0.479847 0.207499
H52   H     H_    0.255232 0.179201 0.410259 0.183039
H53   H     H_    0.182682 0.420528 0.371145 0.216288
H54   H     H_    0.170769 0.435922 0.441151 0.175909
C79   C     C_3   0.684107 0.159930 0.910641 -0.434854
C80   C     C_3   0.740000 0.218733 0.937644 -0.278058
C81   C     C_3   0.776818 0.053449 0.946627 -0.732098
H55   H     H_    0.763625 0.950758 0.975423 0.244328
H56   H     H_    0.778329 0.986949 0.904979 0.265645
H57   H     H_    0.816705 0.100485 0.966491 0.268296
H58   H     H_    0.755176 0.320795 0.910245 0.182691
H59   H     H_    0.740046 0.284942 0.979772 0.207286
H60   H     H_    0.670763 0.062568 0.940949 0.175677
H61   H     H_    0.682769 0.078492 0.870990 0.216085
C82   C     C_3   0.315926 0.840094 0.089381 -0.434910
C83   C     C_3   0.260033 0.781328 0.062369 -0.277949
C84   C     C_3   0.223220 0.946630 0.053398 -0.731469
H62   H     H_    0.221706 0.013083 0.095052 0.265784
H63   H     H_    0.236421 0.049353 0.024617 0.244363
H64   H     H_    0.183333 0.899625 0.033523 0.268273
H65   H     H_    0.259987 0.715157 0.020235 0.207419
H66   H     H_    0.244850 0.679244 0.089756 0.182869
H67   H     H_    0.317264 0.921524 0.129034 0.216343
H68   H     H_    0.329279 0.937456 0.059079 0.175752

loop_
_geom_bond_atom_site_label_1
_geom_bond_atom_site_label_2
_geom_bond_distance
_ccdc_geom_bond_type
C79   H61   1.108281 S    
O17   V3    1.778976 S    
N7    C59   1.358546 A    
C75   H41   1.111144 S    
O1    C5    1.333236 A    
C80   C81   1.525924 S    
C7    C17   1.449246 S    
C27   C31   1.482213 S    
O19   V1    1.778412 S    
C22   N13   1.456458 S    
O13   V1    1.984478 S    
C73   C74   1.537442 S    
O3    C7    1.333337 A    
N11   O25   1.300142 A    
C10   H2    1.110129 S    
N8    C60   1.358542 A    
C48   H12   1.084017 S    
C63   H15   1.110312 S    
O15   V3    1.983400 S    
C47   C51   1.408725 A    
C72   H34   1.111385 S    
O4    V2    1.968997 S    
N15   O33   1.299640 A    
C14   C21   1.534164 S    
C74   H45   1.110602 S    
C78   H48   1.110355 S    
C70   H40   1.109519 S    
O7    C3    1.322352 A    
C75   H42   1.111131 S    
C64   H25   1.110904 S    
C83   H65   1.111867 S    
C40   C70   1.514900 S    
C36   H8    1.084031 S    
C52   C82   1.520597 S    
O9    V1    1.981034 S    
C49   C53   1.427138 A    
C51   C55   1.427132 A    
N13   O30   1.300263 A    
O16   V4    1.983400 S    
O4    C8    1.333180 A    
C24   N15   1.456228 S    
N3    N7    1.333371 A    
N15   O34   1.300074 A    
C21   N14   1.456277 S    
C76   H53   1.108291 S    
C74   C75   1.527664 S    
N2    N6    1.333608 A    
C9    C21   1.554354 S    
C34   C54   1.409085 A    
O1    V3    1.969510 S    
N10   O23   1.300144 A    
C34   C38   1.406247 A    
O2    V4    1.969507 S    
C84   H62   1.110358 S    
C69   H29   1.110275 S    
O3    V1    1.968994 S    
C15   N11   1.457215 S    
C66   H20   1.111402 S    
C1    O15   1.324555 A    
C15   C27   1.543838 S    
C61   H19   1.112246 S    
C52   C56   1.427123 A    
N2    C57   1.359163 A    
C2    O16   1.324568 A    
C83   C84   1.525929 S    
C16   C28   1.543845 S    
C38   C42   1.416167 A    
C83   H66   1.108935 S    
C69   H27   1.111058 S    
C37   C41   1.416905 A    
O14   V2    1.984476 S    
C71   H38   1.111809 S    
C11   H3    1.110128 S    
C67   H33   1.110828 S    
C12   C24   1.554413 S    
C80   H59   1.111868 S    
C51   C79   1.520591 S    
C13   C25   1.543902 S    
C46   C50   1.409129 A    
C44   C59   1.489410 S    
O11   C7    1.332442 A    
C15   C24   1.534246 S    
C45   C49   1.409352 A    
C82   C83   1.536331 S    
O12   C8    1.332682 A    
C68   H31   1.111161 S    
C18   C30   1.213983 T    
C84   H63   1.110803 S    
O10   V2    1.981034 S    
C1    C56   1.499532 S    
C73   H46   1.111753 S    
C72   H35   1.111048 S    
C33   C53   1.408858 A    
C20   C32   1.213857 T    
O5    V1    1.999732 S    
C74   H44   1.112277 S    
C78   H49   1.110807 S    
C75   H43   1.110476 S    
C16   N12   1.457231 S    
C64   H26   1.109577 S    
C10   C22   1.554581 S    
O7    V3    1.997813 S    
C34   H6    1.084013 S    
C81   H55   1.110798 S    
O8    V4    1.997811 S    
C4    C53   1.498126 S    
C12   C16   1.550709 S    
C65   C66   1.526624 S    
C50   C54   1.427249 A    
C66   H22   1.110297 S    
C65   H24   1.111784 S    
C25   C29   1.482320 S    
O18   V4    1.778976 S    
C76   H54   1.112352 S    
C13   N9    1.457224 S    
N6    C58   1.358791 A    
C49   C73   1.523584 S    
C28   C32   1.482193 S    
N1    C58   1.359393 A    
C11   C15   1.550686 S    
C81   H56   1.110363 S    
C35   H7    1.084027 S    
O5    C1    1.322001 A    
N3    C60   1.359158 A    
C70   H39   1.110835 S    
N9    O22   1.300298 A    
C46   H10   1.084046 S    
C70   C71   1.532102 S    
C14   C26   1.543825 S    
C45   H9    1.083870 S    
O8    C4    1.322384 A    
C17   C29   1.213929 T    
C82   H67   1.108284 S    
O9    C5    1.332347 A    
C40   C44   1.416439 A    
N11   O26   1.300301 A    
C22   C26   1.539073 S    
C71   H37   1.111163 S    
C77   H52   1.108953 S    
C80   H58   1.108932 S    
C42   C57   1.489439 S    
C41   C58   1.490905 S    
O6    V2    1.999733 S    
C62   H16   1.111795 S    
C35   C39   1.406030 A    
C2    C55   1.499556 S    
C68   H30   1.111810 S    
C6    C20   1.449133 S    
C11   C23   1.554408 S    
C43   C60   1.489405 S    
C84   H64   1.110439 S    
C12   H4    1.110127 S    
C36   C56   1.408840 A    
C4    O14   1.324150 A    
C63   H13   1.111035 S    
N1    N5    1.333458 A    
C73   H47   1.100476 S    
C72   H36   1.110275 S    
C77   C78   1.525899 S    
N14   O32   1.300071 A    
C61   C62   1.532335 S    
C26   C30   1.482312 S    
C78   H50   1.110418 S    
C79   H60   1.112325 S    
C9    C26   1.561306 S    
C3    O13   1.324583 A    
N16   O36   1.300075 A    
C11   C28   1.561230 S    
C10   C14   1.550719 S    
C23   N16   1.456222 S    
C62   H17   1.111219 S    
C44   C48   1.403523 A    
C63   H14   1.111349 S    
N12   O27   1.300141 A    
C65   H23   1.111193 S    
O6    C2    1.322010 A    
N12   O28   1.300309 A    
C64   C65   1.532089 S    
O11   V3    1.982047 S    
O12   V4    1.982045 S    
C16   C23   1.534267 S    
N9    O21   1.300155 A    
C68   C69   1.526636 S    
C50   C76   1.520397 S    
C9    H1    1.110127 S    
C71   C72   1.526639 S    
O2    C6    1.333247 A    
C66   H21   1.111084 S    
C62   C63   1.526405 S    
C81   H57   1.110438 S    
C8    C18   1.449399 S    
C48   C52   1.408721 A    
C12   C27   1.561245 S    
N13   O29   1.299660 A    
C47   H11   1.084015 S    
C13   C22   1.534336 S    
C3    C54   1.500245 S    
O10   C6    1.332350 A    
C39   C67   1.514898 S    
C43   C47   1.403516 A    
N16   O35   1.299637 A    
C21   C25   1.538959 S    
N4    N8    1.333363 A    
O20   V2    1.778412 S    
C82   H68   1.112329 S    
N10   O24   1.300296 A    
C23   C27   1.538952 S    
C33   C37   1.406031 A    
C69   H28   1.111384 S    
C14   N10   1.457237 S    
C79   C80   1.536327 S    
C9    C13   1.550760 S    
C77   H51   1.111868 S    
C19   C31   1.213865 T    
C76   C77   1.536273 S    
C33   H5    1.084104 S    
C38   C64   1.514890 S    
C61   H18   1.109373 S    
C10   C25   1.561265 S    
C37   C61   1.515018 S    
C42   C46   1.403451 A    
N4    C59   1.359158 A    
C35   C55   1.408845 A    
C41   C45   1.404023 A    
N14   O31   1.299660 A    
C67   C68   1.532090 S    
C67   H32   1.109522 S    
N5    C57   1.358508 A    
C24   C28   1.538942 S    
C36   C40   1.406029 A    
C5    C19   1.449139 S    
C39   C43   1.416432 A    
