data_mof_unit_35116.cif
_audit_creation_date              2012-12-10T17:21:20-0500
_audit_creation_method            fapswitch 2.2
_symmetry_space_group_name_H-M    P1
_symmetry_Int_Tables_number       1
_space_group_crystal_system       triclinic
_cell_length_a                    9.649201
_cell_length_b                    10.771379
_cell_length_c                    13.866731
_cell_angle_alpha                 92.557776
_cell_angle_beta                  85.618112
_cell_angle_gamma                 89.351983
_cell_volume                      1435.44023526

loop_
_atom_site_label
_atom_site_type_symbol
_atom_type_description
_atom_site_fract_x
_atom_site_fract_y
_atom_site_fract_z
_atom_type_partial_charge
C1    C     C_R   0.499023 0.737273 0.502758 0.780570
C2    C     C_1   0.465696 0.499111 0.785609 -0.170180
C3    C     C_R   0.342437 0.881426 0.659430 -0.191223
C4    C     C_R   0.267549 0.951524 0.733153 -0.137118
C5    C     C_R   0.268752 0.080657 0.733568 -0.128245
C6    C     C_R   0.344838 0.140516 0.660259 -0.169501
C7    C     C_R   0.419856 0.071414 0.583856 0.097833
C8    C     C_R   0.418540 0.940081 0.583417 0.094220
C9    C     C_R   0.497229 0.871515 0.508435 -0.094854
C10   C     C_R   0.578045 0.931478 0.437384 -0.193564
C11   C     C_R   0.578478 0.059574 0.437456 -0.215321
C12   C     C_R   0.478089 0.500254 0.682625 0.791805
C13   C     C_R   0.499602 0.129590 0.509185 -0.085542
C14   C     C_R   0.868094 0.309712 0.397737 -0.114454
C15   C     C_R   0.936468 0.196796 0.376676 -0.206237
C16   C     C_R   0.077367 0.188090 0.386556 -0.234558
C17   C     C_R   0.150337 0.297669 0.401416 0.035676
C18   C     C_R   0.080089 0.403735 0.450186 0.185513
C19   C     C_R   0.931169 0.405914 0.449918 0.198213
C20   C     C_R   0.920061 0.589912 0.547991 -0.051663
C21   C     C_R   0.067567 0.590234 0.547595 -0.053983
C22   C     C_R   0.500149 0.263054 0.502794 0.750058
C23   C     C_R   0.522000 0.500597 0.317414 0.795043
C24   C     C_1   0.534524 0.501301 0.214408 -0.119242
C25   C     C_2   0.557050 0.502670 0.024147 -0.168644
C26   C     C_2   0.442986 0.496582 0.975841 -0.145297
C27   C     C_1   0.454580 0.497920 0.872341 -0.001089
C28   C     C_1   0.545525 0.501902 0.127658 0.027021
Cu1   Cu    Cu3+1 0.359340 0.500010 0.500010 0.950200
Cu2   Cu    Cu3+1 0.640660 0.499990 0.499990 0.940510
H1    H     H_    0.340564 0.490759 0.013694 0.177083
H2    H     H_    0.767777 0.318876 0.371062 0.184187
H3    H     H_    0.883478 0.119384 0.344211 0.151485
H4    H     H_    0.131380 0.103994 0.357632 0.145423
H5    H     H_    0.116950 0.664178 0.587026 0.136429
H6    H     H_    0.659460 0.508526 0.986290 0.157786
H7    H     H_    0.638699 0.878606 0.380271 0.150110
H8    H     H_    0.341576 0.781489 0.663750 0.138339
H9    H     H_    0.209646 0.905422 0.790829 0.136919
H10   H     H_    0.211789 0.134753 0.791570 0.140420
H11   H     H_    0.345783 0.240874 0.665210 0.151646
H12   H     H_    0.637647 0.104463 0.379729 0.129001
H13   H     H_    0.860298 0.663613 0.587828 0.140996
N1    N     N_R   0.852210 0.498790 0.499090 -0.195918
N2    N     N_R   0.148080 0.498710 0.499060 -0.198214
O1    O     O_R   0.381190 0.680360 0.500010 -0.582436
O2    O     O_R   0.618760 0.680340 0.500000 -0.576995
O3    O     O_R   0.364420 0.499990 0.637850 -0.585401
O4    O     O_R   0.601990 0.499960 0.637840 -0.563263
O5    O     O_R   0.381240 0.319660 0.500000 -0.609474
O6    O     O_R   0.618810 0.319640 0.499990 -0.584731
O7    O     O_R   0.398010 0.500040 0.362160 -0.541814
O8    O     O_R   0.635580 0.500010 0.362150 -0.598922
C29   C     C_2   0.256375 0.308631 0.320989 0.464942
H14   H     H_    0.350427 0.251716 0.316849 0.021677
O9    O     O_2   0.233242 0.373061 0.253502 -0.555222

loop_
_geom_bond_atom_site_label_1
_geom_bond_atom_site_label_2
_ccdc_geom_bond_type
C23   C24   S    
Cu1   Cu2   S    
C21   H5    S    
C9    C10   A    
C4    H9    S    
C12   O3    A    
Cu1   O1    S    
C22   O5    A    
C2    C12   S    
C12   O4    A    
C26   C27   S    
C7    C8    A    
C20   C21   A    
C25   C28   S    
C11   C13   A    
Cu2   N1    S    
C23   O7    A    
C2    C27   T    
C10   H7    S    
C4    C5    A    
C14   C19   A    
C20   N1    A    
Cu2   O4    S    
C13   C22   S    
C23   O8    A    
C6    C7    A    
C21   N2    A    
Cu1   O5    S    
C5    C6    A    
Cu2   O8    S    
C29   O9    D    
C1    O1    A    
C22   O6    A    
C10   C11   A    
Cu1   O3    S    
C15   C16   A    
Cu2   O6    S    
C18   N2    A    
C24   C28   T    
Cu2   O2    S    
C7    C13   A    
C20   H13   S    
C1    C9    S    
C19   N1    A    
C11   H12   S    
C17   C18   A    
C3    C8    A    
C5    H10   S    
Cu1   N2    S    
C18   C19   A    
C14   C15   A    
C8    C9    A    
C25   H6    S    
C16   H4    S    
C25   C26   D    
C29   H14   S    
C26   H1    S    
C17   C29   S    
C15   H3    S    
C1    O2    A    
C3    C4    A    
C3    H8    S    
C14   H2    S    
C16   C17   A    
C6    H11   S    
Cu1   O7    S    
