data_mof_unit_15583.cif
_audit_creation_date              2012-12-10T20:02:18-0500
_audit_creation_method            fapswitch 2.2
_symmetry_space_group_name_H-M    P1
_symmetry_Int_Tables_number       1
_space_group_crystal_system       triclinic
_cell_length_a                    18.408687
_cell_length_b                    18.415828
_cell_length_c                    18.442128
_cell_angle_alpha                 120.332953
_cell_angle_beta                  120.214539
_cell_angle_gamma                 89.76033
_cell_volume                      4393.44172618

loop_
_atom_site_label
_atom_site_type_symbol
_atom_type_description
_atom_site_fract_x
_atom_site_fract_y
_atom_site_fract_z
_atom_type_partial_charge
C1    C     C_R   0.140549 0.140432 0.780120 0.818363
C2    C     C_R   0.708451 0.779381 0.436927 -0.137796
C3    C     C_R   0.837206 0.811682 0.764783 -0.268776
C4    C     C_R   0.860081 0.862250 0.219927 0.855502
C5    C     C_R   0.889373 0.823134 0.859918 0.403052
C6    C     C_R   0.937516 0.765457 0.868398 -0.118094
C7    C     C_R   0.934349 0.696808 0.783647 0.409517
C8    C     C_R   0.881449 0.685426 0.688429 -0.248953
C9    C     C_R   0.833917 0.743671 0.679424 0.113531
C10   C     C_R   0.712125 0.780468 0.052580 -0.116400
C11   C     C_R   0.804536 0.816416 0.108324 -0.211296
C12   C     C_R   0.601887 0.722450 0.250446 0.556345
C13   C     C_R   0.840699 0.805874 0.052518 0.451193
C14   C     C_R   0.786389 0.746331 0.944899 -0.162372
C15   C     C_R   0.695257 0.703542 0.891170 -0.183976
C16   C     C_R   0.860181 0.139877 0.500022 0.840264
C17   C     C_R   0.657850 0.727638 0.946025 -0.167562
C18   C     C_3   0.593270 0.669798 0.939187 0.392231
C19   C     C_3   0.655007 0.728221 0.058155 0.852587
C20   C     C_R   0.247908 0.800509 0.583511 -0.135568
C21   C     C_R   0.203445 0.811711 0.504370 -0.209228
C22   C     C_R   0.222288 0.775578 0.429411 0.409992
C23   C     C_R   0.529198 0.732099 0.181203 -0.260537
C24   C     C_R   0.266508 0.712243 0.421743 0.401456
C25   C     C_R   0.305525 0.697284 0.499425 -0.153607
C26   C     C_R   0.299620 0.746245 0.582518 -0.204531
C27   C     C_3   0.276712 0.717464 0.633518 0.325514
C28   C     C_R   0.141044 0.861051 0.500577 0.875752
C29   C     C_3   0.218003 0.776820 0.633233 0.805878
C30   C     C_R   0.234056 0.159387 0.946223 -0.033344
C31   C     C_R   0.203269 0.197633 0.892058 -0.157605
C32   C     C_R   0.238159 0.291653 0.947984 0.506931
C33   C     C_R   0.290583 0.344200 0.055988 -0.313450
C34   C     C_R   0.513144 0.813790 0.213250 0.405105
C35   C     C_R   0.311076 0.304507 0.108720 -0.096304
C36   C     C_R   0.286849 0.211745 0.052474 0.073548
C37   C     C_3   0.242615 0.146657 0.055834 0.253027
C38   C     C_3   0.184267 0.088845 0.938358 -0.433725
C39   C     C_R   0.234951 0.285631 0.572806 0.012417
C40   C     C_R   0.138954 0.139992 0.498740 0.853299
C41   C     C_R   0.188155 0.195461 0.491731 -0.221365
C42   C     C_R   0.185211 0.162235 0.401704 0.291661
C43   C     C_R   0.239993 0.216034 0.401989 0.473810
C44   C     C_R   0.296090 0.303772 0.491504 -0.307492
C45   C     C_R   0.656956 0.732728 0.445056 0.521492
C46   C     C_R   0.287213 0.338706 0.572420 -0.019738
C47   C     C_3   0.357095 0.388081 0.686066 0.319724
C48   C     C_3   0.298690 0.329718 0.686160 -0.531015
C49   C     C_R   0.836976 0.285303 0.548407 0.023039
C50   C     C_R   0.804168 0.194821 0.501667 -0.119350
C51   C     C_R   0.713248 0.157709 0.455639 -0.313426
C52   C     C_R   0.859496 0.860839 0.500627 0.864839
C53   C     C_R   0.658470 0.211318 0.457984 0.528147
C54   C     C_R   0.694067 0.302954 0.502259 -0.216756
C55   C     C_R   0.784038 0.336308 0.547047 -0.066205
C56   C     C_R   0.697289 0.706544 0.511693 -0.254452
C57   C     C_3   0.858558 0.417840 0.601520 0.417031
C58   C     C_3   0.918414 0.358838 0.602278 -0.491649
C59   C     C_R   0.358460 0.638364 0.498177 0.891088
C60   C     C_R   0.639618 0.359808 0.500693 0.813177
C61   C     C_R   0.639906 0.640295 0.779829 0.814467
C62   C     C_R   0.360335 0.359898 0.220054 0.878322
C63   C     C_R   0.358781 0.359699 0.498589 0.872911
C64   C     C_R   0.571381 0.887635 0.317556 0.370959
C65   C     C_R   0.640375 0.643385 0.503754 0.853344
C66   C     C_R   0.643476 0.878151 0.387386 -0.269741
C67   C     C_R   0.790970 0.742755 0.585886 -0.139271
C68   C     C_R   0.657373 0.795562 0.356401 0.007192
C69   C     C_3   0.437085 0.813814 0.070309 -0.247959
C70   C     C_3   0.491585 0.742967 0.886651 -0.240133
C71   C     C_3   0.729233 0.620784 0.059488 -0.447030
C72   C     C_3   0.246873 0.871465 0.394785 -0.253318
C73   C     C_3   0.313598 0.693892 0.321173 -0.126267
C74   C     C_3   0.237457 0.592724 0.624116 -0.238485
C75   C     C_3   0.283628 0.368198 0.904467 -0.254102
C76   C     C_3   0.283335 0.124462 0.302088 -0.175399
C77   C     C_3   0.565553 0.177005 0.490523 -0.257498
C78   C     C_R   0.843750 0.793434 0.581636 0.394825
C79   C     C_3   0.796274 0.393776 0.438784 -0.250284
C80   C     C_3   0.693900 0.635971 0.245855 -0.213441
C81   C     C_3   0.545794 0.786677 0.446093 -0.323487
C82   C     C_R   0.802788 0.809758 0.505206 -0.224022
H1    H     H_    0.978579 0.774739 0.941886 0.205759
H2    H     H_    0.112472 0.081971 0.902823 0.231162
H3    H     H_    0.422164 0.377571 0.705524 0.103727
H4    H     H_    0.329201 0.283825 0.704430 0.155727
H5    H     H_    0.269354 0.366361 0.727955 0.213918
H6    H     H_    0.684721 0.087606 0.419108 0.232758
H7    H     H_    0.876735 0.469877 0.679833 0.136936
H8    H     H_    0.941885 0.346160 0.553340 0.210907
H9    H     H_    0.970717 0.377758 0.680797 0.198296
H10   H     H_    0.482601 0.674251 0.102358 0.201772
H11   H     H_    0.801675 0.857473 0.757963 0.130425
H12   H     H_    0.880276 0.634252 0.622879 0.178876
H13   H     H_    0.496423 0.866865 0.104405 0.181934
H14   H     H_    0.377009 0.825189 0.023611 0.180625
H15   H     H_    0.435131 0.746604 0.017100 0.228277
H16   H     H_    0.982076 0.604062 0.733266 0.354923
H17   H     H_    0.944836 0.911379 0.156638 0.368333
H18   H     H_    0.495568 0.730929 0.823601 0.183632
H19   H     H_    0.539383 0.809329 0.959605 0.171804
H20   H     H_    0.423664 0.744359 0.864726 0.148489
H21   H     H_    0.659525 0.820079 0.177382 0.350052
H22   H     H_    0.755833 0.636550 0.024978 0.165821
H23   H     H_    0.815915 0.732849 0.903515 0.196704
H24   H     H_    0.675212 0.554931 0.000536 0.184483
H25   H     H_    0.784556 0.615009 0.118353 0.213137
H26   H     H_    0.257739 0.929751 0.466247 0.142540
H27   H     H_    0.217600 0.885960 0.336270 0.199157
H28   H     H_    0.312694 0.865619 0.411624 0.104474
H29   H     H_    0.505998 0.967126 0.298140 0.382757
H30   H     H_    0.338416 0.643453 0.282739 0.202602
H31   H     H_    0.372932 0.750601 0.397058 0.073197
H32   H     H_    0.275768 0.716144 0.271367 0.187668
H33   H     H_    0.218118 0.631037 0.677386 0.133569
H34   H     H_    0.590988 0.599400 0.899759 0.069478
H35   H     H_    0.307305 0.594306 0.667900 0.206062
H36   H     H_    0.193301 0.522109 0.570459 0.192413
H37   H     H_    0.114251 0.712482 0.605377 0.344924
H38   H     H_    0.310025 0.882679 0.772347 0.286068
H39   H     H_    0.261972 0.402975 0.866549 0.194209
H40   H     H_    0.303915 0.313798 0.862938 0.141810
H41   H     H_    0.341639 0.418428 0.985654 0.160819
H42   H     H_    0.166737 0.133542 0.094619 0.362439
H43   H     H_    0.153816 0.035782 0.325383 0.337179
H44   H     H_    0.349584 0.150275 0.375510 0.117831
H45   H     H_    0.337087 0.741779 0.711274 0.006771
H46   H     H_    0.295585 0.114822 0.245253 0.187368
H47   H     H_    0.244083 0.058174 0.271436 0.164811
H48   H     H_    0.305604 0.484098 0.718145 0.336551
H49   H     H_    0.496128 0.140494 0.454411 0.175402
H50   H     H_    0.609145 0.144430 0.523166 0.180249
H51   H     H_    0.582887 0.247389 0.553324 0.127306
H52   H     H_    0.724970 0.377501 0.409667 0.157388
H53   H     H_    0.813765 0.331984 0.411319 0.157798
H54   H     H_    0.805388 0.425854 0.405353 0.176799
H55   H     H_    0.724871 0.628541 0.310112 0.145884
H56   H     H_    0.311130 0.416201 0.097805 0.201051
H57   H     H_    0.738214 0.695756 0.269022 0.183458
H58   H     H_    0.689618 0.576585 0.180443 0.192592
H59   H     H_    0.486813 0.793706 0.392113 0.182629
H60   H     H_    0.599991 0.852638 0.501644 0.136793
H61   H     H_    0.530012 0.772610 0.489388 0.168297
H62   H     H_    0.958695 0.796052 0.680995 0.340015
H63   H     H_    0.857937 0.925155 0.927445 0.331593
H64   H     H_    0.288591 0.117035 0.091248 0.099954
H65   H     H_    0.197485 0.025219 0.904168 0.200984
H66   H     H_    0.684007 0.933442 0.468467 0.179642
O1    O     O_3   0.000000 0.000000 0.500000 -0.515536
O2    O     O_R   0.384160 0.323450 0.268320 -0.622015
O3    O     O_R   0.384130 0.444860 0.560610 -0.617135
O4    O     O_R   0.115780 0.055050 0.731580 -0.631477
O5    O     O_R   0.555060 0.615780 0.439210 -0.598809
O6    O     O_R   0.384140 0.323430 0.439180 -0.610527
O7    O     O_R   0.676490 0.615760 0.560640 -0.637781
O8    O     O_R   0.676470 0.615740 0.731500 -0.653402
O9    O     O_R   0.384180 0.444900 0.268330 -0.645629
O10   O     O_R   0.384150 0.615750 0.560620 -0.630167
O11   O     O_R   0.555030 0.323430 0.439190 -0.605192
O12   O     O_R   0.823480 0.055090 0.439280 -0.656006
O13   O     O_R   0.823490 0.884220 0.268410 -0.645091
O14   O     O_R   0.944920 0.176520 0.560720 -0.630401
O15   O     O_R   0.115810 0.884200 0.439290 -0.616485
O16   O     O_R   0.115820 0.176530 0.560730 -0.635880
O17   O     O_R   0.944890 0.884180 0.560700 -0.554204
O18   O     O_R   0.115830 0.055100 0.439300 -0.653740
O19   O     O_R   0.823460 0.884190 0.439270 -0.670515
O20   O     O_3   0.434292 0.818335 0.147374 -0.615717
O21   O     O_3   0.985944 0.644269 0.797365 -0.760872
O22   O     O_3   0.928342 0.849047 0.099335 -0.697477
O23   O     O_R   0.115790 0.884180 0.560710 -0.588531
O24   O     O_3   0.504643 0.673227 0.899059 -0.543066
O25   O     O_3   0.614104 0.780675 0.101659 -0.801105
O26   O     O_3   0.698829 0.686887 0.108367 -0.630652
O27   O     O_3   0.187642 0.791514 0.354664 -0.542003
O28   O     O_3   0.556725 0.968207 0.355695 -0.788518
O29   O     O_3   0.256380 0.653008 0.329525 -0.562050
O30   O     O_3   0.226792 0.625260 0.565954 -0.554854
O31   O     O_3   0.126191 0.729593 0.568305 -0.690398
O32   O     O_3   0.245641 0.849982 0.731991 -0.792008
O33   O     O_3   0.211322 0.333302 0.898566 -0.570842
O34   O     O_R   0.115790 0.176500 0.731590 -0.594857
O35   O     O_3   0.193997 0.181489 0.096660 -0.700356
O36   O     O_3   0.128328 0.078884 0.312451 -0.706195
O37   O     O_3   0.235422 0.184658 0.313390 -0.547904
O38   O     O_3   0.366035 0.478994 0.742416 -0.699584
O39   O     O_3   0.570293 0.172576 0.414463 -0.576481
O40   O     O_3   0.851792 0.455001 0.547504 -0.608100
O41   O     O_3   0.606418 0.636820 0.214455 -0.592101
O42   O     O_3   0.565542 0.714626 0.387594 -0.561462
O43   O     O_3   0.935199 0.832735 0.655631 -0.719782
O44   O     O_3   0.896174 0.890950 0.946223 -0.723826
O45   O     O_R   0.944940 0.884220 0.268420 -0.616710
O46   O     O_3   0.499960 0.499960 0.499910 -0.512849
O47   O     O_R   0.384170 0.615770 0.439200 -0.630333
O48   O     O_R   0.676480 0.444870 0.560630 -0.636820
O49   O     O_R   0.555020 0.615730 0.731490 -0.637604
Zn1   Zn    Zn3+2 0.869870 0.956630 0.413250 0.954635
Zn2   Zn    Zn3+2 0.043380 0.130130 0.586750 0.980999
Zn3   Zn    Zn3+2 0.043390 0.956630 0.413260 0.988549
Zn4   Zn    Zn3+2 0.043360 0.956610 0.586740 1.032391
Zn5   Zn    Zn3+2 0.630090 0.543330 0.586660 0.957078
Zn6   Zn    Zn3+2 0.456570 0.543320 0.586650 0.984710
Zn7   Zn    Zn3+2 0.456580 0.369830 0.413160 1.005934
Zn8   Zn    Zn3+2 0.456590 0.543350 0.413170 0.991231

loop_
_geom_bond_atom_site_label_1
_geom_bond_atom_site_label_2
_ccdc_geom_bond_type
H48   O38   S    
C66   C68   A    
C71   H22   S    
C41   C42   A    
C71   H25   S    
C27   C29   S    
C75   H40   S    
C76   H44   S    
C80   O41   S    
C35   C36   A    
C60   O11   A    
O2    Zn7   S    
C69   H14   S    
O8    Zn5   S    
C19   O25   S    
C22   O27   S    
C57   C58   S    
C70   H19   S    
C7    C8    A    
C39   C41   A    
H17   O22   S    
C54   C60   S    
C53   C54   A    
C12   O41   S    
C12   C68   A    
C12   C23   A    
C26   C27   S    
H37   O31   S    
O13   Zn1   S    
C75   H41   S    
C47   H3    S    
C36   C37   S    
C16   C50   S    
C40   O16   A    
C2    C68   S    
C52   O19   A    
C5    C6    A    
C59   O10   A    
C16   O12   A    
C74   H33   S    
C10   C17   A    
C80   H55   S    
C37   O35   S    
C1    C31   S    
C73   H31   S    
C38   H65   S    
C30   C38   S    
C1    O4    A    
C18   C19   S    
C77   H49   S    
C72   O27   S    
C79   H52   S    
O17   Zn4   S    
C57   O40   S    
C65   O5    A    
C46   C47   S    
H16   O21   S    
C27   H45   S    
C14   H23   S    
C72   H26   S    
C45   C56   A    
C44   C46   A    
C8    C9    A    
C29   O32   S    
O47   Zn8   S    
C27   O30   S    
C37   H64   S    
C64   O28   S    
O7    Zn5   S    
C58   H9    S    
C33   H56   S    
C40   O18   A    
O46   Zn8   S    
O16   Zn2   S    
O1    Zn1   S    
C3    C5    A    
C73   O29   S    
C81   H59   S    
C44   C63   S    
C13   C14   A    
H43   O36   S    
O10   Zn6   S    
C67   C78   A    
C77   H51   S    
C34   O20   S    
C70   H18   S    
C50   C51   A    
C20   C29   S    
C2    C45   A    
C4    O45   A    
C74   H36   S    
C72   H28   S    
C62   O9    A    
C79   O40   S    
C78   O43   S    
H29   O28   S    
C47   C48   S    
C32   O33   S    
C8    H12   S    
C24   C25   A    
C5    O44   S    
H42   O35   S    
C61   O49   A    
O12   Zn1   S    
C42   O36   S    
C25   C26   A    
C49   C55   A    
O14   Zn2   S    
C73   H32   S    
C4    C11   S    
C77   H50   S    
C64   C66   A    
O23   Zn4   S    
C43   C44   A    
C9    C67   S    
C37   C38   S    
C3    C9    A    
C52   O17   A    
C76   H47   S    
C78   C82   A    
C28   O23   A    
C31   C32   A    
C74   O30   S    
C10   C19   S    
C23   C34   A    
O46   Zn7   S    
C34   C64   A    
C17   C18   S    
C15   C61   S    
C48   H5    S    
O9    Zn8   S    
C3    H11   S    
C47   O38   S    
C52   C82   S    
C58   H8    S    
C63   O3    A    
C57   H7    S    
O1    Zn2   S    
C39   C46   A    
O5    Zn8   S    
C70   O24   S    
C81   H60   S    
C21   C28   S    
C79   H54   S    
O15   Zn3   S    
C72   H27   S    
C7    O21   S    
H63   O44   S    
C76   H46   S    
C48   H4    S    
O4    Zn4   S    
C2    C82   A    
C42   C43   A    
C18   H34   S    
C56   C67   A    
C61   O8    A    
O1    Zn4   S    
C60   O48   A    
C73   H30   S    
C15   C17   A    
C74   H35   S    
C54   C55   A    
C40   C41   S    
C6    H1    S    
C62   O2    A    
C38   H2    S    
C75   H39   S    
C66   H66   S    
C75   O33   S    
O34   Zn2   S    
C14   C15   A    
C63   O6    A    
O3    Zn6   S    
C69   H13   S    
C51   H6    S    
O6    Zn7   S    
C1    O34   A    
C70   H20   S    
C13   O22   S    
C6    C7    A    
H62   O43   S    
C18   O24   S    
C80   H57   S    
C79   H53   S    
C71   O26   S    
C30   C36   A    
C16   O14   A    
C32   C33   A    
C55   C57   S    
C53   O39   S    
C69   O20   S    
C65   O7    A    
C80   H58   S    
C11   C13   A    
O11   Zn7   S    
C30   C31   A    
C20   C26   A    
C77   O39   S    
O46   Zn6   S    
C33   C35   A    
O19   Zn1   S    
O49   Zn6   S    
C35   C62   S    
C22   C24   A    
C4    O13   A    
H38   O32   S    
O18   Zn3   S    
C81   O42   S    
C19   O26   S    
C59   O47   A    
C10   C11   A    
C49   C58   S    
O1    Zn3   S    
O45   Zn3   S    
C45   O42   S    
C81   H61   S    
C20   C21   A    
C49   C50   A    
C29   O31   S    
C71   H24   S    
C24   O29   S    
H21   O25   S    
C43   O37   S    
C23   H10   S    
C25   C59   S    
C51   C53   A    
C21   C22   A    
O48   Zn5   S    
C76   O37   S    
C56   C65   S    
C28   O15   A    
C69   H15   S    
C39   C48   S    
O46   Zn5   S    
