data_mof_unit_65793.cif
_audit_creation_date              2013-03-05T16:12:53-0500
_audit_creation_method            fapswitch 2.2
_symmetry_space_group_name_H-M    P1
_symmetry_Int_Tables_number       1
_space_group_crystal_system       triclinic
_cell_length_a                    37.185186
_cell_length_b                    30.279855
_cell_length_c                    21.498269
_cell_angle_alpha                 89.99989
_cell_angle_beta                  54.482184
_cell_angle_gamma                 89.999833
_cell_volume                      19702.2995793

loop_
_atom_site_label
_atom_site_type_symbol
_atom_site_description
_atom_site_fract_x
_atom_site_fract_y
_atom_site_fract_z
_atom_type_partial_charge
O1    O     O_R   0.934520 0.536930 0.565470 -0.608184
O2    O     O_R   0.065480 0.536930 0.434530 -0.608175
O3    O     O_R   0.434520 0.036930 0.565470 -0.608205
O4    O     O_R   0.565480 0.036930 0.434530 -0.608214
O5    O     O_R   0.934480 0.463010 0.565510 -0.603958
O6    O     O_R   0.065520 0.463010 0.434490 -0.603959
O7    O     O_R   0.434480 0.963010 0.565510 -0.603960
O8    O     O_R   0.565520 0.963010 0.434490 -0.603963
C1    C     C_R   0.913632 0.499925 0.585953 0.896679
C2    C     C_R   0.086368 0.499925 0.414047 0.896663
C3    C     C_R   0.413632 0.999926 0.585952 0.896698
C4    C     C_R   0.586368 0.999925 0.414048 0.896719
O9    O     O_R   0.999990 0.536930 0.407410 -0.588148
O10   O     O_R   0.000010 0.536930 0.592590 -0.588138
O11   O     O_R   0.499990 0.036930 0.407410 -0.588170
O12   O     O_R   0.500010 0.036930 0.592590 -0.588194
O13   O     O_R   0.999940 0.463010 0.407450 -0.642207
O14   O     O_R   0.000060 0.463010 0.592550 -0.642205
O15   O     O_R   0.499940 0.963010 0.407450 -0.642211
O16   O     O_R   0.500060 0.963010 0.592550 -0.642216
C5    C     C_R   0.000989 0.500019 0.377615 0.862653
C6    C     C_R   0.999011 0.500019 0.622384 0.862642
C7    C     C_R   0.500990 0.000019 0.377614 0.862681
C8    C     C_R   0.499008 0.000019 0.622388 0.862690
Zn1   Zn    Zn3+2 1.000000 0.549330 0.500000 1.047768
Zn2   Zn    Zn3+2 0.500000 0.049330 0.500000 1.047672
Zn3   Zn    Zn3+2 0.000000 0.450610 0.500000 0.973279
Zn4   Zn    Zn3+2 0.500000 0.950610 0.500000 0.973264
C9    C     C_3   0.952062 0.506106 0.334911 0.151363
C10   C     C_3   0.047938 0.506115 0.665090 0.151362
C11   C     C_3   0.452059 0.006084 0.334915 0.151358
C12   C     C_3   0.547942 0.006062 0.665082 0.151355
H1    H     H_    0.934522 0.474493 0.362251 0.095427
H2    H     H_    0.065483 0.474505 0.637745 0.095420
H3    H     H_    0.434532 0.974465 0.362246 0.095437
H4    H     H_    0.565454 0.974434 0.637763 0.095447
C13   C     C_3   0.952638 0.512077 0.263293 -0.416783
C14   C     C_3   0.047359 0.512087 0.736710 -0.416788
C15   C     C_3   0.452633 0.012053 0.263299 -0.416759
C16   C     C_3   0.547371 0.012029 0.736695 -0.416736
H5    H     H_    0.927953 0.488882 0.267879 0.172243
H6    H     H_    0.072049 0.488896 0.732119 0.172247
H7    H     H_    0.427958 0.988846 0.267876 0.172235
H8    H     H_    0.572035 0.988809 0.732128 0.172223
H9    H     H_    0.941301 0.545464 0.261455 0.211299
H10   H     H_    0.058690 0.545476 0.738555 0.211296
H11   H     H_    0.441282 0.045435 0.261473 0.211311
H12   H     H_    0.558738 0.045405 0.738506 0.211321
H13   H     H_    0.017272 0.571638 0.281732 0.242956
H14   H     H_    0.982715 0.571635 0.718280 0.242956
H15   H     H_    0.517243 0.071644 0.281759 0.242961
H16   H     H_    0.482786 0.071651 0.718214 0.242965
C17   C     C_3   0.030447 0.538877 0.255237 -0.369257
C18   C     C_3   0.969546 0.538871 0.744769 -0.369266
C19   C     C_3   0.530430 0.038887 0.255252 -0.369239
C20   C     C_3   0.469585 0.038900 0.744734 -0.369213
C21   C     C_3   0.018365 0.456074 0.265426 -0.459510
C22   C     C_3   0.981643 0.456071 0.734566 -0.459499
C23   C     C_3   0.518384 0.956080 0.265410 -0.459523
C24   C     C_3   0.481594 0.956087 0.734611 -0.459545
C25   C     C_3   0.000421 0.500666 0.310035 0.004945
C26   C     C_3   0.999579 0.500666 0.689964 0.004942
C27   C     C_3   0.500421 0.000665 0.310036 0.004942
C28   C     C_3   0.499577 0.000665 0.689965 0.004947
H17   H     H_    0.053849 0.452159 0.242244 0.194442
H18   H     H_    0.946160 0.452149 0.757747 0.194447
H19   H     H_    0.553869 0.952179 0.242227 0.194429
H20   H     H_    0.446106 0.952204 0.757797 0.194415
H21   H     H_    0.000234 0.427350 0.303455 0.206740
H22   H     H_    0.999780 0.427350 0.696532 0.206736
H23   H     H_    0.500265 0.927348 0.303428 0.206747
H24   H     H_    0.499699 0.927347 0.696606 0.206756
C29   C     C_3   0.999803 0.501820 0.189457 0.076720
C30   C     C_3   0.000196 0.501821 0.810544 0.076721
C31   C     C_3   0.499802 0.001816 0.189458 0.076714
C32   C     C_3   0.500198 0.001813 0.810542 0.076709
C33   C     C_3   0.035323 0.534925 0.179321 0.065913
C34   C     C_3   0.964670 0.534918 0.820685 0.065920
C35   C     C_3   0.535308 0.034935 0.179336 0.065897
C36   C     C_3   0.464706 0.034949 0.820651 0.065877
C37   C     C_3   0.013052 0.455156 0.199520 -0.490553
C38   C     C_3   0.986957 0.455154 0.800472 -0.490556
C39   C     C_3   0.513070 0.955158 0.199504 -0.490551
C40   C     C_3   0.486908 0.955162 0.800517 -0.490542
H25   H     H_    0.987255 0.430659 0.212229 0.192728
H26   H     H_    0.012759 0.430662 0.787759 0.192732
H27   H     H_    0.487283 0.930650 0.212204 0.192722
H28   H     H_    0.512684 0.930641 0.787827 0.192710
H29   H     H_    0.044610 0.444030 0.146273 0.195515
H30   H     H_    0.955401 0.444022 0.853717 0.195509
H31   H     H_    0.544633 0.944044 0.146253 0.195525
H32   H     H_    0.455340 0.944063 0.853773 0.195537
H33   H     H_    0.063751 0.536599 0.243611 0.131131
H34   H     H_    0.936243 0.536588 0.756394 0.131131
H35   H     H_    0.563736 0.036623 0.243625 0.131140
H36   H     H_    0.436278 0.036652 0.756363 0.131143
H37   H     H_    0.068165 0.518958 0.138955 0.136514
H38   H     H_    0.931831 0.518945 0.861047 0.136516
H39   H     H_    0.568157 0.018982 0.138964 0.136517
H40   H     H_    0.431851 0.019011 0.861031 0.136517
C41   C     C_R   0.798113 0.540291 0.723000 -0.156131
C42   C     C_R   0.201886 0.540288 0.276989 -0.156133
C43   C     C_R   0.298115 0.040301 0.722971 -0.156126
C44   C     C_R   0.701885 0.040303 0.277036 -0.156136
H41   H     H_    0.781836 0.569529 0.756962 0.150942
H42   H     H_    0.218164 0.569523 0.243019 0.150941
H43   H     H_    0.281838 0.069543 0.756921 0.150942
H44   H     H_    0.718161 0.069546 0.243091 0.150943
C45   C     C_R   0.843776 0.538514 0.676105 -0.217205
C46   C     C_R   0.156224 0.538510 0.323884 -0.217216
C47   C     C_R   0.343777 0.038520 0.676083 -0.217188
C48   C     C_R   0.656222 0.038522 0.323924 -0.217186
H45   H     H_    0.862121 0.566967 0.673992 0.172180
H46   H     H_    0.137879 0.566961 0.325990 0.172174
H47   H     H_    0.362122 0.066975 0.673961 0.172182
H48   H     H_    0.637877 0.066978 0.326051 0.172185
C49   C     C_R   0.865485 0.500186 0.633833 -0.036388
C50   C     C_R   0.134515 0.500185 0.366167 -0.036388
C51   C     C_R   0.365485 0.000187 0.633828 -0.036377
C52   C     C_R   0.634515 0.000187 0.366172 -0.036364
C53   C     C_R   0.840654 0.463029 0.639306 0.213128
C54   C     C_R   0.159346 0.463031 0.360703 0.213128
C55   C     C_R   0.340653 0.963029 0.639312 0.213132
C56   C     C_R   0.659347 0.963027 0.360679 0.213144
C57   C     C_R   0.794717 0.465574 0.686076 -0.231001
C58   C     C_R   0.205283 0.465575 0.313932 -0.230999
C59   C     C_R   0.294716 0.965576 0.686077 -0.230995
C60   C     C_R   0.705284 0.965575 0.313917 -0.230981
H49   H     H_    0.775260 0.437558 0.690242 0.150482
H50   H     H_    0.224739 0.437561 0.309774 0.150481
H51   H     H_    0.275259 0.937558 0.690253 0.150482
H52   H     H_    0.724742 0.937555 0.309735 0.150480
C61   C     C_R   0.773727 0.504195 0.726717 0.111501
C62   C     C_R   0.226273 0.504194 0.273281 0.111501
C63   C     C_R   0.273727 0.004202 0.726701 0.111504
C64   C     C_R   0.726273 0.004203 0.273301 0.111507
C65   C     C_R   0.702519 0.533491 0.756842 0.140373
C66   C     C_R   0.297481 0.533496 0.243147 0.140378
C67   C     C_R   0.202517 0.033489 0.756821 0.140369
C68   C     C_R   0.797483 0.033493 0.243175 0.140374
C69   C     C_R   0.656173 0.531497 0.802826 0.252360
C70   C     C_R   0.343827 0.531502 0.197164 0.252353
C71   C     C_R   0.156171 0.031496 0.802811 0.252368
C72   C     C_R   0.843829 0.031499 0.197184 0.252368
C73   C     C_R   0.634068 0.502099 0.865693 -0.326974
C74   C     C_R   0.365932 0.502098 0.134307 -0.326971
C75   C     C_R   0.134068 0.002106 0.865691 -0.326975
C76   C     C_R   0.865932 0.002106 0.134309 -0.326975
C77   C     C_R   0.658044 0.474761 0.882669 0.288342
C78   C     C_R   0.341957 0.474753 0.117339 0.288336
C79   C     C_R   0.158048 0.974781 0.882678 0.288397
C80   C     C_R   0.841952 0.974777 0.117327 0.288394
C81   C     C_R   0.703754 0.477566 0.837450 -0.257238
C82   C     C_R   0.296246 0.477558 0.162557 -0.257235
C83   C     C_R   0.203757 0.977586 0.837453 -0.257250
C84   C     C_R   0.796242 0.977584 0.162552 -0.257254
H53   H     H_    0.722490 0.456234 0.849392 0.195391
H54   H     H_    0.277511 0.456220 0.150622 0.195395
H55   H     H_    0.222494 0.956261 0.849403 0.195381
H56   H     H_    0.777505 0.956257 0.150606 0.195381
C85   C     C_R   0.725870 0.505927 0.774770 -0.066991
C86   C     C_R   0.274130 0.505926 0.225228 -0.066992
C87   C     C_R   0.225870 0.005935 0.774757 -0.066995
C88   C     C_R   0.774130 0.005936 0.225244 -0.066991
O17   O     O_R   0.963000 0.565420 0.036990 -0.599367
O18   O     O_R   0.037000 0.565420 0.963010 -0.599371
O19   O     O_R   0.463000 0.065420 0.036990 -0.599320
O20   O     O_R   0.537000 0.065420 0.963010 -0.599316
C89   C     C_R   1.000000 0.586434 0.000001 0.890277
C90   C     C_R   0.500000 0.086434 1.000000 0.890211
O21   O     O_R   0.963020 0.499940 0.129580 -0.625306
O22   O     O_R   0.036980 0.499940 0.870420 -0.625306
O23   O     O_R   0.463020 0.999940 0.129580 -0.625321
O24   O     O_R   0.536980 0.999940 0.870420 -0.625323
O25   O     O_R   0.036940 0.500000 0.055660 -0.641333
O26   O     O_R   0.963060 0.500000 0.944340 -0.641331
O27   O     O_R   0.536940 0.000000 0.055660 -0.641318
O28   O     O_R   0.463060 0.000000 0.944340 -0.641318
C91   C     C_R   0.999853 0.501152 0.121434 0.870315
C92   C     C_R   0.000147 0.501153 0.878567 0.870320
C93   C     C_R   0.499852 0.001148 0.121434 0.870294
C94   C     C_R   0.500147 0.001145 0.878565 0.870288
Zn5   Zn    Zn3+2 0.950610 0.499940 0.049380 0.965861
Zn6   Zn    Zn3+2 0.049390 0.499940 0.950620 0.965861
Zn7   Zn    Zn3+2 0.450610 0.999940 0.049380 0.965904
Zn8   Zn    Zn3+2 0.549390 0.999940 0.950620 0.965901
O29   O     O_R   0.963020 0.434470 0.036970 -0.620246
O30   O     O_R   0.036980 0.434470 0.963030 -0.620246
O31   O     O_R   0.463020 0.934470 0.036970 -0.620249
O32   O     O_R   0.536980 0.934470 0.963030 -0.620249
C95   C     C_R   0.000000 0.413621 1.000000 0.919386
C96   C     C_R   0.500000 0.913622 0.000000 0.919362
O33   O     O_R   0.499930 0.434510 0.947790 -0.615800
O34   O     O_R   0.500070 0.434510 0.052210 -0.615797
O35   O     O_R   0.999930 0.934510 0.947790 -0.615743
O36   O     O_R   0.000070 0.934510 0.052210 -0.615742
C97   C     C_R   0.500000 0.413880 1.000000 0.960415
C98   C     C_R   0.000000 0.913880 1.000000 0.960274
O37   O     O_R   0.565440 0.499980 0.882290 -0.590033
O38   O     O_R   0.434560 0.499980 0.117710 -0.590038
O39   O     O_R   0.065440 0.999980 0.882290 -0.590019
O40   O     O_R   0.934560 0.999980 0.117710 -0.590019
O41   O     O_R   0.565450 0.499990 0.986830 -0.595471
O42   O     O_R   0.434550 0.499990 0.013170 -0.595480
O43   O     O_R   0.065450 0.999990 0.986830 -0.595460
O44   O     O_R   0.934550 0.999990 0.013170 -0.595463
C99   C     C_R   0.586104 0.500375 0.913792 0.996400
C100  C     C_R   0.413896 0.500374 0.086208 0.996433
C101  C     C_R   0.086104 0.000377 0.913792 0.996350
C102  C     C_R   0.913896 0.000377 0.086208 0.996366
Zn9   Zn    Zn3+2 0.499970 0.499980 0.930220 1.079191
Zn10  Zn    Zn3+2 0.500030 0.499980 0.069780 1.079194
Zn11  Zn    Zn3+2 0.999970 0.999980 0.930220 1.079247
Zn12  Zn    Zn3+2 0.000030 0.999980 0.069780 1.079252
O45   O     O_R   0.500010 0.565460 0.947720 -0.615170
O46   O     O_R   0.499990 0.565460 0.052280 -0.615174
O47   O     O_R   0.000010 0.065460 0.947720 -0.615166
O48   O     O_R   0.999990 0.065460 0.052280 -0.615165
C103  C     C_R   0.500000 0.586233 1.000000 0.936795
C104  C     C_R   1.000000 0.086233 1.000000 0.936734
C105  C     C_R   0.038476 0.704412 0.946112 -0.220825
C106  C     C_R   0.961522 0.704411 0.053902 -0.220819
C107  C     C_R   0.538504 0.204414 0.946216 -0.220894
C108  C     C_R   0.461497 0.204414 0.053788 -0.220891
H57   H     H_    0.068086 0.722648 0.904241 0.150214
H58   H     H_    0.931911 0.722646 0.095774 0.150214
H59   H     H_    0.568135 0.222651 0.904430 0.150193
H60   H     H_    0.431865 0.222651 0.095573 0.150193
C109  C     C_R   0.039045 0.658533 0.945355 0.155282
C110  C     C_R   0.960954 0.658532 0.054656 0.155282
C111  C     C_R   0.539072 0.158536 0.945454 0.155362
C112  C     C_R   0.460928 0.158536 0.054547 0.155363
C113  C     C_R   1.000000 0.634922 0.000004 -0.130551
C114  C     C_R   0.500000 0.134924 0.000000 -0.130611
C115  C     C_R   0.999999 0.726894 0.000008 0.115230
C116  C     C_R   0.500000 0.226896 0.000003 0.115335
C117  C     C_R   0.479740 0.297428 0.971002 0.179368
C118  C     C_R   0.520260 0.297428 0.029000 0.179370
C119  C     C_R   0.979616 0.797428 0.971230 0.179360
C120  C     C_R   0.020380 0.797429 0.028782 0.179360
C121  C     C_R   0.480053 0.343336 0.970997 -0.216394
C122  C     C_R   0.519948 0.343337 0.029003 -0.216415
C123  C     C_R   0.979941 0.843337 0.971203 -0.216492
C124  C     C_R   0.020058 0.843339 0.028802 -0.216503
H61   H     H_    0.464533 0.361128 0.948701 0.203646
H62   H     H_    0.535469 0.361129 0.051299 0.203647
H63   H     H_    0.964337 0.861130 0.949059 0.203829
H64   H     H_    0.035663 0.861132 0.050944 0.203830
C125  C     C_R   0.500000 0.366150 1.000000 -0.092272
C126  C     C_R   0.000000 0.866151 0.000001 -0.092376
C127  C     C_R   0.500000 0.274606 0.000002 0.044437
C128  C     C_R   0.999998 0.774606 0.000008 0.044457
C129  C     C_R   0.959841 0.296656 0.049240 0.295651
C130  C     C_R   0.040160 0.296656 0.950759 0.295651
C131  C     C_R   0.459843 0.796656 0.049253 0.295651
C132  C     C_R   0.540158 0.796656 0.950745 0.295650
C133  C     C_R   0.960501 0.342607 0.049128 -0.246575
C134  C     C_R   0.039500 0.342607 0.950871 -0.246574
C135  C     C_R   0.460503 0.842607 0.049141 -0.246573
C136  C     C_R   0.539498 0.842607 0.950858 -0.246573
H65   H     H_    0.929868 0.360451 0.086810 0.205894
H66   H     H_    0.070132 0.360451 0.913189 0.205893
H67   H     H_    0.429872 0.860452 0.086834 0.205890
H68   H     H_    0.570129 0.860452 0.913165 0.205891
C137  C     C_R   0.000000 0.365572 1.000000 -0.164215
C138  C     C_R   0.500000 0.865572 1.000000 -0.164207
C139  C     C_R   0.000000 0.273646 0.999999 -0.182616
C140  C     C_R   0.500000 0.773646 0.999999 -0.182604
C141  C     C_R   0.506936 0.703072 0.937338 -0.065790
C142  C     C_R   0.493065 0.703072 0.062660 -0.065798
C143  C     C_R   0.006931 0.203072 0.937342 -0.065789
C144  C     C_R   0.993070 0.203072 0.062657 -0.065790
H69   H     H_    0.512286 0.720835 0.888862 0.141446
H70   H     H_    0.487715 0.720835 0.111135 0.141446
H71   H     H_    0.012277 0.220836 0.888870 0.141440
H72   H     H_    0.987724 0.220836 0.111128 0.141440
C145  C     C_R   0.506850 0.657309 0.937354 -0.127467
C146  C     C_R   0.493151 0.657310 0.062644 -0.127457
C147  C     C_R   0.006844 0.157310 0.937359 -0.127470
C148  C     C_R   0.993156 0.157310 0.062640 -0.127465
H73   H     H_    0.512359 0.640090 0.888349 0.180900
H74   H     H_    0.487642 0.640090 0.111649 0.180897
H75   H     H_    0.012349 0.140090 0.888357 0.180900
H76   H     H_    0.987652 0.140090 0.111642 0.180900
C149  C     C_R   0.500000 0.634220 0.999999 -0.030780
C150  C     C_R   0.000000 0.134221 1.000000 -0.030790
C151  C     C_R   0.500000 0.725785 0.999999 0.201898
C152  C     C_R   0.000000 0.225785 0.999999 0.201917
N1    N     N_R   0.927220 0.541629 0.390839 0.217561
O49   O     O_R   0.891564 0.532147 0.457701 -0.414784
O50   O     O_R   0.938638 0.582819 0.373648 -0.407485
N2    N     N_R   0.072773 0.541643 0.609169 0.217567
O51   O     O_R   0.108429 0.532167 0.542304 -0.414771
O52   O     O_R   0.061348 0.582831 0.626369 -0.407482
N3    N     N_R   0.427204 0.041599 0.390854 0.217549
O53   O     O_R   0.391549 0.032105 0.457711 -0.414807
O54   O     O_R   0.438606 0.082793 0.373677 -0.407491
N4    N     N_R   0.572812 0.041567 0.609130 0.217537
O55   O     O_R   0.608466 0.032059 0.542280 -0.414832
O56   O     O_R   0.561425 0.082765 0.626290 -0.407495
N5    N     N_2   0.861178 0.423051 0.599090 -0.297182
H77   H     H_    0.843286 0.395103 0.628032 0.223381
C153  C     C_3   0.875250 0.422992 0.520691 -0.693741
H78   H     H_    0.891426 0.391022 0.493421 0.225601
H79   H     H_    0.899579 0.449669 0.488085 0.258913
H80   H     H_    0.846406 0.427497 0.518301 0.237520
N6    N     N_2   0.138822 0.423056 0.400929 -0.297181
H81   H     H_    0.156714 0.395106 0.371998 0.223385
C154  C     C_3   0.124746 0.423006 0.479330 -0.693762
H82   H     H_    0.108569 0.391039 0.506609 0.225605
H83   H     H_    0.100416 0.449686 0.511925 0.258902
H84   H     H_    0.153588 0.427517 0.481725 0.237523
N7    N     N_2   0.361175 0.923045 0.599117 -0.297194
H85   H     H_    0.343283 0.895101 0.628073 0.223374
C155  C     C_3   0.375247 0.922970 0.520718 -0.693685
H86   H     H_    0.391419 0.890996 0.493466 0.225589
H87   H     H_    0.399580 0.949642 0.488096 0.258933
H88   H     H_    0.346403 0.927472 0.518325 0.237524
N8    N     N_2   0.638826 0.923039 0.400861 -0.297206
H89   H     H_    0.656719 0.895097 0.371893 0.223368
C156  C     C_3   0.624756 0.922951 0.479258 -0.693630
H90   H     H_    0.608589 0.890972 0.506495 0.225574
H91   H     H_    0.600418 0.949618 0.511895 0.258960
H92   H     H_    0.653599 0.927452 0.481651 0.237531
N9    N     N_2   0.725186 0.561434 0.691028 -0.271374
H93   H     H_    0.755996 0.550623 0.646434 0.251152
C157  C     C_3   0.724217 0.608179 0.706266 -0.621993
H94   H     H_    0.740740 0.626830 0.651767 0.243649
H95   H     H_    0.741795 0.614950 0.732811 0.205303
H96   H     H_    0.689803 0.620404 0.744778 0.280833
N10   N     N_2   0.274814 0.561447 0.308951 -0.271374
H97   H     H_    0.244004 0.550639 0.353548 0.251150
C158  C     C_3   0.275784 0.608190 0.293695 -0.621994
H98   H     H_    0.259260 0.626848 0.348188 0.243650
H99   H     H_    0.258208 0.614954 0.267146 0.205299
H100  H     H_    0.310199 0.620413 0.255182 0.280837
N11   N     N_2   0.225182 0.061422 0.690993 -0.271371
H101  H     H_    0.255991 0.050607 0.646402 0.251158
C159  C     C_3   0.224216 0.108170 0.706209 -0.621999
H102  H     H_    0.240736 0.126812 0.651702 0.243648
H103  H     H_    0.241800 0.114950 0.732741 0.205308
H104  H     H_    0.189803 0.120396 0.744723 0.280824
N12   N     N_2   0.774819 0.061429 0.308998 -0.271372
H105  H     H_    0.744009 0.050616 0.353590 0.251164
C160  C     C_3   0.775788 0.108176 0.293777 -0.622005
H106  H     H_    0.759267 0.126821 0.348282 0.243645
H107  H     H_    0.758208 0.114956 0.267238 0.205304
H108  H     H_    0.810202 0.120401 0.255266 0.280833
N13   N     N_R   0.631691 0.559119 0.785374 0.221252
O57   O     O_R   0.602387 0.586662 0.836184 -0.414097
O58   O     O_R   0.640928 0.559186 0.716983 -0.343695
N14   N     N_R   0.368308 0.559130 0.214609 0.221249
O59   O     O_R   0.397614 0.586668 0.163790 -0.414107
O60   O     O_R   0.359071 0.559207 0.283001 -0.343692
N15   N     N_R   0.131688 0.059109 0.785352 0.221260
O61   O     O_R   0.102385 0.086656 0.836152 -0.414080
O62   O     O_R   0.140921 0.059163 0.716963 -0.343689
N16   N     N_R   0.868313 0.059114 0.214639 0.221255
O63   O     O_R   0.897617 0.086659 0.163836 -0.414087
O64   O     O_R   0.859081 0.059171 0.283028 -0.343687
N17   N     N_R   0.636771 0.442309 0.942661 0.224643
O65   O     O_R   0.606461 0.416662 0.949946 -0.429644
O66   O     O_R   0.652529 0.433447 0.981748 -0.377980
N18   N     N_R   0.363230 0.442295 0.057357 0.224637
O67   O     O_R   0.393545 0.416656 0.050073 -0.429656
O68   O     O_R   0.347468 0.433420 0.018280 -0.377987
N19   N     N_R   0.136777 0.942337 0.942682 0.224652
O69   O     O_R   0.106482 0.916671 0.949957 -0.429798
O70   O     O_R   0.152529 0.933500 0.981789 -0.377973
N20   N     N_R   0.863222 0.942331 0.057328 0.224649
O71   O     O_R   0.893521 0.916669 0.050053 -0.429803
O72   O     O_R   0.847467 0.933484 0.018231 -0.377980
N21   N     N_2   0.078690 0.636619 0.887922 -0.287719
H109  H     H_    0.092119 0.648836 0.833807 0.225744
C161  C     C_3   0.111199 0.633892 0.904452 -0.700219
H110  H     H_    0.123477 0.667381 0.904347 0.227020
H111  H     H_    0.139529 0.613496 0.860148 0.233849
H112  H     H_    0.096724 0.618164 0.960990 0.242588
N22   N     N_2   0.921311 0.636616 0.112090 -0.287725
H113  H     H_    0.907884 0.648829 0.166205 0.225743
C162  C     C_3   0.888798 0.633894 0.095568 -0.700222
H114  H     H_    0.876517 0.667384 0.095684 0.227019
H115  H     H_    0.860470 0.613495 0.139870 0.233850
H116  H     H_    0.903270 0.618170 0.039027 0.242593
N23   N     N_2   0.578746 0.136626 0.888116 -0.287631
H117  H     H_    0.592242 0.148845 0.833981 0.225739
C163  C     C_3   0.611176 0.133897 0.904830 -0.700313
H118  H     H_    0.623430 0.167387 0.904799 0.227038
H119  H     H_    0.639534 0.113507 0.860585 0.233852
H120  H     H_    0.596635 0.118162 0.961382 0.242520
N24   N     N_2   0.421251 0.136626 0.111879 -0.287623
H121  H     H_    0.407750 0.148847 0.166015 0.225740
C164  C     C_3   0.388828 0.133896 0.095150 -0.700309
H122  H     H_    0.376576 0.167386 0.095173 0.227041
H123  H     H_    0.360468 0.113507 0.139391 0.233851
H124  H     H_    0.403375 0.118160 0.038597 0.242513
N25   N     N_2   0.458461 0.274323 0.943076 -0.304387
H125  H     H_    0.430635 0.290134 0.954510 0.246993
C165  C     C_3   0.487666 0.261153 0.863810 -0.748098
H126  H     H_    0.468872 0.241554 0.847974 0.245202
H127  H     H_    0.515001 0.240302 0.854222 0.244654
H128  H     H_    0.501648 0.290772 0.826400 0.245248
N26   N     N_2   0.541539 0.274324 0.056928 -0.304391
H129  H     H_    0.569365 0.290135 0.045495 0.246990
C166  C     C_3   0.512334 0.261155 0.136194 -0.748087
H130  H     H_    0.531128 0.241557 0.152032 0.245198
H131  H     H_    0.485000 0.240302 0.145781 0.244659
H132  H     H_    0.498351 0.290773 0.173604 0.245250
N27   N     N_2   0.958200 0.774324 0.943559 -0.304413
H133  H     H_    0.930335 0.790141 0.955172 0.247019
C167  C     C_3   0.987268 0.761134 0.864283 -0.748014
H134  H     H_    0.968377 0.741530 0.848656 0.245184
H135  H     H_    0.014646 0.740280 0.854520 0.244647
H136  H     H_    0.001194 0.790743 0.826841 0.245275
N28   N     N_2   0.041793 0.774326 0.056461 -0.304412
H137  H     H_    0.069658 0.790143 0.044850 0.247017
C168  C     C_3   0.012722 0.761139 0.135737 -0.748009
H138  H     H_    0.031612 0.741536 0.151371 0.245183
H139  H     H_    0.985346 0.740284 0.145499 0.244643
H140  H     H_    0.998795 0.790749 0.173177 0.245275
N29   N     N_R   0.918273 0.274082 0.098774 0.212238
O73   O     O_R   0.909319 0.238688 0.075831 -0.370108
O74   O     O_R   0.887134 0.291780 0.163558 -0.376065
N30   N     N_R   0.081728 0.274082 0.901225 0.212238
O75   O     O_R   0.090682 0.238688 0.924167 -0.370110
O76   O     O_R   0.112866 0.291780 0.836440 -0.376065
N31   N     N_R   0.418276 0.774082 0.098798 0.212232
O77   O     O_R   0.409315 0.738693 0.075857 -0.370097
O78   O     O_R   0.387145 0.791777 0.163593 -0.376063
N32   N     N_R   0.581725 0.774082 0.901198 0.212231
O79   O     O_R   0.590686 0.738692 0.924136 -0.370100
O80   O     O_R   0.612856 0.791778 0.836404 -0.376063
N33   N     N_2   0.038408 0.577708 0.144679 -0.312196
H141  H     H_    0.058167 0.577346 0.085740 0.232100
C169  C     C_3   0.000326 0.606141 0.176022 -0.756713
H142  H     H_    0.011520 0.639378 0.149649 0.238328
H143  H     H_    0.982669 0.610250 0.238349 0.287836
H144  H     H_    0.977951 0.593144 0.161967 0.225482
N34   N     N_2   0.961576 0.577701 0.855335 -0.312196
H145  H     H_    0.941814 0.577336 0.914275 0.232111
C170  C     C_3   0.999653 0.606141 0.824002 -0.756701
H146  H     H_    0.988452 0.639375 0.850383 0.238325
H147  H     H_    0.017310 0.610254 0.761676 0.287833
H148  H     H_    0.022029 0.593146 0.838056 0.225472
N35   N     N_2   0.538375 0.077718 0.144710 -0.312212
H149  H     H_    0.558131 0.077359 0.085771 0.232046
C171  C     C_3   0.500282 0.106137 0.176061 -0.756644
H150  H     H_    0.511463 0.139378 0.149700 0.238358
H151  H     H_    0.482623 0.110239 0.238390 0.287832
H152  H     H_    0.477913 0.093130 0.162001 0.225474
N36   N     N_2   0.461660 0.077733 0.855259 -0.312214
H153  H     H_    0.441906 0.077380 0.914197 0.232031
C172  C     C_3   0.499766 0.106134 0.823893 -0.756655
H154  H     H_    0.488600 0.139380 0.850241 0.238351
H155  H     H_    0.517425 0.110229 0.761563 0.287836
H156  H     H_    0.522130 0.093117 0.837956 0.225502

loop_
_geom_bond_atom_site_label_1
_geom_bond_atom_site_label_2
_geom_bond_distance
_ccdc_geom_bond_type
O1    Zn1   2.017109 S    
N31   O77   1.301349 A    
C167  H135  1.109467 S    
C70   C74   1.415582 A    
O46   C103  1.287786 A    
C136  H68   1.083293 S    
C163  H120  1.110702 S    
C46   C50   1.404289 A    
N11   H101  1.030844 S    
C153  H79   1.107039 S    
C158  H98   1.110295 S    
C129  C139  1.413973 A    
O30   C95   1.285014 A    
C133  H65   1.083293 S    
C35   H39   1.116633 S    
N26   C166  1.446391 S    
C82   H54   1.084597 S    
C135  H67   1.083293 S    
C22   C38   1.540327 S    
O33   Zn9   2.017924 S    
O34   C97   1.285872 A    
C131  C140  1.413971 A    
C24   H24   1.113119 S    
O19   Zn7   2.017874 S    
C105  H57   1.084408 S    
C120  C124  1.390176 A    
C10   C14   1.537976 S    
C130  N30   1.441497 S    
C16   H12   1.104847 S    
C142  H70   1.083527 S    
C145  H73   1.083045 S    
C74   C78   1.411163 A    
C66   N10   1.429194 S    
C80   C84   1.386164 A    
C147  H75   1.083044 S    
O4    C4    1.286587 A    
C69   C73   1.415588 A    
O35   C98   1.285869 A    
C143  C147  1.385679 A    
C132  C140  1.413975 A    
O38   C100  1.286032 A    
C123  C126  1.397655 A    
C111  N23   1.422374 S    
O43   C101  1.286199 A    
C108  H60   1.084400 S    
C29   C37   1.552364 S    
O17   C89   1.288005 A    
O17   Zn5   2.017874 S    
C147  C150  1.403163 A    
C133  C137  1.397831 A    
C48   C52   1.404294 A    
C22   H22   1.113121 S    
C170  H148  1.109286 S    
O16   Zn4   2.026055 S    
N5    H77   1.031958 S    
O13   C5    1.280484 A    
O7    Zn4   2.018296 S    
C16   C32   1.567605 S    
C81   C85   1.393551 A    
Zn8   O32   2.017695 S    
C172  H156  1.109290 S    
O15   C7    1.280480 A    
C171  H151  1.104423 S    
N20   O72   1.301379 A    
C153  H78   1.110342 S    
C97   C125  1.445257 S    
N36   C172  1.446347 S    
N14   O59   1.301190 A    
C112  C114  1.420423 A    
O9    C5    1.277963 A    
C66   C86   1.409961 A    
H14   C18   1.106488 S    
O40   Zn12  2.018388 S    
C160  H108  1.108622 S    
O28   C94   1.279369 A    
O43   Zn12  2.014302 S    
C71   C75   1.415595 A    
C41   C61   1.392528 A    
C162  H114  1.111578 S    
O8    Zn4   2.018292 S    
C121  H61   1.083740 S    
N4    O55   1.300830 A    
C13   H9    1.104844 S    
C163  H118  1.111581 S    
C15   H11   1.104846 S    
C34   N34   1.465183 S    
C64   C88   1.449406 S    
C158  H100  1.108625 S    
O21   Zn5   2.027352 S    
C165  H127  1.109451 S    
C122  C125  1.397675 A    
C63   C87   1.449402 S    
O3    Zn2   2.017109 S    
C40   H28   1.113808 S    
C23   C39   1.540329 S    
C15   H7    1.113760 S    
C161  H110  1.111578 S    
C21   C25   1.563518 S    
C112  N24   1.422378 S    
C51   C55   1.416328 A    
C39   H31   1.113615 S    
C164  H122  1.111580 S    
C23   C27   1.563521 S    
C24   C28   1.563520 S    
N25   C165  1.446391 S    
C166  H130  1.110379 S    
C65   C85   1.409956 A    
C20   C28   1.563587 S    
H13   C17   1.106484 S    
N2    O52   1.300031 A    
C111  C114  1.420424 A    
H15   C19   1.106483 S    
N35   H149  1.031381 S    
C59   H51   1.084361 S    
O3    C3    1.286583 A    
O34   Zn10  2.017926 S    
C57   H49   1.084363 S    
C58   C62   1.395652 A    
C156  H90   1.110343 S    
C29   C33   1.569226 S    
C119  C123  1.390177 A    
C143  H71   1.083529 S    
N27   H133  1.031879 S    
C31   C35   1.569215 S    
O16   C8    1.280483 A    
N23   C163  1.446916 S    
N8    C156  1.445609 S    
N29   O73   1.301351 A    
C146  C149  1.403160 A    
C9    H1    1.114333 S    
O24   C94   1.276398 A    
N20   O71   1.301110 A    
C143  C152  1.396617 A    
N3    O54   1.300033 A    
C53   C57   1.392529 A    
N31   O78   1.301503 A    
O23   Zn7   2.027352 S    
C89   C113  1.468234 S    
C12   H4    1.114342 S    
N34   C170  1.446346 S    
C107  H59   1.084400 S    
N7    C155  1.445608 S    
C165  H126  1.110380 S    
N18   O67   1.301104 A    
C104  C150  1.453055 S    
C50   C54   1.416332 A    
N9    C157  1.448562 S    
C36   N36   1.465169 S    
C77   C81   1.386170 A    
C23   H19   1.113280 S    
O5    Zn3   2.018296 S    
C17   C25   1.563584 S    
O6    Zn3   2.018292 S    
C19   C27   1.563581 S    
C162  H116  1.110737 S    
N28   C168  1.446379 S    
C80   N20   1.438481 S    
C15   C31   1.567605 S    
C46   H46   1.083354 S    
C144  C148  1.385679 A    
C95   C137  1.454932 S    
O21   C91   1.276403 A    
C134  H66   1.083294 S    
C115  C128  1.444718 S    
O39   C101  1.286031 A    
C168  H139  1.109470 S    
C158  H99   1.108298 S    
N32   O80   1.301502 A    
C154  H83   1.107036 S    
C164  H124  1.110701 S    
C9    C25   1.558667 S    
O20   Zn8   2.017873 S    
C10   H2    1.114331 S    
C83   H55   1.084601 S    
C118  N26   1.424070 S    
O13   Zn3   2.026060 S    
C11   C27   1.558662 S    
C84   H56   1.084600 S    
C12   C28   1.558660 S    
Zn12  O48   2.018260 S    
C166  H132  1.111574 S    
C44   C48   1.383253 A    
C12   N4    1.471555 S    
C83   C87   1.393544 A    
C145  C149  1.403162 A    
C75   C79   1.411163 A    
O5    C1    1.283641 A    
O36   Zn12  2.017926 S    
O44   C102  1.286200 A    
C55   C59   1.392530 A    
O8    C4    1.283645 A    
C156  H92   1.111625 S    
C110  N22   1.422375 S    
N1    O49   1.300831 A    
C141  C145  1.385679 A    
N16   O64   1.301146 A    
O15   Zn4   2.026060 S    
N30   O75   1.301350 A    
N15   O62   1.301147 A    
C79   C83   1.386157 A    
N6    H81   1.031956 S    
N12   C160  1.448564 S    
C9    C13   1.537979 S    
C73   C99   1.452622 S    
C14   C30   1.567600 S    
C161  H112  1.110735 S    
N24   C164  1.446918 S    
C155  H88   1.111624 S    
C44   C64   1.392521 A    
C119  C128  1.406955 A    
O14   C6    1.280485 A    
C82   C86   1.393553 A    
C121  C125  1.397677 A    
C76   C80   1.411152 A    
C69   N13   1.437312 S    
C163  H119  1.110187 S    
C43   H43   1.081547 S    
Zn7   O31   2.017693 S    
C68   C88   1.409954 A    
C20   C36   1.538485 S    
C117  C121  1.390157 A    
O10   C6    1.277964 A    
C67   C87   1.409952 A    
C135  C138  1.397831 A    
N25   H125  1.031853 S    
O27   C93   1.279368 A    
C132  C136  1.391592 A    
O20   C90   1.288018 A    
C13   H5    1.113760 S    
C148  C150  1.403161 A    
C14   H10   1.104844 S    
C107  C116  1.388078 A    
N36   H153  1.031379 S    
C129  C133  1.391593 A    
O26   C92   1.279360 A    
C159  H104  1.108624 S    
C106  C110  1.389309 A    
C109  N21   1.422378 S    
C40   H32   1.113614 S    
C169  H143  1.104423 S    
C105  C115  1.388114 A    
O2    C2    1.286590 A    
C22   C26   1.563518 S    
C39   H27   1.113804 S    
C165  H128  1.111574 S    
C79   N19   1.438478 S    
C48   H48   1.083356 S    
C142  C151  1.396621 A    
C32   C40   1.552361 S    
C45   C49   1.404290 A    
N22   H113  1.031803 S    
C33   N33   1.465183 S    
O47   C104  1.287784 A    
N17   O66   1.301384 A    
C122  H62   1.083749 S    
C59   C63   1.395653 A    
C60   C64   1.395653 A    
C170  H147  1.104425 S    
C58   H50   1.084362 S    
C41   C45   1.383263 A    
C43   C47   1.383256 A    
C172  H155  1.104422 S    
C77   N17   1.438500 S    
N26   H129  1.031855 S    
C107  C111  1.389298 A    
N33   C169  1.446345 S    
N14   O60   1.301142 A    
C55   N7    1.424309 S    
C160  H107  1.108298 S    
C5    C25   1.465358 S    
C56   C60   1.392529 A    
C37   H29   1.113613 S    
O22   C92   1.276405 A    
C7    C27   1.465349 S    
O23   C93   1.276398 A    
C155  H86   1.110341 S    
C8    C28   1.465345 S    
C67   N11   1.429193 S    
C167  H136  1.111564 S    
N4    O56   1.300027 A    
C30   C38   1.552359 S    
N11   C159  1.448561 S    
C11   N3    1.471549 S    
C153  H80   1.111622 S    
N5    C153  1.445608 S    
N13   O57   1.301193 A    
O12   Zn2   2.025839 S    
C130  C139  1.413975 A    
C106  C115  1.388111 A    
C103  C149  1.453048 S    
C171  H150  1.110569 S    
C32   C36   1.569209 S    
O1    C1    1.286588 A    
C74   C100  1.452618 S    
C66   C70   1.404076 A    
N3    O53   1.300829 A    
C18   C26   1.563587 S    
C38   H26   1.113807 S    
C124  H64   1.083741 S    
C17   C33   1.538499 S    
N34   H145  1.031400 S    
O45   C103  1.287784 A    
C19   C35   1.538485 S    
C98   C126  1.445236 S    
C159  H102  1.110296 S    
C144  H72   1.083530 S    
O18   Zn6   2.017873 S    
N19   O70   1.301390 A    
O39   Zn11  2.018388 S    
O44   Zn11  2.014299 S    
C70   N14   1.437316 S    
C120  C128  1.406952 A    
C123  H63   1.083742 S    
C10   C26   1.558668 S    
C140  C151  1.449230 S    
C11   H3    1.114336 S    
C42   C46   1.383263 A    
C9    N1    1.471550 S    
C44   H44   1.081544 S    
N23   H117  1.031791 S    
C20   H36   1.114142 S    
C65   C69   1.404078 A    
O32   C96   1.285012 A    
C56   N8    1.424307 S    
C68   C72   1.404080 A    
C21   H17   1.113279 S    
O6    C2    1.283642 A    
O4    Zn2   2.017101 S    
C65   N9    1.429194 S    
C38   H30   1.113616 S    
C141  H69   1.083530 S    
O48   C104  1.287786 A    
C142  C146  1.385682 A    
C166  H131  1.109452 S    
C108  C116  1.388084 A    
C171  H152  1.109291 S    
C157  H94   1.110298 S    
N10   H97   1.030846 S    
C31   C39   1.552360 S    
N7    H85   1.031955 S    
O42   Zn9   2.014299 S    
N18   O68   1.301385 A    
O2    Zn1   2.017101 S    
O10   Zn1   2.025839 S    
C81   H53   1.084598 S    
N9    H93   1.030847 S    
O35   Zn11  2.017924 S    
O27   Zn8   2.024596 S    
C131  N31   1.441490 S    
N8    H89   1.031957 S    
C24   H20   1.113281 S    
C30   C34   1.569231 S    
C105  C109  1.389304 A    
C167  H134  1.110387 S    
C162  H115  1.110190 S    
C106  H58   1.084410 S    
C68   N12   1.429196 S    
C75   C101  1.452642 S    
C73   C77   1.411165 A    
O25   Zn6   2.024596 S    
C18   C34   1.538497 S    
O26   Zn5   2.024597 S    
Zn9   O45   2.018262 S    
N12   H105  1.030845 S    
C118  C127  1.406939 A    
C1    C49   1.457303 S    
O12   C8    1.277962 A    
N19   O69   1.301095 A    
C72   C76   1.415595 A    
C3    C51   1.457304 S    
C168  H138  1.110391 S    
N24   H121  1.031799 S    
C154  H82   1.110342 S    
O7    C3    1.283647 A    
C90   C114  1.468267 S    
O38   Zn10  2.018388 S    
C124  C126  1.397658 A    
C78   N18   1.438503 S    
C47   C51   1.404296 A    
N2    O51   1.300831 A    
C14   H6    1.113763 S    
Zn5   O29   2.017693 S    
C108  C112  1.389292 A    
N22   C162  1.446919 S    
C130  C134  1.391592 A    
C110  C113  1.420387 A    
C72   N16   1.437307 S    
N35   C171  1.446347 S    
C49   C53   1.416331 A    
N32   O79   1.301354 A    
C43   C63   1.392520 A    
C4    C52   1.457304 S    
O28   Zn7   2.024597 S    
C22   H18   1.113281 S    
N15   O61   1.301193 A    
C156  H91   1.107037 S    
C34   H38   1.116628 S    
C129  N29   1.441495 S    
N27   C167  1.446380 S    
O29   C95   1.285014 A    
C10   N2    1.471547 S    
C169  H144  1.109282 S    
N30   O76   1.301502 A    
N13   O58   1.301146 A    
C36   H40   1.116629 S    
C109  C113  1.420384 A    
C119  N27   1.424060 S    
O9    Zn1   2.025843 S    
C172  H154  1.110568 S    
C67   C71   1.404077 A    
O40   C102  1.286033 A    
C32   C94   1.461454 S    
C60   H52   1.084362 S    
O19   C90   1.288015 A    
Zn6   O30   2.017695 S    
C161  H111  1.110189 S    
C41   H41   1.081545 S    
C131  C135  1.391593 A    
C155  H87   1.107041 S    
C17   H33   1.114138 S    
Zn10  O46   2.018260 S    
C19   H35   1.114137 S    
C35   N35   1.465169 S    
Zn11  O47   2.018262 S    
O11   Zn2   2.025843 S    
O25   C91   1.279362 A    
O41   C99   1.286193 A    
C53   N5    1.424304 S    
C62   C86   1.449414 S    
N6    C154  1.445604 S    
C54   C58   1.392529 A    
O31   C96   1.285012 A    
C42   C62   1.392531 A    
C2    C50   1.457300 S    
C76   C102  1.452639 S    
C6    C26   1.465362 S    
O22   Zn6   2.027352 S    
C132  N32   1.441490 S    
N28   H137  1.031875 S    
C16   H8    1.113764 S    
O37   C99   1.286030 A    
C96   C138  1.454929 S    
C33   H37   1.116630 S    
N10   C158  1.448565 S    
O42   C100  1.286191 A    
C159  H103  1.108300 S    
C139  C152  1.449221 S    
C146  H74   1.083045 S    
C54   N6    1.424307 S    
C21   C37   1.540325 S    
O41   Zn10  2.014302 S    
C116  C127  1.444661 S    
C31   C93   1.461452 S    
C164  H123  1.110184 S    
C168  H140  1.111563 S    
C154  H84   1.111624 S    
C57   C61   1.395650 A    
C13   C29   1.567602 S    
C117  N25   1.424070 S    
C141  C151  1.396616 A    
O14   Zn3   2.026055 S    
C148  H76   1.083042 S    
C61   C85   1.449410 S    
C157  H96   1.108626 S    
C120  N28   1.424065 S    
C45   H45   1.083356 S    
C144  C152  1.396614 A    
N17   O65   1.301109 A    
C118  C122  1.390160 A    
N21   H109  1.031808 S    
O24   Zn8   2.027352 S    
C24   C40   1.540330 S    
C170  H146  1.110569 S    
C157  H95   1.108297 S    
O33   C97   1.285873 A    
O11   C7    1.277964 A    
N1    O50   1.300030 A    
N21   C161  1.446915 S    
C11   C15   1.537981 S    
C42   H42   1.081544 S    
O37   Zn9   2.018388 S    
C12   C16   1.537979 S    
N16   O63   1.301196 A    
C37   H25   1.113807 S    
C18   H34   1.114138 S    
O36   C98   1.285867 A    
C169  H142  1.110566 S    
C29   C91   1.461446 S    
H16   C20   1.106481 S    
C30   C92   1.461442 S    
C84   C88   1.393548 A    
O18   C89   1.288002 A    
N29   O74   1.301503 A    
N33   H141  1.031401 S    
C78   C82   1.386172 A    
C23   H23   1.113121 S    
C117  C127  1.406945 A    
C47   H47   1.083354 S    
C21   H21   1.113120 S    
C160  H106  1.110296 S    
C134  C137  1.397832 A    
C136  C138  1.397830 A    
C52   C56   1.416334 A    
C71   N15   1.437308 S    
