data_mof_unit_64574.cif
_audit_creation_date              2012-12-10T18:23:07-0500
_audit_creation_method            fapswitch 2.2
_symmetry_space_group_name_H-M    P1
_symmetry_Int_Tables_number       1
_space_group_crystal_system       triclinic
_cell_length_a                    21.509204
_cell_length_b                    21.510383
_cell_length_c                    21.966537
_cell_angle_alpha                 60.881348
_cell_angle_beta                  119.013824
_cell_angle_gamma                 89.549641
_cell_volume                      7358.27441587

loop_
_atom_site_label
_atom_site_type_symbol
_atom_type_description
_atom_site_fract_x
_atom_site_fract_y
_atom_site_fract_z
_atom_type_partial_charge
C1    C     C_R   0.623084 0.498038 0.503572 0.820205
C2    C     C_3   0.291149 0.708086 0.082639 0.107870
C3    C     C_3   0.197495 0.718483 0.971671 -0.130660
C4    C     C_3   0.208015 0.791347 0.917373 0.112925
C5    C     C_3   0.206540 0.746156 0.027278 0.101281
C6    C     C_3   0.214405 0.820163 0.971757 -0.320421
C7    C     C_1   0.336574 0.663040 0.173590 -0.002322
C8    C     C_1   0.162779 0.836697 0.826470 -0.047119
C9    C     C_3   0.741298 0.416202 0.551840 -0.382020
C10   C     C_3   0.811576 0.417085 0.549465 -0.413818
C11   C     C_3   0.668000 0.541083 0.411341 -0.411951
C12   C     C_R   0.418722 0.581234 0.337620 0.945844
C13   C     C_3   0.737548 0.536733 0.545407 -0.397644
C14   C     C_3   0.691165 0.497834 0.503363 0.185429
C15   C     C_3   0.810332 0.499120 0.500211 0.169161
C16   C     C_3   0.738287 0.542316 0.409214 -0.373861
C17   C     C_3   0.808095 0.537075 0.543797 -0.403704
C18   C     C_3   0.725873 0.191043 0.028123 -0.166223
C19   C     C_3   0.678125 0.274682 0.972234 -0.163087
C20   C     C_1   0.625731 0.374031 0.751620 -0.189495
C21   C     C_1   0.874308 0.125647 0.248418 -0.187320
C22   C     C_3   0.755831 0.207930 0.972142 -0.166279
C23   C     C_R   0.380500 0.498670 0.503237 0.956372
C24   C     C_3   0.708883 0.290771 0.917850 0.209758
C25   C     C_3   0.821928 0.224667 0.027832 -0.165790
C26   C     C_3   0.791169 0.208583 0.082211 0.209551
C27   C     C_3   0.774183 0.308302 0.971949 -0.166256
C28   C     C_3   0.744221 0.291421 0.027920 -0.161994
C29   C     C_1   0.663314 0.336366 0.826785 -0.086278
C30   C     C_1   0.836735 0.163119 0.173263 -0.083110
C31   C     C_3   0.320124 0.418414 0.566853 -0.511806
C32   C     C_3   0.247587 0.417496 0.564868 -0.049955
C33   C     C_3   0.298767 0.552777 0.528056 -0.031182
C34   C     C_R   0.581187 0.418712 0.662474 0.896516
C35   C     C_3   0.244596 0.525045 0.413759 0.357685
C36   C     C_3   0.312420 0.499452 0.503123 -0.015649
C37   C     C_3   0.189962 0.499441 0.500682 0.025002
C38   C     C_3   0.224953 0.554194 0.524868 -0.137928
C39   C     C_3   0.170834 0.530530 0.410612 -0.533964
C40   C     C_R   0.000020 0.878932 0.499353 0.869939
C41   C     C_R   0.081149 0.918681 0.662391 0.892048
C42   C     C_R   0.999063 0.121981 0.498516 0.861638
C43   C     C_R   0.918808 0.081217 0.337542 0.905921
C44   C     C_R   0.002175 0.378336 0.500130 0.839059
C45   C     C_3   0.293774 0.753425 0.971401 -0.248443
C46   C     C_R   0.878297 0.499497 0.499882 0.858098
C47   C     C_R   0.996588 0.621508 0.499840 0.939474
C48   C     C_R   0.121516 0.499491 0.499957 0.873236
C49   C     C_3   0.071349 0.780506 0.501854 0.637668
C50   C     C_3   0.072123 0.702956 0.514385 -0.581665
C51   C     C_3   0.995375 0.750895 0.571811 -0.541420
C52   C     C_3   0.924329 0.830384 0.413102 0.187006
C53   C     C_3   0.999115 0.811881 0.496905 -0.005593
C54   C     C_3   0.996902 0.689724 0.499461 -0.033845
C55   C     C_3   0.992127 0.679252 0.572113 0.400506
C56   C     C_3   0.299900 0.780611 0.026797 0.587515
C57   C     C_3   0.930068 0.758463 0.412614 -0.400626
C58   C     C_3   0.010934 0.248910 0.429572 -0.047045
C59   C     C_3   0.013669 0.319624 0.431785 -0.445885
C60   C     C_3   0.924582 0.225656 0.481953 -0.373953
C61   C     C_3   0.064649 0.169920 0.584864 -0.475096
C62   C     C_3   0.998860 0.190566 0.497787 0.171237
C63   C     C_3   0.001944 0.310407 0.499756 0.167933
C64   C     C_3   0.925186 0.298449 0.478932 -0.426235
C65   C     C_3   0.065307 0.240310 0.586862 -0.382095
C66   C     C_1   0.374130 0.625738 0.248647 -0.163329
C67   C     C_1   0.125490 0.874187 0.751392 -0.205195
C68   C     C_3   0.283963 0.680131 0.027593 -0.261193
H1    H     H_    0.813480 0.388872 0.518984 0.148667
H2    H     H_    0.635024 0.513862 0.380186 0.167946
H3    H     H_    0.738894 0.516180 0.376388 0.170630
H4    H     H_    0.703649 0.595786 0.511649 0.189600
H5    H     H_    0.753951 0.506782 0.611566 0.158045
H6    H     H_    0.858686 0.506818 0.609393 0.179095
H7    H     H_    0.807930 0.595937 0.509497 0.191662
H8    H     H_    0.631688 0.599695 0.375355 0.171034
H9    H     H_    0.735969 0.601650 0.372531 0.176810
H10   H     H_    0.618383 0.295968 0.947870 0.129039
H11   H     H_    0.329111 0.757526 0.946757 0.141152
H12   H     H_    0.706869 0.142173 0.052735 0.129376
H13   H     H_    0.740260 0.324868 0.052360 0.129792
H14   H     H_    0.793212 0.357157 0.947364 0.129742
H15   H     H_    0.881668 0.203380 0.052196 0.131552
H16   H     H_    0.759805 0.174474 0.947716 0.130824
H17   H     H_    0.369000 0.396101 0.631551 0.167800
H18   H     H_    0.331919 0.379285 0.551558 0.203220
H19   H     H_    0.263091 0.396503 0.629207 0.169334
H20   H     H_    0.184988 0.877330 0.948268 0.139351
H21   H     H_    0.252283 0.477752 0.407346 0.121232
H22   H     H_    0.139773 0.498464 0.385922 0.161625
H23   H     H_    0.130812 0.588176 0.366914 0.187360
H24   H     H_    0.291427 0.610590 0.480564 0.156547
H25   H     H_    0.184989 0.612262 0.472969 0.124829
H26   H     H_    0.081795 0.699108 0.470665 0.166198
H27   H     H_    0.119271 0.656694 0.577896 0.173843
H28   H     H_    0.041419 0.736801 0.633806 0.117017
H29   H     H_    0.042613 0.631784 0.632845 0.084202
H30   H     H_    0.938771 0.768473 0.362963 0.189372
H31   H     H_    0.876575 0.745089 0.395879 0.178223
H32   H     H_    0.945981 0.772680 0.568336 0.229186
H33   H     H_    0.153789 0.694114 0.947675 0.135621
H34   H     H_    0.066365 0.223769 0.445228 0.161202
H35   H     H_    0.069003 0.327908 0.446408 0.138951
H36   H     H_    0.970283 0.370589 0.369004 0.184830
H37   H     H_    0.874964 0.237320 0.422369 0.170705
H38   H     H_    0.879326 0.346699 0.415231 0.170912
H39   H     H_    0.058967 0.126595 0.635338 0.166930
H40   H     H_    0.119133 0.145716 0.598170 0.179199
H41   H     H_    0.120922 0.248703 0.603821 0.167087
H42   H     H_    0.057314 0.231544 0.636570 0.186764
H43   H     H_    0.918455 0.185458 0.533476 0.178188
H44   H     H_    0.312853 0.622502 0.051749 0.156398
H45   H     H_    0.914082 0.295174 0.524770 0.154879
H46   H     H_    0.709994 0.386615 0.523229 0.184151
H47   H     H_    0.758179 0.384123 0.618264 0.155660
H48   H     H_    0.862490 0.384667 0.614983 0.178950
O1    O     O_R   0.592630 0.447740 0.499990 -0.634591
O2    O     O_R   0.947670 0.907410 0.499960 -0.611767
O3    O     O_R   0.113890 0.938270 0.623230 -0.615298
O4    O     O_R   0.009320 0.938380 0.623210 -0.619149
O5    O     O_R   0.052330 0.092440 0.500040 -0.632094
O6    O     O_R   0.947760 0.092550 0.500030 -0.635585
O7    O     O_R   0.990680 0.061470 0.376790 -0.617683
O8    O     O_R   0.886110 0.061580 0.376770 -0.616821
O9    O     O_R   0.034860 0.372650 0.569600 -0.634316
O10   O     O_R   0.965300 0.442140 0.430470 -0.630794
O11   O     O_R   0.942170 0.465260 0.569550 -0.627473
O12   O     O_R   0.592590 0.552250 0.500040 -0.633281
O13   O     O_R   0.872610 0.534760 0.430420 -0.633628
O14   O     O_R   0.034700 0.557860 0.569530 -0.640462
O15   O     O_R   0.965140 0.627350 0.430400 -0.635032
O16   O     O_R   0.127390 0.465250 0.569580 -0.643913
O17   O     O_R   0.057830 0.534740 0.430450 -0.630149
O18   O     O_R   0.438420 0.509360 0.376750 -0.616778
O19   O     O_R   0.438370 0.613870 0.376810 -0.609881
O20   O     O_R   0.407410 0.447750 0.499960 -0.645714
O21   O     O_R   0.407370 0.552260 0.500010 -0.603455
O22   O     O_R   0.561630 0.386130 0.623190 -0.623502
O23   O     O_R   0.561580 0.490640 0.623250 -0.617889
O24   O     O_R   0.052240 0.907300 0.499970 -0.604093
Zn1   Zn    Zn3+2 0.500030 0.430220 0.499960 0.941550
Zn2   Zn    Zn3+2 0.499970 0.569780 0.500040 0.960497
Zn3   Zn    Zn3+2 0.069820 0.999850 0.500010 0.961024
Zn4   Zn    Zn3+2 0.930180 0.000000 0.499990 0.945428
Zn5   Zn    Zn3+2 0.046440 0.453600 0.592900 0.909438
Zn6   Zn    Zn3+2 0.953560 0.546400 0.407100 0.917712
O25   O     O_3   0.356193 0.808909 0.061697 -0.606757
C69   C     C_3   0.350839 0.876228 0.996401 -0.327675
H49   H     H_    0.296241 0.920177 0.958799 0.158686
H50   H     H_    0.359463 0.866966 0.955075 0.157999
H51   H     H_    0.395767 0.897489 0.024697 0.193748
N1    N     N_3   0.217466 0.363015 0.546830 -0.472182
H52   H     H_    0.169302 0.361092 0.547555 0.175269
H53   H     H_    0.203375 0.377806 0.487808 0.182110
N2    N     N_3   0.364544 0.532969 0.609340 -0.445915
H54   H     H_    0.370675 0.482852 0.659271 0.192185
H55   H     H_    0.357162 0.575408 0.618114 0.207637
N3    N     N_3   0.235582 0.541180 0.602101 -0.464736
H56   H     H_    0.259065 0.484273 0.650451 0.193245
H57   H     H_    0.183725 0.560649 0.590075 0.198429
O26   O     O_3   0.246956 0.586135 0.347687 -0.607254
C70   C     C_3   0.197489 0.657591 0.305691 -0.291439
H58   H     H_    0.196208 0.669501 0.348824 0.132209
H59   H     H_    0.140347 0.664209 0.257878 0.170082
H60   H     H_    0.216906 0.700573 0.271388 0.188367
O27   O     O_3   0.142763 0.777224 0.562567 -0.594074
C71   C     C_3   0.164200 0.737834 0.646645 -0.292341
H61   H     H_    0.151969 0.684088 0.668617 0.128142
H62   H     H_    0.140257 0.774960 0.656781 0.168839
H63   H     H_    0.225969 0.723004 0.687308 0.187092
N4    N     N_3   0.062107 0.830015 0.420381 -0.446502
H64   H     H_    0.063640 0.882856 0.409208 0.212663
H65   H     H_    0.108091 0.809012 0.423054 0.182939
N5    N     N_3   0.160231 0.740146 0.059762 -0.448035
H66   H     H_    0.105292 0.773467 0.008134 0.179322
H67   H     H_    0.177837 0.764415 0.094049 0.181837
N6    N     N_3   0.856503 0.850760 0.410156 -0.438714
H68   H     H_    0.847283 0.803242 0.446838 0.228173
H69   H     H_    0.809001 0.876132 0.348934 0.165999
N7    N     N_3   0.917588 0.893602 0.337939 -0.466792
H70   H     H_    0.872284 0.900058 0.283830 0.176036
H71   H     H_    0.905442 0.943486 0.333310 0.181885
O28   O     O_3   0.924474 0.664716 0.561434 -0.618058
C72   C     C_3   0.933573 0.620731 0.640002 -0.388564
H72   H     H_    0.956742 0.645346 0.677527 0.165136
H73   H     H_    0.970056 0.562302 0.675967 0.176200
H74   H     H_    0.877840 0.618523 0.629065 0.193603
N8    N     N_3   0.953174 0.267464 0.345595 -0.476179
H75   H     H_    0.969121 0.298734 0.304619 0.182674
H76   H     H_    0.902131 0.301663 0.322805 0.190255

loop_
_geom_bond_atom_site_label_1
_geom_bond_atom_site_label_2
_ccdc_geom_bond_type
C58   C62   S    
C40   O2    A    
O21   Zn2   S    
C63   C65   S    
C31   H17   S    
N2    H55   S    
O3    Zn3   S    
C5    N5    S    
O5    Zn3   S    
O1    Zn1   S    
C35   C36   S    
O4    Zn4   S    
C69   H51   S    
O6    Zn4   S    
C4    C8    S    
C46   O13   A    
O26   C70   S    
O10   Zn6   S    
C11   H2    S    
C41   C67   S    
C18   H12   S    
C17   H6    S    
C52   C53   S    
N4    H65   S    
C44   O10   A    
C35   O26   S    
C23   O20   A    
C59   H36   S    
N8    H76   S    
C3    C68   S    
C69   H50   S    
C18   C19   S    
C2    C68   S    
C11   H8    S    
C5    C6    S    
C11   C14   S    
C50   H27   S    
C15   C16   S    
C57   H31   S    
C34   O23   A    
C33   C36   S    
C6    H20   S    
C72   H72   S    
O15   Zn6   S    
C60   C62   S    
C16   H9    S    
C68   H44   S    
C49   C50   S    
C61   H40   S    
N5    H66   S    
C2    C7    S    
C24   C29   S    
O19   Zn2   S    
O25   C69   S    
C45   C56   S    
C72   H73   S    
N6    H69   S    
C12   O19   A    
C18   C26   S    
C24   C27   S    
C58   H34   S    
C9    C10   S    
C42   C62   S    
C39   H22   S    
C51   H28   S    
C20   C29   T    
C20   C34   S    
C3    H33   S    
C31   H18   S    
C12   O18   A    
C13   C14   S    
O14   Zn5   S    
N3    H57   S    
C16   H3    S    
C39   H23   S    
N7    H71   S    
C60   C64   S    
C71   H63   S    
C70   H59   S    
C4    C45   S    
C44   C63   S    
C44   O9    A    
C47   O14   A    
C58   N8    S    
C9    H47   S    
C46   O11   A    
C69   H49   S    
C38   N3    S    
C71   H62   S    
C33   H24   S    
C6    C56   S    
C71   H61   S    
C49   N4    S    
O16   Zn5   S    
C50   H26   S    
C58   C59   S    
C32   H19   S    
C12   C66   S    
C22   C25   S    
C47   O15   A    
N8    H75   S    
C51   C53   S    
C22   H16   S    
C19   H10   S    
C35   C39   S    
C9    C14   S    
C52   N7    S    
O28   C72   S    
C37   C38   S    
C70   H60   S    
C11   C16   S    
C48   O17   A    
C31   C32   S    
C32   N1    S    
C55   H29   S    
C45   C68   S    
C45   H11   S    
C1    O1    A    
C32   C37   S    
C41   O3    A    
O24   Zn3   S    
C19   C28   S    
N4    H64   S    
C65   H41   S    
O13   Zn6   S    
O11   Zn5   S    
C47   C54   S    
C35   H21   S    
C1    O12   A    
C4    C6    S    
C13   H4    S    
C13   H5    S    
C26   C30   S    
O27   C71   S    
C22   C24   S    
C2    C5    S    
C9    H46   S    
O2    Zn4   S    
C3    C4    S    
C43   O7    A    
N2    H54   S    
C10   H48   S    
N7    H70   S    
C42   O6    A    
C25   H15   S    
C70   H58   S    
C51   H32   S    
C15   C17   S    
C54   C55   S    
C64   H45   S    
C28   H13   S    
C18   C22   S    
C59   C63   S    
C23   O21   A    
C27   H14   S    
O8    Zn4   S    
N1    H53   S    
C3    C5    S    
O22   Zn1   S    
C33   N2    S    
C64   H38   S    
C52   N6    S    
C23   C36   S    
C25   C27   S    
C21   C30   T    
C26   C28   S    
C33   C38   S    
C72   H74   S    
C13   C17   S    
C10   C15   S    
C59   H35   S    
O17   Zn6   S    
C56   O25   S    
C19   C24   S    
C25   C26   S    
C49   O27   S    
C50   C54   S    
C60   H43   S    
C2    C56   S    
C7    C66   T    
C37   C48   S    
N3    H56   S    
C49   C53   S    
C57   H30   S    
C40   O24   A    
C38   H25   S    
O23   Zn2   S    
O20   Zn1   S    
C34   O22   A    
C51   C55   S    
C41   O4    A    
C61   C62   S    
C61   H39   S    
N5    H67   S    
C65   H42   S    
C52   C57   S    
C40   C53   S    
C63   C64   S    
C10   H1    S    
C61   C65   S    
N1    H52   S    
C8    C67   T    
C37   C39   S    
N6    H68   S    
O7    Zn3   S    
C27   C28   S    
C17   H7    S    
C55   O28   S    
C31   C36   S    
C48   O16   A    
O9    Zn5   S    
C1    C14   S    
C15   C46   S    
O12   Zn2   S    
C43   O8    A    
C21   C43   S    
C60   H37   S    
C42   O5    A    
O18   Zn1   S    
C54   C57   S    
