data_mof_unit_16427.cif
_audit_creation_date              2012-12-10T18:07:49-0500
_audit_creation_method            fapswitch 2.2
_symmetry_space_group_name_H-M    P1
_symmetry_Int_Tables_number       1
_space_group_crystal_system       triclinic
_cell_length_a                    28.713291
_cell_length_b                    18.354053
_cell_length_c                    21.97915
_cell_angle_alpha                 89.210296
_cell_angle_beta                  140.538909
_cell_angle_gamma                 90.772638
_cell_volume                      7360.93106574

loop_
_atom_site_label
_atom_site_type_symbol
_atom_type_description
_atom_site_fract_x
_atom_site_fract_y
_atom_site_fract_z
_atom_type_partial_charge
C1    C     C_R   0.860101 0.999679 0.861135 0.884185
C2    C     C_R   0.139929 0.000217 0.139792 0.879469
C3    C     C_R   0.360101 0.499679 0.861131 0.884176
C4    C     C_R   0.639929 0.500216 0.139795 0.879501
C5    C     C_1   0.716895 0.998099 0.718644 -0.175336
C6    C     C_1   0.283101 0.000506 0.282293 -0.174507
C7    C     C_1   0.216895 0.498100 0.718640 -0.175336
C8    C     C_1   0.783101 0.500499 0.282294 -0.174544
C9    C     C_R   0.999862 0.859966 0.499655 0.940302
C10   C     C_R   0.000132 0.140039 0.500820 0.784132
C11   C     C_R   0.499862 0.359965 0.499655 0.940218
C12   C     C_R   0.500132 0.640039 0.500814 0.784098
C13   C     C_R   0.000098 0.004652 0.620275 0.820709
C14   C     C_R   0.999770 0.006218 0.379436 0.792092
C15   C     C_R   0.500099 0.504653 0.620276 0.820714
C16   C     C_R   0.499770 0.506224 0.379437 0.791997
C17   C     C_R   0.499922 0.139271 0.499596 0.819363
C18   C     C_R   0.500097 0.860720 0.500432 0.819993
C19   C     C_R   0.999921 0.639271 0.499595 0.819346
C20   C     C_R   0.000097 0.360720 0.500432 0.819997
C21   C     C_R   0.639231 0.999071 0.639659 0.818387
C22   C     C_R   0.360760 0.000174 0.360487 0.820731
C23   C     C_R   0.139231 0.499071 0.639658 0.818397
C24   C     C_R   0.860760 0.500171 0.360487 0.820705
C25   C     C_1   0.999641 0.782305 0.498977 -0.126078
C26   C     C_1   0.000382 0.217681 0.501308 -0.191881
C27   C     C_1   0.499642 0.282305 0.498977 -0.126091
C28   C     C_1   0.500382 0.717681 0.501305 -0.191926
C29   C     C_1   0.499717 0.216933 0.498858 -0.130536
C30   C     C_1   0.500315 0.783047 0.501256 -0.140895
C31   C     C_1   0.999717 0.716933 0.498857 -0.130567
C32   C     C_1   0.000314 0.283047 0.501258 -0.140868
C33   C     C_R   0.995684 0.000551 0.875737 0.850280
C34   C     C_R   0.003955 0.999835 0.123775 0.849346
C35   C     C_R   0.495683 0.500552 0.875737 0.850283
C36   C     C_R   0.503949 0.499837 0.123770 0.849358
C37   C     C_3   0.961774 0.929328 0.745036 -0.229553
C38   C     C_3   0.048181 0.072487 0.259077 -0.223889
C39   C     C_3   0.036518 0.928198 0.255217 -0.225861
C40   C     C_3   0.954618 0.074055 0.741296 -0.202467
C41   C     C_3   0.461749 0.429342 0.745013 -0.229563
C42   C     C_3   0.548244 0.572455 0.259138 -0.223931
C43   C     C_3   0.536451 0.428183 0.255148 -0.225817
C44   C     C_3   0.454638 0.574071 0.741318 -0.202462
C45   C     C_3   0.949726 0.932654 0.660820 0.044175
C46   C     C_3   0.044439 0.083892 0.327001 -0.007609
C47   C     C_3   0.048188 0.938114 0.338638 0.039094
C48   C     C_3   0.957743 0.079732 0.672269 0.015756
C49   C     C_3   0.449702 0.432671 0.660798 0.044190
C50   C     C_3   0.544497 0.583878 0.327058 -0.007574
C51   C     C_3   0.548113 0.438086 0.338561 0.039017
C52   C     C_3   0.457766 0.579746 0.672293 0.015742
C53   C     C_3   0.080597 0.009624 0.871508 0.134817
C54   C     C_3   0.919146 0.009113 0.127544 0.125183
C55   C     C_3   0.580599 0.509599 0.871511 0.134800
C56   C     C_3   0.419148 0.509202 0.127548 0.125195
C57   C     C_3   0.995835 0.002635 0.807181 -0.101907
C58   C     C_3   0.004487 0.001309 0.192614 -0.114933
C59   C     C_3   0.495834 0.502638 0.807181 -0.101907
C60   C     C_3   0.504483 0.501317 0.192611 -0.114941
C61   C     C_3   0.999302 0.005295 0.688334 -0.088796
C62   C     C_3   0.999946 0.009678 0.310292 -0.088583
C63   C     C_3   0.499302 0.505296 0.688335 -0.088806
C64   C     C_3   0.499944 0.509697 0.310291 -0.088581
C65   C     C_3   0.087880 0.999397 0.805019 -0.032063
C66   C     C_3   0.912188 0.003149 0.194877 -0.029889
C67   C     C_3   0.587878 0.499368 0.805019 -0.032059
C68   C     C_3   0.412184 0.503262 0.194877 -0.029937
C69   C     C_1   0.782430 0.998567 0.784413 -0.137269
C70   C     C_1   0.217604 0.000589 0.216949 -0.152344
C71   C     C_1   0.282430 0.498567 0.784408 -0.137310
C72   C     C_1   0.717604 0.500585 0.216951 -0.152290
Cu1   Cu    Cu3+1 0.000000 0.927450 0.000000 0.978585
Cu2   Cu    Cu3+1 0.000000 0.072550 0.000000 1.017982
Cu3   Cu    Cu3+1 0.500000 0.427450 0.000000 0.978576
Cu4   Cu    Cu3+1 0.500000 0.572550 0.000000 1.017992
Cu5   Cu    Cu3+1 0.927450 1.000000 0.427440 0.922271
Cu6   Cu    Cu3+1 0.072550 1.000000 0.572560 0.911930
Cu7   Cu    Cu3+1 0.427450 0.500000 0.427440 0.922368
Cu8   Cu    Cu3+1 0.572550 0.500000 0.572560 0.911941
Cu9   Cu    Cu3+1 0.499960 0.000000 0.437480 0.979502
Cu10  Cu    Cu3+1 0.500040 1.000000 0.562520 0.979680
Cu11  Cu    Cu3+1 0.999960 0.500000 0.437480 0.979466
Cu12  Cu    Cu3+1 0.000040 0.500000 0.562520 0.979692
H1    H     H_    0.007330 0.892369 0.794304 0.160157
H2    H     H_    0.002902 0.106432 0.204519 0.214415
H3    H     H_    0.991069 0.890555 0.204538 0.170668
H4    H     H_    0.992878 0.115109 0.794852 0.219060
H5    H     H_    0.507292 0.392367 0.794268 0.160159
H6    H     H_    0.502993 0.606433 0.204602 0.214419
H7    H     H_    0.490976 0.390567 0.204427 0.170667
H8    H     H_    0.492914 0.615111 0.794887 0.219069
O1    O     O_R   0.894190 0.938730 0.894180 -0.571785
O2    O     O_R   0.105810 0.061270 0.105820 -0.560276
O3    O     O_R   0.105810 0.938730 0.105820 -0.580289
O4    O     O_R   0.894190 0.061270 0.894180 -0.567793
O5    O     O_R   0.394190 0.438730 0.894180 -0.571796
O6    O     O_R   0.605810 0.561270 0.105820 -0.560266
O7    O     O_R   0.605810 0.438730 0.105820 -0.580287
O8    O     O_R   0.394190 0.561270 0.894180 -0.567781
O9    O     O_R   0.999980 0.938730 0.908830 -0.577283
O10   O     O_R   0.000020 0.061270 0.091170 -0.564701
O11   O     O_R   0.000020 0.938730 0.091170 -0.580620
O12   O     O_R   0.999980 0.061270 0.908830 -0.567996
O13   O     O_R   0.499980 0.438730 0.908830 -0.577280
O14   O     O_R   0.500020 0.561270 0.091170 -0.564699
O15   O     O_R   0.500020 0.438730 0.091170 -0.580644
O16   O     O_R   0.499980 0.561270 0.908830 -0.568008
O17   O     O_R   0.938700 0.894210 0.438700 -0.559939
O18   O     O_R   0.061300 0.105790 0.561300 -0.614892
O19   O     O_R   0.061300 0.894210 0.561300 -0.594657
O20   O     O_R   0.938700 0.105790 0.438700 -0.608187
O21   O     O_R   0.438700 0.394210 0.438700 -0.559826
O22   O     O_R   0.561300 0.605790 0.561300 -0.614873
O23   O     O_R   0.561300 0.394210 0.561300 -0.594728
O24   O     O_R   0.438700 0.605790 0.438700 -0.608211
O25   O     O_R   0.938740 0.000000 0.529880 -0.600360
O26   O     O_R   0.061260 1.000000 0.470120 -0.592779
O27   O     O_R   0.438740 0.500000 0.529880 -0.600342
O28   O     O_R   0.561260 0.500000 0.470120 -0.592762
O29   O     O_R   0.061220 0.000000 0.652370 -0.607862
O30   O     O_R   0.938780 0.000000 0.347630 -0.601619
O31   O     O_R   0.561220 0.500000 0.652370 -0.607881
O32   O     O_R   0.438780 0.500000 0.347630 -0.601550
O33   O     O_R   0.499910 0.105770 0.447130 -0.576235
O34   O     O_R   0.500090 0.894230 0.552870 -0.572035
O35   O     O_R   0.500090 0.105770 0.552870 -0.573992
O36   O     O_R   0.499910 0.894230 0.447130 -0.570729
O37   O     O_R   0.999910 0.605770 0.447130 -0.576246
O38   O     O_R   0.000090 0.394230 0.552870 -0.572032
O39   O     O_R   0.000090 0.605770 0.552870 -0.573988
O40   O     O_R   0.999910 0.394230 0.447130 -0.570725
O41   O     O_R   0.605760 0.000000 0.553010 -0.602639
O42   O     O_R   0.394240 0.000000 0.446990 -0.600566
O43   O     O_R   0.105760 0.500000 0.553010 -0.602626
O44   O     O_R   0.894240 0.500000 0.446990 -0.600566
O45   O     O_R   0.605780 1.000000 0.658540 -0.557292
O46   O     O_R   0.394220 1.000000 0.341460 -0.558626
O47   O     O_R   0.105780 0.500000 0.658540 -0.557287
O48   O     O_R   0.894220 0.500000 0.341460 -0.558645
C73   C     C_R   0.904937 0.888888 0.728866 0.113815
C74   C     C_R   0.832026 0.912146 0.662146 -0.170200
C75   C     C_R   0.784321 0.877827 0.655132 -0.142206
C76   C     C_R   0.808129 0.818512 0.713838 -0.079968
C77   C     C_R   0.878662 0.791505 0.776673 -0.130207
C78   C     C_R   0.926096 0.825164 0.782808 -0.096188
H9    H     H_    0.811080 0.955954 0.613792 0.132256
H10   H     H_    0.728876 0.897562 0.604278 0.146995
H11   H     H_    0.771583 0.792990 0.709746 0.120879
H12   H     H_    0.897041 0.744797 0.821523 0.103683
H13   H     H_    0.980734 0.803159 0.833155 0.120051
C79   C     C_R   0.097895 0.121034 0.264949 0.121838
C80   C     C_R   0.163506 0.096846 0.303195 -0.189724
C81   C     C_R   0.203013 0.140676 0.301996 -0.106352
C82   C     C_R   0.176211 0.208058 0.256511 -0.074888
C83   C     C_R   0.110490 0.232649 0.213885 -0.165606
C84   C     C_R   0.072774 0.191059 0.219387 -0.062504
H14   H     H_    0.189392 0.046837 0.340910 0.092576
H15   H     H_    0.254625 0.121803 0.336019 0.133703
H16   H     H_    0.206266 0.241110 0.254082 0.130035
H17   H     H_    0.088629 0.284534 0.176664 0.118453
H18   H     H_    0.021367 0.213093 0.182970 0.163986
C85   C     C_R   0.096220 0.881654 0.283217 0.130266
C86   C     C_R   0.142254 0.907868 0.282517 -0.092187
C87   C     C_R   0.206222 0.871201 0.331066 -0.156337
C88   C     C_R   0.224378 0.806201 0.378611 -0.109216
C89   C     C_R   0.175462 0.774808 0.370596 -0.137111
C90   C     C_R   0.110655 0.810484 0.319712 -0.134871
H19   H     H_    0.131828 0.958166 0.249236 0.096407
H20   H     H_    0.242975 0.894318 0.334438 0.138782
H21   H     H_    0.275731 0.779951 0.420323 0.157743
H22   H     H_    0.187834 0.723351 0.404957 0.153107
H23   H     H_    0.073282 0.782209 0.311676 0.160547
C91   C     C_R   0.890154 0.112627 0.709892 0.095443
C92   C     C_R   0.873953 0.186901 0.680044 -0.100960
C93   C     C_R   0.810399 0.220165 0.636921 -0.152776
C94   C     C_R   0.761761 0.181283 0.624366 -0.113893
C95   C     C_R   0.778831 0.110467 0.659390 -0.139857
C96   C     C_R   0.844043 0.077828 0.706031 -0.122320
H24   H     H_    0.908516 0.220194 0.686774 0.170534
H25   H     H_    0.798263 0.275734 0.611367 0.155471
H26   H     H_    0.711438 0.206263 0.588753 0.144056
H27   H     H_    0.740567 0.080935 0.648917 0.142515
H28   H     H_    0.857334 0.025623 0.737901 0.109541
C97   C     C_R   0.404898 0.388925 0.728831 0.113781
C98   C     C_R   0.331996 0.412209 0.662119 -0.170211
C99   C     C_R   0.284279 0.377909 0.655095 -0.142240
C100  C     C_R   0.308069 0.318592 0.713789 -0.079993
C101  C     C_R   0.378594 0.291564 0.776621 -0.130178
C102  C     C_R   0.426036 0.325199 0.782758 -0.096194
H29   H     H_    0.311066 0.456023 0.613778 0.132253
H30   H     H_    0.228841 0.397663 0.604245 0.147016
H31   H     H_    0.271515 0.293086 0.709691 0.120879
H32   H     H_    0.396960 0.244856 0.821464 0.103675
H33   H     H_    0.480667 0.303175 0.833100 0.120056
C103  C     C_R   0.597995 0.620959 0.265042 0.121817
C104  C     C_R   0.663616 0.596738 0.303334 -0.189869
C105  C     C_R   0.703166 0.640541 0.302187 -0.106523
C106  C     C_R   0.676395 0.707921 0.256697 -0.074810
C107  C     C_R   0.610663 0.732541 0.214019 -0.165482
C108  C     C_R   0.572909 0.690983 0.219480 -0.062478
H34   H     H_    0.689483 0.546725 0.341054 0.092643
H35   H     H_    0.754789 0.621648 0.336257 0.133732
H36   H     H_    0.706482 0.740950 0.254305 0.129993
H37   H     H_    0.588826 0.784426 0.176795 0.118429
H38   H     H_    0.521502 0.713043 0.183038 0.163973
C109  C     C_R   0.596139 0.381616 0.283140 0.130315
C110  C     C_R   0.642199 0.407819 0.282478 -0.092164
C111  C     C_R   0.706147 0.371121 0.331006 -0.156352
C112  C     C_R   0.724258 0.306100 0.378491 -0.109234
C113  C     C_R   0.675315 0.274719 0.370436 -0.137140
C114  C     C_R   0.610532 0.310433 0.319582 -0.134883
H39   H     H_    0.631809 0.458131 0.249240 0.096445
H40   H     H_    0.742920 0.394232 0.334408 0.138778
H41   H     H_    0.775598 0.279826 0.420191 0.157772
H42   H     H_    0.687650 0.223244 0.404744 0.153056
H43   H     H_    0.573143 0.282179 0.311531 0.160550
C115  C     C_R   0.390192 0.612670 0.709933 0.095422
C116  C     C_R   0.374024 0.686953 0.680122 -0.100954
C117  C     C_R   0.310506 0.720258 0.637063 -0.152809
C118  C     C_R   0.261866 0.681406 0.624527 -0.113892
C119  C     C_R   0.278899 0.610577 0.659503 -0.139758
C120  C     C_R   0.344075 0.577895 0.706076 -0.122264
H44   H     H_    0.408590 0.720228 0.686843 0.170547
H45   H     H_    0.298400 0.775838 0.611553 0.155454
H46   H     H_    0.211572 0.706420 0.588970 0.144074
H47   H     H_    0.240636 0.581072 0.649054 0.142476
H48   H     H_    0.357340 0.525679 0.737912 0.109530
C121  C     C_R   0.866227 0.911003 0.559782 0.134897
C122  C     C_R   0.817475 0.946390 0.469318 -0.092591
C123  C     C_R   0.744715 0.924095 0.387822 -0.190757
C124  C     C_R   0.717975 0.862507 0.390401 -0.112411
C125  C     C_R   0.765471 0.819610 0.471972 -0.117010
C126  C     C_R   0.838029 0.841861 0.552952 -0.096608
H49   H     H_    0.829631 0.993431 0.455498 0.194654
H50   H     H_    0.708635 0.955515 0.322154 0.132702
H51   H     H_    0.661088 0.847178 0.328442 0.142499
H52   H     H_    0.746315 0.768878 0.472896 0.150201
H53   H     H_    0.872377 0.803913 0.612333 0.153566
C127  C     C_R   0.118182 0.104901 0.434718 0.137606
C128  C     C_R   0.187894 0.113660 0.477383 -0.131873
C129  C     C_R   0.250597 0.132136 0.573648 -0.132012
C130  C     C_R   0.245202 0.147923 0.629476 -0.142902
C131  C     C_R   0.176619 0.150428 0.587144 -0.116950
C132  C     C_R   0.114492 0.130605 0.491161 -0.009908
H54   H     H_    0.197919 0.103116 0.441510 0.134324
H55   H     H_    0.303559 0.133968 0.604862 0.128508
H56   H     H_    0.293674 0.160616 0.704418 0.119199
H57   H     H_    0.171699 0.168770 0.628537 0.137459
H58   H     H_    0.061654 0.137355 0.458066 0.128718
C133  C     C_R   0.132868 0.938366 0.442653 0.167777
C134  C     C_R   0.160858 0.908159 0.526558 -0.059657
C135  C     C_R   0.235890 0.903559 0.614521 -0.178292
C136  C     C_R   0.286634 0.927088 0.622632 -0.127522
C137  C     C_R   0.262062 0.955581 0.542821 -0.137213
C138  C     C_R   0.186926 0.961391 0.455885 -0.117083
H59   H     H_    0.126018 0.887416 0.527024 0.184393
H60   H     H_    0.254569 0.880741 0.676291 0.129750
H61   H     H_    0.344746 0.923125 0.690456 0.132342
H62   H     H_    0.301018 0.974827 0.548343 0.130221
H63   H     H_    0.170190 0.987148 0.398412 0.125146
C139  C     C_R   0.881842 0.097372 0.565004 0.098731
C140  C     C_R   0.879870 0.132657 0.505317 -0.059651
C141  C     C_R   0.814305 0.148718 0.409172 -0.145697
C142  C     C_R   0.747662 0.131732 0.369304 -0.181050
C143  C     C_R   0.746768 0.099825 0.426103 -0.179102
C144  C     C_R   0.812483 0.082846 0.521935 -0.120131
H64   H     H_    0.929880 0.147210 0.533123 0.148616
H65   H     H_    0.815333 0.174782 0.365732 0.142150
H66   H     H_    0.696777 0.143900 0.294765 0.143702
H67   H     H_    0.694980 0.085622 0.395039 0.141062
H68   H     H_    0.807121 0.051646 0.557277 0.141525
C145  C     C_R   0.366196 0.411047 0.559753 0.134908
C146  C     C_R   0.317456 0.446449 0.469300 -0.092556
C147  C     C_R   0.244691 0.424174 0.387794 -0.190732
C148  C     C_R   0.217931 0.362593 0.390350 -0.112420
C149  C     C_R   0.265411 0.319684 0.471910 -0.117023
C150  C     C_R   0.337975 0.341915 0.552901 -0.096598
H69   H     H_    0.329628 0.493488 0.455497 0.194642
H70   H     H_    0.208622 0.455605 0.322135 0.132687
H71   H     H_    0.161041 0.347278 0.328382 0.142478
H72   H     H_    0.246239 0.268957 0.472816 0.150178
H73   H     H_    0.372309 0.303958 0.612271 0.153555
C151  C     C_R   0.618241 0.604842 0.434791 0.137640
C152  C     C_R   0.687967 0.613549 0.477484 -0.131870
C153  C     C_R   0.750669 0.632004 0.573756 -0.132019
C154  C     C_R   0.745266 0.647824 0.629569 -0.142944
C155  C     C_R   0.676676 0.650373 0.587215 -0.116940
C156  C     C_R   0.614548 0.630571 0.491225 -0.009862
H74   H     H_    0.697995 0.602984 0.441619 0.134331
H75   H     H_    0.803637 0.633798 0.604987 0.128512
H76   H     H_    0.793736 0.660508 0.704514 0.119195
H77   H     H_    0.671751 0.668736 0.628597 0.137441
H78   H     H_    0.561708 0.637357 0.458117 0.128681
C157  C     C_R   0.632784 0.438262 0.442585 0.167733
C158  C     C_R   0.660730 0.408016 0.526444 -0.059620
C159  C     C_R   0.735753 0.403371 0.614423 -0.178214
C160  C     C_R   0.786530 0.426893 0.622590 -0.127590
C161  C     C_R   0.761999 0.455416 0.542819 -0.137234
C162  C     C_R   0.686872 0.461272 0.455869 -0.117087
H79   H     H_    0.625860 0.387286 0.526862 0.184341
H80   H     H_    0.754399 0.380529 0.676160 0.129771
H81   H     H_    0.844636 0.422897 0.690425 0.132359
H82   H     H_    0.800981 0.474651 0.548381 0.130223
H83   H     H_    0.670166 0.487050 0.398427 0.125158
C163  C     C_R   0.381870 0.597408 0.565035 0.098718
C164  C     C_R   0.379909 0.632691 0.505358 -0.059685
C165  C     C_R   0.314350 0.648778 0.409220 -0.145671
C166  C     C_R   0.247701 0.631813 0.369347 -0.180985
C167  C     C_R   0.246798 0.599904 0.426136 -0.179148
C168  C     C_R   0.312508 0.582908 0.521964 -0.120169
H84   H     H_    0.429925 0.647226 0.533168 0.148606
H85   H     H_    0.315385 0.674843 0.365788 0.142140
H86   H     H_    0.196821 0.643998 0.294812 0.143700
H87   H     H_    0.195006 0.585718 0.395067 0.141070
H88   H     H_    0.307137 0.551716 0.557299 0.141516
I1    I     I_    0.991762 0.836098 0.654027 -0.450973
I2    I     I_    0.994694 0.195847 0.284427 -0.475571
I3    I     I_    0.009727 0.836910 0.347667 -0.509806
I4    I     I_    0.014946 0.187471 0.715696 -0.478914
I5    I     I_    0.491705 0.336100 0.653973 -0.450955
I6    I     I_    0.494843 0.695883 0.284541 -0.475527
I7    I     I_    0.509538 0.336907 0.347451 -0.509771
I8    I     I_    0.515005 0.687465 0.715753 -0.478820
I9    I     I_    0.156343 0.947090 0.006683 -0.411405
I10   I     I_    0.868945 0.109579 0.033978 -0.373657
I11   I     I_    0.843051 0.943647 0.995877 -0.403998
I12   I     I_    0.130950 0.111655 0.959598 -0.351531
I13   I     I_    0.656329 0.447047 0.006672 -0.411378
I14   I     I_    0.369036 0.609703 0.034051 -0.373679
I15   I     I_    0.343010 0.443781 0.995842 -0.404036
I16   I     I_    0.630983 0.611615 0.959632 -0.351454
C169  C     C_R   0.130051 0.925292 0.827820 0.111476
C170  C     C_R   0.135152 0.859306 0.868332 -0.097705
C171  C     C_R   0.176307 0.799151 0.891910 -0.085137
C172  C     C_R   0.214894 0.800736 0.876656 -0.072512
C173  C     C_R   0.213170 0.862933 0.838724 -0.151695
C174  C     C_R   0.172990 0.923541 0.816131 -0.062656
H89   H     H_    0.105226 0.848677 0.878753 0.140814
H90   H     H_    0.177021 0.750327 0.920773 0.139571
H91   H     H_    0.246308 0.753886 0.894547 0.164811
H92   H     H_    0.244346 0.864999 0.828254 0.124901
H93   H     H_    0.179998 0.970292 0.793623 0.153030
C175  C     C_R   0.856966 0.064880 0.159989 0.126912
C176  C     C_R   0.868653 0.113766 0.220452 -0.061691
C177  C     C_R   0.814190 0.161098 0.185602 -0.104409
C178  C     C_R   0.744662 0.159381 0.089839 -0.138270
C179  C     C_R   0.728965 0.109121 0.029154 -0.149831
C180  C     C_R   0.783287 0.061822 0.063845 -0.099649
H94   H     H_    0.919924 0.117991 0.295581 0.145786
H95   H     H_    0.826017 0.198813 0.233732 0.139729
H96   H     H_    0.702559 0.195931 0.063156 0.134239
H97   H     H_    0.674205 0.105863 0.955201 0.138575
H98   H     H_    0.767120 0.021376 0.014944 0.179029
C181  C     C_R   0.867778 0.930948 0.174217 0.119945
C182  C     C_R   0.822542 0.933224 0.182312 -0.059012
C183  C     C_R   0.780213 0.874396 0.160416 -0.154459
C184  C     C_R   0.778308 0.810121 0.126417 -0.079875
C185  C     C_R   0.818877 0.804704 0.114440 -0.077775
C186  C     C_R   0.862195 0.863135 0.137547 -0.093321
H99   H     H_    0.816298 0.981667 0.202660 0.149474
H100  H     H_    0.747633 0.879428 0.168448 0.123049
H101  H     H_    0.745210 0.764657 0.109006 0.161101
H102  H     H_    0.817832 0.754319 0.088301 0.148659
H103  H     H_    0.893486 0.850063 0.130106 0.148429
C187  C     C_R   0.147456 0.058053 0.842073 0.134097
C188  C     C_R   0.220205 0.052392 0.939268 -0.098810
C189  C     C_R   0.277758 0.097127 0.977455 -0.139642
C190  C     C_R   0.266719 0.147222 0.919438 -0.131566
C191  C     C_R   0.198648 0.151129 0.822837 -0.115789
C192  C     C_R   0.140928 0.106456 0.784570 -0.065071
H104  H     H_    0.233435 0.011914 0.986690 0.177870
H105  H     H_    0.331431 0.091917 0.052121 0.140332
H106  H     H_    0.311297 0.181821 0.948819 0.134656
H107  H     H_    0.190379 0.188717 0.776730 0.134584
H108  H     H_    0.091184 0.113409 0.709307 0.162346
C193  C     C_R   0.630021 0.425247 0.827794 0.111445
C194  C     C_R   0.635102 0.359261 0.868289 -0.097701
C195  C     C_R   0.676237 0.299091 0.891850 -0.085126
C196  C     C_R   0.714820 0.300660 0.876589 -0.072531
C197  C     C_R   0.713113 0.362854 0.838671 -0.151690
C198  C     C_R   0.672955 0.423478 0.816098 -0.062670
H109  H     H_    0.605176 0.348646 0.878713 0.140821
H110  H     H_    0.676939 0.250268 0.920704 0.139614
H111  H     H_    0.746218 0.253799 0.894465 0.164804
H112  H     H_    0.744287 0.364907 0.828197 0.124907
H113  H     H_    0.679978 0.470225 0.793605 0.153041
C199  C     C_R   0.357050 0.565071 0.160078 0.126925
C200  C     C_R   0.368802 0.613908 0.220630 -0.061746
C201  C     C_R   0.314404 0.661302 0.185864 -0.104353
C202  C     C_R   0.244876 0.659693 0.090096 -0.138180
C203  C     C_R   0.229110 0.609478 0.029322 -0.149968
C204  C     C_R   0.283367 0.562118 0.063929 -0.099597
H114  H     H_    0.420081 0.618056 0.295765 0.145647
H115  H     H_    0.326284 0.698980 0.234063 0.139721
H116  H     H_    0.202824 0.696295 0.063477 0.134308
H117  H     H_    0.174346 0.606303 0.955364 0.138528
H118  H     H_    0.267147 0.521704 0.014962 0.179026
C205  C     C_R   0.367674 0.431125 0.174123 0.120085
C206  C     C_R   0.322391 0.433484 0.182142 -0.058987
C207  C     C_R   0.279852 0.374767 0.159955 -0.154745
C208  C     C_R   0.277815 0.310515 0.125795 -0.079944
C209  C     C_R   0.318503 0.304994 0.114009 -0.077770
C210  C     C_R   0.362016 0.363316 0.137384 -0.093234
H119  H     H_    0.316252 0.481926 0.202615 0.149477
H120  H     H_    0.247203 0.379877 0.167872 0.123039
H121  H     H_    0.244534 0.265146 0.108122 0.161190
H122  H     H_    0.317377 0.254617 0.087777 0.148782
H123  H     H_    0.393365 0.350185 0.130047 0.148441
C211  C     C_R   0.647478 0.558002 0.842099 0.134109
C212  C     C_R   0.720225 0.552311 0.939293 -0.098805
C213  C     C_R   0.777795 0.597027 0.977502 -0.139678
C214  C     C_R   0.766777 0.647130 0.919510 -0.131474
C215  C     C_R   0.698708 0.651066 0.822910 -0.115764
C216  C     C_R   0.640971 0.606414 0.784621 -0.065079
H124  H     H_    0.733439 0.511825 0.986696 0.177860
H125  H     H_    0.831466 0.591793 0.052166 0.140276
H126  H     H_    0.811369 0.681713 0.948908 0.134632
H127  H     H_    0.690455 0.688661 0.776821 0.134582
H128  H     H_    0.591231 0.613389 0.709360 0.162377

loop_
_geom_bond_atom_site_label_1
_geom_bond_atom_site_label_2
_ccdc_geom_bond_type
C19   O37   A    
C132  H58   S    
Cu3   O15   S    
C183  C184  A    
C55   C59   S    
Cu1   O1    S    
C173  C174  A    
C97   C102  A    
C169  C170  A    
C24   O48   A    
C34   O10   A    
C153  H75   S    
C46   C62   S    
C151  C152  A    
C186  H103  S    
Cu4   O6    S    
C75   C76   A    
C131  C132  A    
C146  C147  A    
C121  C126  A    
C168  H88   S    
Cu5   O30   S    
C175  C180  A    
C3    O8    A    
C159  H80   S    
C188  H104  S    
C39   H3    S    
C11   O23   A    
C44   H8    S    
Cu1   O9    S    
C49   C145  S    
C200  H114  S    
C90   H23   S    
C20   O40   A    
C41   C49   S    
C189  C190  A    
C77   C78   A    
Cu9   O46   S    
C54   I11   S    
C36   O14   A    
C55   I13   S    
C133  C134  A    
C44   C115  S    
C17   O35   A    
C53   I12   S    
Cu10  O42   S    
Cu5   O20   S    
Cu3   Cu4   S    
C206  H119  S    
C144  H68   S    
C92   C93   A    
C11   C27   S    
C163  C164  A    
C81   C82   A    
C201  C202  A    
C158  C159  A    
C106  H36   S    
Cu3   O13   S    
Cu9   O36   S    
C47   I3    S    
C197  C198  A    
C48   I4    S    
C160  C161  A    
Cu1   O3    S    
C37   C45   S    
C39   C47   S    
C40   C48   S    
C79   C84   A    
C141  H65   S    
C51   C64   S    
C156  H78   S    
C76   C77   A    
C52   C63   S    
Cu4   O8    S    
C145  C150  A    
C52   I8    S    
C40   H4    S    
C147  H70   S    
C16   O32   A    
C85   C90   A    
C193  C198  A    
C40   C91   S    
C195  H110  S    
C136  H61   S    
Cu12  O38   S    
C179  C180  A    
C28   C30   T    
C200  C201  A    
C11   O21   A    
C56   I14   S    
C165  H85   S    
C171  C172  A    
C61   C65   S    
C211  C216  A    
C5    C21   S    
C1    O1    A    
C192  H108  S    
C185  C186  A    
C34   C58   S    
C99   C100  A    
C98   C99   A    
C84   H18   S    
C37   C57   S    
C94   H26   S    
C196  C197  A    
Cu8   O31   S    
C162  H83   S    
C25   C31   T    
C41   H5    S    
C149  H72   S    
C26   C32   T    
C110  H39   S    
C27   C29   T    
C33   O12   A    
C47   C62   S    
C95   C96   A    
C133  C138  A    
C115  C120  A    
C50   I6    S    
C182  H99   S    
C203  H117  S    
C38   H2    S    
C64   C68   S    
C213  C214  A    
Cu6   O26   S    
Cu11  O37   S    
C143  H67   S    
C16   O28   A    
C135  C136  A    
C44   C59   S    
C174  H93   S    
C14   C62   S    
C98   H29   S    
C128  C129  A    
C45   C61   S    
C80   H14   S    
C91   C92   A    
C18   O36   A    
C116  H44   S    
C197  H112  S    
C141  C142  A    
C185  H102  S    
C53   C65   S    
C161  H82   S    
C47   C133  S    
C77   H12   S    
C24   O44   A    
C113  H42   S    
C149  C150  A    
C101  C102  A    
C135  H60   S    
C117  C118  A    
C121  C122  A    
C12   O22   A    
C75   H10   S    
C131  H57   S    
C62   C66   S    
C146  H69   S    
Cu2   O4    S    
C2    O2    A    
C139  C144  A    
C170  C171  A    
C56   C68   S    
C39   C58   S    
C190  H106  S    
C50   C151  S    
C42   H6    S    
C118  C119  A    
C35   O13   A    
C13   O29   A    
Cu11  Cu12  S    
Cu1   O11   S    
C108  H38   S    
C53   I9    S    
Cu3   O7    S    
C111  C112  A    
C99   H30   S    
C104  H34   S    
Cu5   O17   S    
C211  C212  A    
C123  H50   S    
C49   I5    S    
C102  H33   S    
C42   C50   S    
C43   C60   S    
C83   H17   S    
C130  H56   S    
C164  C165  A    
Cu7   O21   S    
C124  H51   S    
C191  C192  A    
C82   C83   A    
C68   C205  S    
Cu2   O12   S    
C208  C209  A    
C20   C32   S    
C116  C117  A    
C137  H62   S    
Cu4   O14   S    
Cu9   O33   S    
C212  H124  S    
C216  H128  S    
C74   H9    S    
C95   H27   S    
C206  C207  A    
C100  H31   S    
Cu9   O41   S    
C139  C140  A    
C54   C66   S    
Cu7   O32   S    
C163  C168  A    
C150  H73   S    
C209  H122  S    
C194  C195  A    
C81   H15   S    
C157  C158  A    
C18   O34   A    
C88   C89   A    
C198  H113  S    
C7    C23   S    
C187  C192  A    
C127  C128  A    
C8    C24   S    
C15   O27   A    
C160  H81   S    
C104  C105  A    
C38   C46   S    
C78   H13   S    
C106  C107  A    
C79   C80   A    
C4    O7    A    
C154  H76   S    
C134  C135  A    
C103  C108  A    
C180  H98   S    
C12   O24   A    
C66   C181  S    
C204  H118  S    
C214  C215  A    
C14   O30   A    
C17   C29   S    
Cu1   Cu2   S    
Cu2   O2    S    
C147  C148  A    
C172  C173  A    
C19   C31   S    
C9    C25   S    
C195  C196  A    
Cu5   Cu6   S    
C37   C73   S    
C12   C28   S    
C33   O9    A    
C55   I16   S    
C86   C87   A    
C96   H28   S    
C54   C58   S    
C171  H90   S    
C103  C104  A    
C114  H43   S    
C130  C131  A    
C6    C22   S    
Cu3   O5    S    
C35   C59   S    
C21   O41   A    
C194  H109  S    
Cu6   O29   S    
C187  C188  A    
Cu10  O34   S    
C5    C69   T    
C38   C58   S    
C209  C210  A    
Cu12  O47   S    
C110  C111  A    
Cu7   O27   S    
C10   O20   A    
C207  H120  S    
Cu2   O10   S    
Cu4   O16   S    
C138  H63   S    
C205  C210  A    
C134  H59   S    
C207  C208  A    
C167  H87   S    
C9    O17   A    
C140  H64   S    
C8    C72   T    
C43   C109  S    
C128  H54   S    
C177  H95   S    
C89   C90   A    
C53   C57   S    
C199  C204  A    
C118  H46   S    
C1    C69   S    
C109  C110  A    
C3    C71   S    
C125  H52   S    
C152  C153  A    
C3    O5    A    
C113  C114  A    
Cu8   O23   S    
C4    C72   S    
C129  C130  A    
C101  H32   S    
C157  C162  A    
C122  H49   S    
C155  H77   S    
C42   C103  S    
C92   H24   S    
C73   C78   A    
C46   I2    S    
C67   C211  S    
C151  C156  A    
C215  C216  A    
C210  H123  S    
C39   C85   S    
C178  C179  A    
C37   H1    S    
C87   H20   S    
C6    C70   T    
C167  C168  A    
Cu12  O44   S    
C40   C57   S    
C205  C206  A    
C34   O11   A    
C203  C204  A    
C191  H107  S    
C13   O25   A    
C166  H86   S    
C89   H22   S    
C22   O46   A    
C111  H40   S    
C23   O43   A    
Cu11  O40   S    
C43   C51   S    
C97   C98   A    
C189  H105  S    
C169  C174  A    
C45   I1    S    
C67   C193  S    
C48   C139  S    
C124  C125  A    
C10   O18   A    
C122  C123  A    
C65   C169  S    
Cu11  O48   S    
C208  H121  S    
C56   C60   S    
C94   C95   A    
C105  H35   S    
C74   C75   A    
C2    C70   S    
C214  H126  S    
C112  H41   S    
C9    O19   A    
Cu8   O28   S    
C87   C88   A    
C49   C63   S    
C4    O6    A    
C50   C64   S    
C159  C160  A    
C85   C86   A    
C54   I10   S    
C142  H66   S    
C17   O33   A    
Cu9   Cu10  S    
C115  C116  A    
C202  C203  A    
C51   I7    S    
C166  C167  A    
C136  C137  A    
C15   O31   A    
C22   O42   A    
C23   O47   A    
C2    O3    A    
C164  H84   S    
Cu10  O45   S    
Cu5   O25   S    
C7    C71   T    
C153  C154  A    
C148  H71   S    
C107  H37   S    
C176  H94   S    
C93   H25   S    
C119  H47   S    
C35   O16   A    
C212  C213  A    
C181  C182  A    
C107  C108  A    
C14   O26   A    
C117  H45   S    
C105  C106  A    
C18   C30   S    
C46   C127  S    
C142  C143  A    
C51   C157  S    
C10   C26   S    
C181  C186  A    
C178  H96   S    
C88   H21   S    
Cu7   O24   S    
C36   O15   A    
C86   H19   S    
C184  C185  A    
C45   C121  S    
C38   C79   S    
C179  H97   S    
C19   O39   A    
C202  H116  S    
C63   C67   S    
C65   C187  S    
C41   C59   S    
C42   C60   S    
C161  C162  A    
C120  H48   S    
C199  C200  A    
C152  H74   S    
C43   H7    S    
C21   O45   A    
C100  C101  A    
C83   C84   A    
C172  H91   S    
C188  C189  A    
C145  C146  A    
C170  H89   S    
C41   C97   S    
C184  H101  S    
Cu6   O18   S    
C148  C149  A    
C193  C194  A    
Cu6   O19   S    
C215  H127  S    
C93   C94   A    
Cu8   O22   S    
C213  H125  S    
C154  C155  A    
C66   C175  S    
C109  C114  A    
C52   C163  S    
C137  C138  A    
C165  C166  A    
C190  C191  A    
C125  C126  A    
C183  H100  S    
C68   C199  S    
C33   C57   S    
C76   H11   S    
C82   H16   S    
Cu11  O43   S    
C173  H92   S    
C20   O38   A    
C36   C60   S    
C55   C67   S    
Cu12  O39   S    
C129  H55   S    
C155  C156  A    
C140  C141  A    
C80   C81   A    
C56   I15   S    
C73   C74   A    
C158  H79   S    
C44   C52   S    
C177  C178  A    
C127  C132  A    
C1    O4    A    
C182  C183  A    
C196  H111  S    
C126  H53   S    
C119  C120  A    
Cu10  O35   S    
C143  C144  A    
Cu7   Cu8   S    
C13   C61   S    
C112  C113  A    
C48   C61   S    
C123  C124  A    
C201  H115  S    
C15   C63   S    
C16   C64   S    
C176  C177  A    
C175  C176  A    
C91   C96   A    
