data_mof_unit_44183.cif
_audit_creation_date              2012-12-10T17:09:52-0500
_audit_creation_method            fapswitch 2.2
_symmetry_space_group_name_H-M    P1
_symmetry_Int_Tables_number       1
_space_group_crystal_system       triclinic
_cell_length_a                    10.781447
_cell_length_b                    13.013537
_cell_length_c                    11.676918
_cell_angle_alpha                 100.268291
_cell_angle_beta                  93.49556
_cell_angle_gamma                 90.292671
_cell_volume                      1608.87530904

loop_
_atom_site_label
_atom_site_type_symbol
_atom_type_description
_atom_site_fract_x
_atom_site_fract_y
_atom_site_fract_z
_atom_type_partial_charge
C1    C     C_R   0.497968 0.298757 0.478030 0.865586
C2    C     C_R   0.070375 0.593745 0.565041 -0.038547
C3    C     C_R   0.129247 0.506307 0.502670 -0.255427
C4    C     C_R   0.060341 0.421613 0.437896 0.389914
C5    C     C_R   0.931118 0.425501 0.429544 0.366439
C6    C     C_R   0.871313 0.507706 0.498393 -0.256237
C7    C     C_R   0.501046 0.814318 0.535035 -0.122606
C8    C     C_R   0.497134 0.184620 0.464381 -0.176811
C9    C     C_R   0.494291 0.011838 0.344954 -0.270236
C10   C     C_R   0.496880 0.120214 0.353171 0.503216
C11   C     C_R   0.498886 0.139671 0.565040 -0.310906
C12   C     C_R   0.262737 0.502422 0.500964 0.872547
C13   C     C_R   0.500055 0.031615 0.556890 0.060785
C14   C     C_R   0.497764 0.967686 0.445513 0.035952
C15   C     C_R   0.498536 0.859928 0.435452 -0.230859
C16   C     C_R   0.502499 0.877237 0.645929 -0.243030
C17   C     C_R   0.504006 0.986060 0.657789 0.534046
C18   C     C_R   0.381997 0.403798 0.020820 -0.443996
C19   C     C_R   0.393475 0.410422 0.144398 0.719250
C20   C     C_R   0.551243 0.541757 0.157196 -0.093029
C21   C     C_R   0.543409 0.535247 0.034442 0.064668
C22   C     C_R   0.457571 0.465323 0.965808 0.019349
C23   C     C_R   0.501168 0.700928 0.521807 0.793875
C24   C     C_R   0.448955 0.458614 0.842989 0.069538
C25   C     C_R   0.606751 0.587960 0.856167 0.095242
C26   C     C_R   0.618476 0.597088 0.978450 -0.308758
C27   C     C_R   0.737512 0.502285 0.499518 0.875649
C28   C     C_R   0.138712 0.682101 0.625656 -0.176590
C29   C     C_R   0.078332 0.767895 0.685683 0.433712
C30   C     C_R   0.949207 0.767620 0.685667 -0.188910
C31   C     C_R   0.880023 0.681982 0.625179 -0.216995
C32   C     C_R   0.939416 0.593826 0.564262 0.033986
Cu1   Cu    Cu3+1 0.509250 0.507730 0.615930 0.939136
Cu2   Cu    Cu3+1 0.490750 0.492270 0.384070 1.014096
H1    H     H_    0.499831 0.189112 0.650227 0.215667
H2    H     H_    0.383010 0.404717 0.789472 0.122605
H3    H     H_    0.664965 0.636023 0.814049 0.121229
H4    H     H_    0.314569 0.352030 0.966642 0.148203
H5    H     H_    0.685606 0.652116 0.028622 0.136622
H6    H     H_    0.616882 0.595812 0.210856 0.141047
H7    H     H_    0.238898 0.686378 0.625879 0.165234
H8    H     H_    0.901963 0.834490 0.731274 0.156083
H9    H     H_    0.779942 0.686913 0.624712 0.146500
H10   H     H_    0.497193 0.811596 0.349470 0.167342
H11   H     H_    0.501899 0.842370 0.723499 0.184195
H12   H     H_    0.489010 0.962093 0.259783 0.151290
N1    N     N_R   0.523180 0.519350 0.790130 -0.185927
N2    N     N_R   0.476820 0.480650 0.209890 -0.216661
O1    O     O_R   0.506570 0.354460 0.582000 -0.611926
O2    O     O_R   0.490940 0.341410 0.386200 -0.482498
O3    O     O_R   0.327470 0.506530 0.597920 -0.607918
O4    O     O_R   0.311840 0.493480 0.402120 -0.512888
O5    O     O_R   0.509060 0.658590 0.613800 -0.605105
O6    O     O_R   0.493430 0.645540 0.418000 -0.600324
O7    O     O_R   0.688160 0.506520 0.597880 -0.595545
O8    O     O_R   0.672530 0.493470 0.402080 -0.577461
O9    O     O_3   0.119681 0.336180 0.378303 -0.553686
C33   C     C_3   0.136649 0.262008 0.452177 -0.258504
H13   H     H_    0.045905 0.233002 0.475458 0.179396
H14   H     H_    0.195289 0.294202 0.532478 0.136553
H15   H     H_    0.185903 0.194155 0.405160 0.183754
O10   O     O_3   0.500537 0.047509 0.767175 -0.562777
C34   C     C_3   0.620221 0.051162 0.823745 -0.350120
H16   H     H_    0.691000 0.080869 0.771537 0.161498
H17   H     H_    0.647057 0.973395 0.843326 0.159768
H18   H     H_    0.619256 0.106111 0.907997 0.188398
O11   O     O_3   0.489448 0.163410 0.252880 -0.558649
C35   C     C_3   0.596768 0.139298 0.190670 -0.308230
H19   H     H_    0.591657 0.057836 0.141658 0.156674
H20   H     H_    0.683567 0.152269 0.248591 0.176540
H21   H     H_    0.601362 0.191782 0.125854 0.175627
O12   O     O_3   0.319877 0.352048 0.204346 -0.519723
C36   C     C_3   0.263298 0.262588 0.134056 -0.185761
H22   H     H_    0.330726 0.215823 0.078630 0.172655
H23   H     H_    0.182093 0.284765 0.080948 0.125576
H24   H     H_    0.227805 0.211644 0.191812 0.216603
Cl1   Cl    Cl    0.165151 0.876852 0.759429 -0.633595
O13   O     O_3   0.862464 0.344341 0.361330 -0.574135
C37   C     C_3   0.862906 0.357086 0.243738 -0.239685
H25   H     H_    0.828853 0.435342 0.231599 0.152245
H26   H     H_    0.799231 0.297965 0.190076 0.157759
H27   H     H_    0.956798 0.344198 0.209931 0.188003

loop_
_geom_bond_atom_site_label_1
_geom_bond_atom_site_label_2
_ccdc_geom_bond_type
Cu1   O7    S    
C6    C32   A    
C21   C26   A    
C34   H17   S    
Cu2   O8    S    
C1    C8    S    
C36   H22   S    
C10   O11   S    
C24   H2    S    
C31   H9    S    
C28   C29   A    
C15   H10   S    
C8    C11   A    
C5    C6    A    
C20   H6    S    
C27   O7    A    
C26   H5    S    
C33   H14   S    
C28   H7    S    
C2    C32   A    
C18   C19   A    
C3    C12   S    
C19   N2    A    
C25   H3    S    
C35   H19   S    
O13   C37   S    
C31   C32   A    
C16   C17   A    
C4    O9    S    
C1    O2    A    
C25   N1    A    
C33   H15   S    
C7    C15   A    
C34   H18   S    
C9    H12   S    
C13   C14   A    
C36   H23   S    
C19   O12   S    
C12   O4    A    
C23   O5    A    
Cu1   O5    S    
Cu2   O2    S    
O11   C35   S    
C37   H26   S    
C27   O8    A    
C4    C5    A    
C25   C26   A    
C34   H16   S    
C9    C14   A    
C29   C30   A    
C17   O10   S    
C6    C27   S    
O10   C34   S    
Cu1   Cu2   S    
C20   N2    A    
C35   H20   S    
C7    C16   A    
Cu2   O6    S    
Cu1   N1    S    
C36   H24   S    
C22   C24   A    
C33   H13   S    
Cu2   N2    S    
C3    C4    A    
C12   O3    A    
C23   O6    A    
C9    C10   A    
C18   C22   A    
C24   N1    A    
O12   C36   S    
C16   H11   S    
C37   H27   S    
Cu1   O3    S    
Cu2   O4    S    
C13   C17   A    
C11   H1    S    
C2    C3    A    
C18   H4    S    
C11   C13   A    
O9    C33   S    
C30   C31   A    
C1    O1    A    
C35   H21   S    
C7    C23   S    
C37   H25   S    
C29   Cl1   S    
C20   C21   A    
C8    C10   A    
C14   C15   A    
C30   H8    S    
C2    C28   A    
C5    O13   S    
C21   C22   A    
Cu1   O1    S    
