data_mof_unit_40661.cif
_audit_creation_date              2012-12-11T16:44:20-0500
_audit_creation_method            fapswitch 2.2
_symmetry_space_group_name_H-M    P1
_symmetry_Int_Tables_number       1
_space_group_crystal_system       triclinic
_cell_length_a                    27.264363
_cell_length_b                    7.20203
_cell_length_c                    22.756923
_cell_angle_alpha                 89.999754
_cell_angle_beta                  101.160278
_cell_angle_gamma                 89.9999
_cell_volume                      4384.01956757

loop_
_atom_site_label
_atom_site_type_symbol
_atom_type_description
_atom_site_fract_x
_atom_site_fract_y
_atom_site_fract_z
_atom_type_partial_charge
O1    O     O_R   0.707300 0.594030 0.176840 -0.523243
O2    O     O_R   0.292700 0.405970 0.823160 -0.534933
O3    O     O_R   0.792700 0.094030 0.323160 -0.523240
O4    O     O_R   0.207300 0.905970 0.676840 -0.534933
O5    O     O_R   0.697330 0.262360 0.295660 -0.543036
O6    O     O_R   0.302670 0.737640 0.704340 -0.539098
O7    O     O_R   0.802670 0.762360 0.204340 -0.543036
O8    O     O_R   0.197330 0.237640 0.795660 -0.539098
C1    C     C_R   0.684766 0.432364 0.311643 0.693201
C2    C     C_R   0.315161 0.567710 0.688272 0.686056
C3    C     C_R   0.815233 0.932364 0.188357 0.693198
C4    C     C_R   0.184839 0.067710 0.811728 0.686057
O9    O     O_R   0.701410 0.264250 0.175600 -0.545566
O10   O     O_R   0.298590 0.735750 0.824400 -0.536558
O11   O     O_R   0.798590 0.764250 0.324400 -0.545568
O12   O     O_R   0.201410 0.235750 0.675600 -0.536560
O13   O     O_R   0.796800 0.094950 0.202240 -0.536898
O14   O     O_R   0.203200 0.905050 0.797760 -0.538852
O15   O     O_R   0.703200 0.594950 0.297760 -0.536897
O16   O     O_R   0.296800 0.405050 0.702240 -0.538853
C5    C     C_R   0.689966 0.432702 0.153468 0.748079
C6    C     C_R   0.310124 0.567238 0.846453 0.708631
C7    C     C_R   0.810034 0.932701 0.346532 0.748072
C8    C     C_R   0.189875 0.067239 0.653547 0.708631
O17   O     O_3   0.781290 0.427390 0.258880 -0.372723
O18   O     O_3   0.218710 0.572610 0.741120 -0.373580
O19   O     O_3   0.718710 0.927390 0.241120 -0.372724
O20   O     O_3   0.281290 0.072610 0.758880 -0.373579
V1    V     V_3+5 0.744190 0.152150 0.248350 1.422270
V2    V     V_3+5 0.255810 0.847850 0.751650 1.395231
V3    V     V_3+5 0.755810 0.652150 0.251650 1.422268
V4    V     V_3+5 0.244190 0.347850 0.748350 1.395230
C9    C     C_R   0.154752 0.059283 0.595224 -0.194878
C10   C     C_R   0.845072 0.940167 0.404916 -0.112515
C11   C     C_R   0.345247 0.559277 0.904776 -0.194877
C12   C     C_R   0.654929 0.440173 0.095084 -0.112514
C13   C     C_R   0.141558 0.063345 0.486683 0.215030
C14   C     C_R   0.858923 0.926941 0.513524 0.214331
C15   C     C_R   0.358440 0.563298 0.013317 0.215029
C16   C     C_R   0.641079 0.426987 0.986476 0.214332
C17   C     C_R   0.173245 0.084887 0.542333 0.176125
C18   C     C_R   0.827130 0.904668 0.457700 0.084850
C19   C     C_R   0.326753 0.584852 0.957667 0.176124
C20   C     C_R   0.672871 0.404703 0.042300 0.084847
C21   C     C_R   0.103274 0.022513 0.592375 0.105284
C22   C     C_R   0.895806 0.986971 0.407703 0.111326
C23   C     C_R   0.396726 0.522524 0.907624 0.105286
C24   C     C_R   0.604193 0.486957 0.092298 0.111327
C25   C     C_R   0.068997 0.025722 0.535864 0.058451
C26   C     C_R   0.930476 0.980805 0.464121 -0.016349
C27   C     C_R   0.431002 0.525719 0.964136 0.058451
C28   C     C_R   0.569523 0.480806 0.035879 -0.016348
C29   C     C_R   0.089838 0.028984 0.483120 -0.026877
C30   C     C_R   0.909931 0.969488 0.516849 0.052260
C31   C     C_R   0.410161 0.528951 0.016879 -0.026878
C32   C     C_R   0.590069 0.469518 0.983152 0.052258
C33   C     C_R   0.015147 0.018096 0.529045 0.104324
C34   C     C_R   0.984241 0.989376 0.471082 0.069641
C35   C     C_R   0.484853 0.518103 0.970955 0.104324
C36   C     C_R   0.515758 0.489365 0.028918 0.069642
C37   C     C_R   0.008335 0.958934 0.422752 -0.188781
C38   C     C_R   0.990813 0.044872 0.577568 -0.167613
C39   C     C_R   0.491664 0.458896 0.077247 -0.188779
C40   C     C_R   0.509188 0.544907 0.922434 -0.167612
C41   C     C_R   0.059106 0.989659 0.427705 -0.180555
C42   C     C_R   0.940226 0.008993 0.572426 -0.158301
C43   C     C_R   0.440893 0.489611 0.072293 -0.180557
C44   C     C_R   0.559775 0.509039 0.927576 -0.158301
H1    H     H_    0.074244 0.975208 0.387385 0.130153
H2    H     H_    0.924534 0.019447 0.612545 0.170854
H3    H     H_    0.425754 0.475137 0.112612 0.130153
H4    H     H_    0.575467 0.519515 0.887458 0.170854
H5    H     H_    0.988770 0.908062 0.380281 0.136192
H6    H     H_    0.009645 0.096673 0.620308 0.173655
H7    H     H_    0.511229 0.408009 0.119715 0.136193
H8    H     H_    0.490355 0.596723 0.879696 0.173656
C45   C     C_R   0.882626 0.105337 0.149968 -0.224790
C46   C     C_R   0.138888 0.207911 0.886774 -0.225443
C47   C     C_R   0.617373 0.605337 0.350032 -0.224785
C48   C     C_R   0.361112 0.707912 0.613226 -0.225443
H9    H     H_    0.877429 0.222064 0.178176 0.138776
H10   H     H_    0.161186 0.332755 0.887547 0.125509
H11   H     H_    0.622571 0.722065 0.321823 0.138775
H12   H     H_    0.338814 0.832757 0.612453 0.125508
C49   C     C_R   0.918587 0.118894 0.113437 0.207442
C50   C     C_R   0.103795 0.196281 0.924611 0.245276
C51   C     C_R   0.581413 0.618894 0.386563 0.207440
C52   C     C_R   0.396205 0.696282 0.575389 0.245275
C53   C     C_R   0.925750 0.969683 0.075893 0.155216
C54   C     C_R   0.074687 0.034371 0.924737 0.155831
C55   C     C_R   0.574249 0.469683 0.424107 0.155217
C56   C     C_R   0.425313 0.534372 0.575262 0.155832
C57   C     C_R   0.897490 0.807024 0.076881 -0.162737
C58   C     C_R   0.081515 0.886267 0.887026 -0.210970
C59   C     C_R   0.602510 0.307023 0.423119 -0.162737
C60   C     C_R   0.418484 0.386266 0.612974 -0.210971
H13   H     H_    0.902353 0.691377 0.048134 0.146289
H14   H     H_    0.059219 0.761512 0.886174 0.134392
H15   H     H_    0.597647 0.191375 0.451866 0.146286
H16   H     H_    0.440781 0.261510 0.613826 0.134391
C61   C     C_R   0.862361 0.792971 0.114196 -0.182001
C62   C     C_R   0.117181 0.897085 0.850447 -0.165673
C63   C     C_R   0.637639 0.292970 0.385804 -0.182002
C64   C     C_R   0.382819 0.397084 0.649553 -0.165670
H17   H     H_    0.840876 0.666196 0.113445 0.127542
H18   H     H_    0.121687 0.779607 0.822255 0.137731
H19   H     H_    0.659123 0.166194 0.386555 0.127541
H20   H     H_    0.378313 0.279606 0.677745 0.137730
C65   C     C_R   0.854092 0.942815 0.150691 -0.068605
C66   C     C_R   0.146250 0.058107 0.849756 -0.069113
C67   C     C_R   0.645907 0.442815 0.349309 -0.068604
C68   C     C_R   0.353750 0.558108 0.650244 -0.069111
C69   C     C_R   0.005285 0.867316 0.045942 0.156605
C70   C     C_R   0.994038 0.130794 0.953029 0.187479
C71   C     C_R   0.494715 0.367319 0.454057 0.156606
C72   C     C_R   0.505962 0.630791 0.546971 0.187479
C73   C     C_R   0.042632 0.884719 0.011193 0.263392
C74   C     C_R   0.956780 0.113698 0.987879 0.289019
C75   C     C_R   0.457368 0.384722 0.488806 0.263393
C76   C     C_R   0.543220 0.613694 0.512122 0.289019
C77   C     C_R   0.037027 0.017483 0.964166 -0.082386
C78   C     C_R   0.962706 0.982730 0.035422 -0.080944
C79   C     C_R   0.462973 0.517482 0.535834 -0.082386
C80   C     C_R   0.537294 0.482730 0.464578 -0.080943
N1    N     N_3   0.011279 0.734511 0.093802 -0.638003
H21   H     H_    0.014469 0.602518 0.075762 0.275488
H22   H     H_    0.044542 0.764073 0.123754 0.264483
N2    N     N_3   0.987601 0.261408 0.904527 -0.633614
H23   H     H_    0.954465 0.229237 0.874706 0.252281
H24   H     H_    0.983896 0.393990 0.921895 0.263635
N3    N     N_3   0.488720 0.234517 0.406197 -0.638002
H25   H     H_    0.485531 0.102523 0.424237 0.275486
H26   H     H_    0.455457 0.264079 0.376245 0.264484
N4    N     N_3   0.512399 0.761401 0.595474 -0.633614
H27   H     H_    0.545536 0.729229 0.625294 0.252283
H28   H     H_    0.516105 0.893985 0.578106 0.263633
O21   O     O_3   0.084147 0.771083 0.025616 -0.636946
H29   H     H_    0.111087 0.815713 0.005708 0.301928
O22   O     O_3   0.915086 0.226366 0.973256 -0.641276
H30   H     H_    0.888190 0.180919 0.993111 0.298353
O23   O     O_3   0.415852 0.271089 0.474383 -0.636946
H31   H     H_    0.388913 0.315716 0.494292 0.301928
O24   O     O_3   0.584914 0.726359 0.526745 -0.641276
H32   H     H_    0.611810 0.680917 0.506888 0.298352
N5    N     N_3   0.908149 0.068823 0.354789 -0.678545
H33   H     H_    0.936824 0.166573 0.365233 0.246165
H34   H     H_    0.916322 0.964868 0.326131 0.214322
N6    N     N_3   0.087430 0.963071 0.645941 -0.682674
H35   H     H_    0.096431 0.066382 0.678552 0.214633
H36   H     H_    0.106825 0.842043 0.661573 0.244588
N7    N     N_3   0.591847 0.568779 0.145215 -0.678556
H37   H     H_    0.563172 0.666528 0.134774 0.246166
H38   H     H_    0.583675 0.464808 0.173868 0.214326
N8    N     N_3   0.412572 0.463112 0.854057 -0.682676
H39   H     H_    0.403569 0.566434 0.821449 0.214636
H40   H     H_    0.393180 0.342084 0.838419 0.244582
N9    N     N_3   0.775722 0.856287 0.455619 -0.673042
H41   H     H_    0.767969 0.733333 0.431170 0.235640
H42   H     H_    0.753077 0.961731 0.433353 0.219062
N10   N     N_3   0.225198 0.123666 0.544224 -0.611183
H43   H     H_    0.234423 0.247235 0.567900 0.226913
H44   H     H_    0.246518 0.016179 0.567237 0.212805
N11   N     N_3   0.724281 0.356341 0.044380 -0.673042
H45   H     H_    0.732036 0.233380 0.068824 0.235634
H46   H     H_    0.746923 0.461784 0.066649 0.219064
N12   N     N_3   0.274799 0.623614 0.955777 -0.611185
H47   H     H_    0.265573 0.747190 0.932105 0.226910
H48   H     H_    0.253482 0.516130 0.932760 0.212806
N13   N     N_3   0.163043 0.078057 0.434026 -0.611123
H49   H     H_    0.144064 0.181193 0.406217 0.228128
H50   H     H_    0.159038 0.950879 0.411478 0.227559
N14   N     N_3   0.839470 0.904591 0.567402 -0.667040
H51   H     H_    0.810481 0.000139 0.566673 0.255609
H52   H     H_    0.824622 0.770807 0.567701 0.259519
N15   N     N_3   0.336954 0.577981 0.065973 -0.611123
H53   H     H_    0.355931 0.681112 0.093786 0.228128
H54   H     H_    0.340962 0.450795 0.088518 0.227558
N16   N     N_3   0.660533 0.404666 0.932598 -0.667039
H55   H     H_    0.689519 0.500226 0.933330 0.255608
H56   H     H_    0.675384 0.270888 0.932295 0.259519
N17   N     N_3   0.947980 0.284139 0.114641 -0.654313
H57   H     H_    0.923555 0.395952 0.103349 0.236177
H58   H     H_    0.967202 0.304548 0.158573 0.236217
N18   N     N_3   0.098485 0.347422 0.963791 -0.634190
H59   H     H_    0.133256 0.371326 0.991424 0.244219
H60   H     H_    0.089005 0.465922 0.937554 0.240817
N19   N     N_3   0.552021 0.784140 0.385359 -0.654315
H61   H     H_    0.576445 0.895951 0.396651 0.236175
H62   H     H_    0.532798 0.804553 0.341427 0.236218
N20   N     N_3   0.401516 0.847425 0.536210 -0.634192
H63   H     H_    0.366744 0.871333 0.508576 0.244218
H64   H     H_    0.410996 0.965923 0.562447 0.240815

loop_
_geom_bond_atom_site_label_1
_geom_bond_atom_site_label_2
_ccdc_geom_bond_type
O17   V3    S    
C50   N18   S    
C25   C29   A    
O1    C5    A    
N20   H63   S    
C72   C79   A    
C51   C55   A    
C3    C65   S    
C21   N6    S    
O13   V1    S    
N13   H49   S    
O3    C7    A    
N11   H45   S    
C10   C18   A    
C56   C60   A    
C48   H12   S    
C11   C23   A    
N2    H23   S    
C4    C66   S    
N16   H55   S    
C25   C33   A    
C33   C38   A    
N15   H54   S    
C5    C12   S    
C71   N3    S    
N17   H57   S    
C52   N20   S    
C6    C11   S    
C35   C40   A    
N9    H41   S    
C36   C39   A    
C40   C44   A    
O9    V1    S    
N11   H46   S    
N6    H36   S    
C14   C18   A    
C13   N13   S    
O4    C8    A    
C59   H15   S    
N16   H56   S    
C22   N5    S    
O19   V1    S    
C53   C78   S    
C58   H14   S    
C61   C65   A    
O24   H32   S    
O1    V3    S    
C9    C21   A    
N18   H59   S    
O2    V4    S    
C74   C78   A    
O3    V1    S    
C73   C77   A    
C28   C36   A    
C70   C77   A    
C76   C80   A    
C1    O15   A    
C15   C31   A    
C69   C78   A    
C52   C56   A    
C2    O16   A    
C16   C32   A    
O2    C6    A    
C43   H3    S    
N20   H64   S    
N7    H37   S    
C2    C68   S    
C10   C22   A    
C20   N11   S    
C45   H9    S    
C11   C19   A    
C16   C20   A    
N8    H40   S    
C44   H4    S    
C13   C29   A    
C46   C50   A    
C34   C37   A    
O11   C7    A    
O15   V3    S    
C35   C36   A    
N9    H42   S    
N12   H48   S    
N13   H50   S    
C76   O24   S    
O10   V2    S    
C47   C51   A    
N5    H34   S    
C59   C63   A    
N5    H33   S    
O5    V1    S    
N17   H58   S    
C61   H17   S    
C39   C43   A    
C54   C58   A    
O7    V3    S    
C38   C42   A    
C26   C34   A    
N6    H35   S    
C15   N15   S    
C50   C54   A    
C56   C79   S    
C57   C61   A    
C64   C68   A    
C49   C53   A    
O18   V4    S    
N4    H28   S    
C37   H5    S    
C32   C44   A    
C55   C59   A    
O11   V3    S    
C53   C57   A    
C72   C76   A    
O8    V4    S    
O7    C3    A    
C1    C67   S    
O5    C1    A    
C23   C27   A    
C17   N10   S    
C70   N2    S    
C46   H10   S    
C31   C43   A    
N15   H53   S    
C14   C30   A    
C21   C25   A    
O8    C4    A    
C7    C10   S    
C48   C68   A    
C40   H8    S    
O9    C5    A    
C46   C66   A    
C26   C30   A    
C45   C65   A    
C58   C62   A    
N8    H39   S    
C70   C74   A    
C16   N16   S    
O6    V2    S    
C71   C75   A    
C55   C80   S    
C60   C64   A    
N12   H47   S    
C75   O23   S    
C54   C77   S    
C69   C73   A    
C12   C20   A    
C18   N9    S    
C27   C35   A    
N3    H25   S    
C57   H13   S    
C64   H20   S    
C29   C41   A    
N14   H51   S    
O16   V4    S    
C19   N12   S    
C3    O13   A    
C74   O22   S    
C49   N17   S    
C71   C80   A    
C73   O21   S    
N3    H26   S    
N2    H24   S    
O6    C2    A    
C51   N19   S    
O22   H30   S    
C14   N14   S    
N4    H27   S    
C30   C42   A    
C63   C67   A    
C75   C79   A    
O12   V4    S    
O21   H29   S    
C22   C26   A    
C8    C9    S    
C47   C67   A    
C9    C17   A    
N10   H43   S    
O10   C6    A    
C23   N8    S    
O20   V2    S    
N19   H61   S    
C48   C52   A    
O23   H31   S    
C47   H11   S    
C33   C34   A    
N1    H21   S    
C39   H7    S    
C41   H1    S    
C60   H16   S    
C69   N1    S    
N14   H52   S    
N18   H60   S    
C12   C24   A    
C27   C31   A    
N7    H38   S    
C13   C17   A    
N19   H62   S    
C62   C66   A    
C24   N7    S    
O14   V2    S    
C45   C49   A    
C37   C41   A    
C24   C28   A    
C72   N4    S    
C42   H2    S    
C15   C19   A    
O12   C8    A    
C62   H18   S    
C4    O14   A    
N1    H22   S    
C38   H6    S    
C63   H19   S    
O4    V2    S    
C28   C32   A    
N10   H44   S    
