data_mof_unit_52604.cif
_audit_creation_date              2012-12-10T17:58:22-0500
_audit_creation_method            fapswitch 2.2
_symmetry_space_group_name_H-M    P1
_symmetry_Int_Tables_number       1
_space_group_crystal_system       triclinic
_cell_length_a                    18.310349
_cell_length_b                    25.911359
_cell_length_c                    18.301764
_cell_angle_alpha                 89.980699
_cell_angle_beta                  90.00666
_cell_angle_gamma                 89.824168
_cell_volume                      8683.1577643

loop_
_atom_site_label
_atom_site_type_symbol
_atom_type_description
_atom_site_fract_x
_atom_site_fract_y
_atom_site_fract_z
_atom_type_partial_charge
C1    C     C_R   0.640197 0.749571 0.360329 0.827603
C2    C     C_R   0.359570 0.250683 0.639561 0.825972
C3    C     C_R   0.359756 0.749638 0.639682 0.830044
C4    C     C_R   0.639622 0.249684 0.359758 0.815370
C5    C     C_R   0.639935 0.249980 0.639936 0.832877
C6    C     C_R   0.360274 0.750255 0.359839 0.817064
C7    C     C_R   0.360063 0.250048 0.360173 0.826719
C8    C     C_R   0.639679 0.750181 0.640147 0.818364
C9    C     C_R   0.140114 0.249575 0.860290 0.831507
C10   C     C_R   0.860386 0.749737 0.140219 0.820321
C11   C     C_R   0.860015 0.250031 0.139986 0.826822
C12   C     C_R   0.139687 0.749708 0.859790 0.820514
C13   C     C_R   0.140147 0.750237 0.139779 0.828690
C14   C     C_R   0.860188 0.250227 0.859877 0.813383
C15   C     C_R   0.859895 0.750320 0.860215 0.827260
C16   C     C_R   0.140062 0.249887 0.139884 0.820512
C17   C     C_R   0.695684 0.249771 0.303536 -0.108835
C18   C     C_R   0.303716 0.749303 0.696095 -0.102595
C19   C     C_R   0.304445 0.250570 0.697019 -0.114096
C20   C     C_R   0.696153 0.749157 0.303796 -0.101981
C21   C     C_R   0.695745 0.750232 0.696465 -0.107668
C22   C     C_R   0.303943 0.249818 0.304055 -0.113148
C23   C     C_R   0.304168 0.750345 0.303577 -0.108136
C24   C     C_R   0.696090 0.250080 0.696160 -0.103188
C25   C     C_R   0.195772 0.749579 0.803492 -0.108480
C26   C     C_R   0.803626 0.249952 0.196109 -0.104526
C27   C     C_R   0.804303 0.749635 0.196556 -0.107047
C28   C     C_R   0.195619 0.249157 0.803406 -0.101218
C29   C     C_R   0.196325 0.249864 0.196215 -0.107889
C30   C     C_R   0.803929 0.750661 0.803673 -0.101280
C31   C     C_R   0.803806 0.250251 0.803833 -0.106335
C32   C     C_R   0.196223 0.750505 0.196160 -0.102069
C33   C     C_R   0.508498 0.972991 0.432713 0.109592
C34   C     C_R   0.494028 0.026983 0.567115 0.111594
C35   C     C_R   0.488501 0.972607 0.566124 0.112080
C36   C     C_R   0.504590 0.027525 0.432644 0.114264
C37   C     C_R   0.988302 0.473128 0.933602 0.114063
C38   C     C_R   0.018476 0.527208 0.064971 0.110297
C39   C     C_R   0.012936 0.472824 0.066083 0.119797
C40   C     C_R   0.982612 0.527505 0.934944 0.113857
C41   C     C_R   0.499982 0.053857 0.500131 -0.105860
C42   C     C_R   0.499202 0.946154 0.499426 -0.107110
C43   C     C_R   0.000310 0.553971 0.000081 -0.111793
C44   C     C_R   0.000014 0.446266 0.999859 -0.110018
C45   C     C_R   0.499831 0.889994 0.499518 0.806906
C46   C     C_R   0.500058 0.110015 0.500355 0.812963
C47   C     C_R   0.999941 0.390033 0.999712 0.805877
C48   C     C_R   0.000101 0.610047 0.000226 0.804882
C49   C     C_R   0.500284 0.610157 0.500035 1.076552
C50   C     C_R   0.499549 0.389882 0.499857 1.071230
C51   C     C_R   0.000377 0.110113 0.999964 1.074985
C52   C     C_R   0.999568 0.889833 0.999995 1.077294
C53   C     C_R   0.364209 0.554450 0.497149 0.364744
C54   C     C_R   0.635910 0.445693 0.503835 0.361364
C55   C     C_R   0.636320 0.553371 0.500252 0.362882
C56   C     C_R   0.364335 0.447123 0.484557 0.375169
C57   C     C_R   0.136181 0.052906 0.991672 0.365338
C58   C     C_R   0.863607 0.946667 0.997981 0.362887
C59   C     C_R   0.864047 0.054315 0.002663 0.362202
C60   C     C_R   0.135710 0.945365 0.999432 0.363160
C61   C     C_R   0.298818 0.527817 0.489501 0.439095
C62   C     C_R   0.701605 0.472576 0.503694 0.441755
C63   C     C_R   0.701812 0.525978 0.501296 0.437380
C64   C     C_R   0.299013 0.474742 0.481202 0.439289
C65   C     C_R   0.201497 0.025252 0.989092 0.434762
C66   C     C_R   0.798132 0.974087 0.998311 0.436555
C67   C     C_R   0.798345 0.027454 0.001478 0.439010
C68   C     C_R   0.201321 0.972033 0.994735 0.442424
C69   C     C_R   0.432403 0.473054 0.493827 -0.207169
C70   C     C_R   0.567861 0.527152 0.500752 -0.207745
C71   C     C_R   0.567644 0.472428 0.501649 -0.205084
C72   C     C_R   0.432485 0.527702 0.497356 -0.207951
C73   C     C_R   0.067496 0.972218 0.998994 -0.207080
C74   C     C_R   0.932320 0.027570 0.000962 -0.205228
C75   C     C_R   0.932073 0.972854 0.999689 -0.206912
C76   C     C_R   0.067752 0.026914 0.996923 -0.202413
C77   C     C_R   0.499832 0.445989 0.498960 0.016091
C78   C     C_R   0.500221 0.554112 0.500096 0.016070
C79   C     C_R   0.999682 0.945863 0.999955 0.014327
C80   C     C_R   0.000182 0.053995 0.999664 0.013994
C81   C     C_R   0.305885 0.787306 0.751467 0.122988
C82   C     C_R   0.698311 0.208710 0.252551 0.115567
C83   C     C_R   0.692626 0.786367 0.247369 0.122261
C84   C     C_R   0.297418 0.206467 0.742206 0.117208
C85   C     C_R   0.316844 0.222504 0.238408 0.116446
C86   C     C_R   0.695009 0.789678 0.749973 0.119030
C87   C     C_R   0.696773 0.210191 0.748934 0.123226
C88   C     C_R   0.303548 0.790416 0.250957 0.119570
C89   C     C_R   0.802050 0.290270 0.248262 0.124866
C90   C     C_R   0.194577 0.710677 0.749190 0.119489
C91   C     C_R   0.198947 0.291194 0.754438 0.122126
C92   C     C_R   0.806818 0.711454 0.251870 0.118526
C93   C     C_R   0.805763 0.712153 0.748942 0.123892
C94   C     C_R   0.184436 0.278143 0.261194 0.118190
C95   C     C_R   0.195610 0.711420 0.250105 0.123866
C96   C     C_R   0.801427 0.291139 0.752528 0.117143
C97   C     C_R   0.746142 0.290986 0.301456 0.067845
C98   C     C_R   0.249121 0.710714 0.694451 0.063333
C99   C     C_R   0.258885 0.294473 0.706164 0.090166
C100  C     C_R   0.752077 0.711321 0.306417 0.061654
C101  C     C_R   0.749845 0.711126 0.695741 0.065328
C102  C     C_R   0.237287 0.275893 0.317317 0.095343
C103  C     C_R   0.251699 0.710373 0.303102 0.061476
C104  C     C_R   0.747839 0.290444 0.696945 0.060766
C105  C     C_R   0.250009 0.788333 0.804683 0.064512
C106  C     C_R   0.752117 0.209363 0.197153 0.063703
C107  C     C_R   0.748416 0.787411 0.194043 0.070182
C108  C     C_R   0.244880 0.207073 0.798776 0.058102
C109  C     C_R   0.261153 0.221063 0.184918 0.097797
C110  C     C_R   0.749570 0.789659 0.804691 0.060790
C111  C     C_R   0.752329 0.209614 0.802569 0.066032
C112  C     C_R   0.249338 0.790118 0.195895 0.063411
O1    O     O_3   0.500000 0.750040 0.500000 -0.484147
O2    O     O_3   0.500000 0.249960 0.500000 -0.484887
O3    O     O_3   1.000000 0.250040 0.000000 -0.484670
O4    O     O_3   0.000000 0.749960 0.000000 -0.483914
O5    O     O_R   0.585420 0.719700 0.353880 -0.643239
O6    O     O_R   0.414580 0.280300 0.646120 -0.657860
O7    O     O_R   0.414580 0.719700 0.646120 -0.642665
O8    O     O_R   0.585420 0.280300 0.353880 -0.644306
O9    O     O_R   0.585420 0.280300 0.646120 -0.642573
O10   O     O_R   0.414580 0.719700 0.353880 -0.642317
O11   O     O_R   0.414580 0.280300 0.353880 -0.626470
O12   O     O_R   0.585420 0.719700 0.646120 -0.642355
O13   O     O_R   0.085420 0.219700 0.853880 -0.647670
O14   O     O_R   0.914580 0.780300 0.146120 -0.642358
O15   O     O_R   0.914580 0.219700 0.146120 -0.642678
O16   O     O_R   0.085420 0.780300 0.853880 -0.642105
O17   O     O_R   0.085420 0.780300 0.146120 -0.642764
O18   O     O_R   0.914580 0.219700 0.853880 -0.643088
O19   O     O_R   0.914580 0.780300 0.853880 -0.643578
O20   O     O_R   0.085420 0.219700 0.146120 -0.644020
O21   O     O_R   0.646120 0.780390 0.585510 -0.645233
O22   O     O_R   0.353880 0.219610 0.414490 -0.651135
O23   O     O_R   0.353880 0.780390 0.414490 -0.644769
O24   O     O_R   0.646120 0.219610 0.585510 -0.649504
O25   O     O_R   0.646120 0.219610 0.414490 -0.643303
O26   O     O_R   0.353880 0.780390 0.585510 -0.649509
O27   O     O_R   0.353880 0.219610 0.585510 -0.640119
O28   O     O_R   0.646120 0.780390 0.414490 -0.648908
O29   O     O_R   0.146120 0.280390 0.085510 -0.643964
O30   O     O_R   0.853880 0.719610 0.914490 -0.648168
O31   O     O_R   0.853880 0.280390 0.914490 -0.641763
O32   O     O_R   0.146120 0.719610 0.085510 -0.649308
O33   O     O_R   0.146120 0.719610 0.914490 -0.645374
O34   O     O_R   0.853880 0.280390 0.085510 -0.648518
O35   O     O_R   0.853880 0.719610 0.085510 -0.645961
O36   O     O_R   0.146120 0.280390 0.914490 -0.647873
O37   O     O_R   0.560660 0.865840 0.500000 -0.645097
O38   O     O_R   0.439340 0.134160 0.500000 -0.648001
O39   O     O_R   0.439340 0.865840 0.500000 -0.648243
O40   O     O_R   0.560660 0.134160 0.500000 -0.649750
O41   O     O_R   0.060660 0.365840 0.000000 -0.646638
O42   O     O_R   0.939340 0.634160 0.000000 -0.646362
O43   O     O_R   0.939340 0.365840 0.000000 -0.649479
O44   O     O_R   0.060660 0.634160 0.000000 -0.647949
O45   O     O_R   0.500000 0.634240 0.439310 -0.619800
O46   O     O_R   0.500000 0.365760 0.560690 -0.630272
O47   O     O_R   0.500000 0.634240 0.560690 -0.617195
O48   O     O_R   0.500000 0.365760 0.439310 -0.602215
O49   O     O_R   0.000000 0.134240 0.939310 -0.615984
O50   O     O_R   1.000000 0.865760 0.060690 -0.618358
O51   O     O_R   1.000000 0.134240 0.060690 -0.620871
O52   O     O_R   1.000000 0.865760 0.939310 -0.618626
Zn1   Zn    Zn3+2 0.500000 0.706650 0.586810 1.015926
Zn2   Zn    Zn3+2 0.500000 0.293350 0.413190 1.024993
Zn3   Zn    Zn3+2 0.500000 0.706650 0.413190 1.014190
Zn4   Zn    Zn3+2 0.500000 0.293350 0.586810 1.007607
Zn5   Zn    Zn3+2 0.000000 0.206650 0.086810 1.016639
Zn6   Zn    Zn3+2 0.000000 0.793350 0.913190 1.015562
Zn7   Zn    Zn3+2 1.000000 0.206650 0.913190 1.013654
Zn8   Zn    Zn3+2 0.000000 0.793350 0.086810 1.016270
Zn9   Zn    Zn3+2 0.586710 0.793420 0.500000 0.956624
Zn10  Zn    Zn3+2 0.413290 0.206580 0.500000 0.951803
Zn11  Zn    Zn3+2 0.413290 0.793420 0.500000 0.955634
Zn12  Zn    Zn3+2 0.586710 0.206580 0.500000 0.957521
Zn13  Zn    Zn3+2 0.086710 0.293420 0.000000 0.962043
Zn14  Zn    Zn3+2 0.913290 0.706580 0.000000 0.955630
Zn15  Zn    Zn3+2 0.913290 0.293420 0.000000 0.959278
Zn16  Zn    Zn3+2 0.086710 0.706580 0.000000 0.955600
F1    F     F_    0.766278 0.551664 0.500170 -0.610887
F2    F     F_    0.235108 0.449811 0.469111 -0.617067
F3    F     F_    0.234562 0.554042 0.488374 -0.612937
F4    F     F_    0.765876 0.446404 0.505035 -0.613416
F5    F     F_    0.734065 0.053620 0.002565 -0.615120
F6    F     F_    0.265558 0.945782 0.994493 -0.615922
F7    F     F_    0.265873 0.050292 0.980763 -0.628166
F8    F     F_    0.733651 0.948475 0.995856 -0.613936
F9    F     F_    0.359113 0.606511 0.503641 -0.682357
F10   F     F_    0.640762 0.393430 0.504911 -0.683919
F11   F     F_    0.641534 0.605596 0.498352 -0.681767
F12   F     F_    0.359616 0.395157 0.476714 -0.679956
F13   F     F_    0.141389 0.105066 0.988342 -0.688556
F14   F     F_    0.858385 0.894453 0.995729 -0.682782
F15   F     F_    0.859200 0.106566 0.004656 -0.683506
F16   F     F_    0.140583 0.893173 0.003610 -0.682706
C113  C     C_3   0.370304 0.824583 0.755638 -0.418287
C114  C     C_3   0.431877 0.802052 0.802059 -0.870640
H1    H     H_    0.475886 0.831095 0.808074 0.247457
H2    H     H_    0.454983 0.767075 0.775619 0.269682
H3    H     H_    0.411660 0.791689 0.857331 0.264594
H4    H     H_    0.392051 0.834024 0.700723 0.204420
H5    H     H_    0.354276 0.862446 0.778340 0.222358
C115  C     C_3   0.643919 0.164265 0.257701 -0.406134
C116  C     C_3   0.677372 0.118517 0.298739 -0.842943
H6    H     H_    0.680357 0.127057 0.358084 0.279934
H7    H     H_    0.643200 0.083797 0.290600 0.237319
H8    H     H_    0.733250 0.109630 0.278797 0.257576
H9    H     H_    0.592551 0.175724 0.285558 0.184775
H10   H     H_    0.625253 0.152095 0.202735 0.215334
C117  C     C_3   0.627056 0.822858 0.242470 -0.418422
C118  C     C_3   0.565770 0.798979 0.197294 -0.868346
H11   H     H_    0.585773 0.788144 0.142103 0.263424
H12   H     H_    0.544070 0.764078 0.224858 0.272013
H13   H     H_    0.520709 0.827374 0.190980 0.245539
H14   H     H_    0.605492 0.832921 0.297270 0.203429
H15   H     H_    0.641839 0.860500 0.218425 0.221700
C119  C     C_3   0.346703 0.159398 0.730698 -0.403242
C120  C     C_3   0.307315 0.118078 0.686096 -0.820092
H16   H     H_    0.296465 0.132209 0.629881 0.281903
H17   H     H_    0.341710 0.082919 0.682554 0.232759
H18   H     H_    0.254520 0.107458 0.711670 0.251621
H19   H     H_    0.398368 0.169346 0.702459 0.186232
H20   H     H_    0.365621 0.143049 0.783364 0.213963
C121  C     C_3   0.389477 0.194259 0.226765 -0.414568
C122  C     C_3   0.443677 0.227918 0.185074 -0.840554
H21   H     H_    0.421165 0.239446 0.131166 0.255285
H22   H     H_    0.456478 0.263253 0.216776 0.280428
H23   H     H_    0.495168 0.206069 0.176102 0.238393
H24   H     H_    0.414869 0.182550 0.279280 0.187990
H25   H     H_    0.382048 0.157199 0.197659 0.217465
C123  C     C_3   0.634798 0.830727 0.749076 -0.415625
C124  C     C_3   0.658071 0.878561 0.706184 -0.837612
H26   H     H_    0.614828 0.908541 0.710138 0.236727
H27   H     H_    0.709658 0.894732 0.728060 0.256654
H28   H     H_    0.666235 0.868977 0.647698 0.282672
H29   H     H_    0.583621 0.815664 0.724756 0.188286
H30   H     H_    0.618359 0.841919 0.805145 0.219151
C125  C     C_3   0.636126 0.169841 0.749027 -0.427060
C126  C     C_3   0.569955 0.188476 0.792521 -0.871132
H31   H     H_    0.527198 0.158166 0.792349 0.247162
H32   H     H_    0.585527 0.196703 0.849969 0.265391
H33   H     H_    0.546707 0.224001 0.767707 0.268558
H34   H     H_    0.618429 0.160491 0.692727 0.210248
H35   H     H_    0.654762 0.132365 0.771148 0.224168
C127  C     C_3   0.361843 0.832524 0.253163 -0.414180
C128  C     C_3   0.335337 0.879709 0.295808 -0.837556
H36   H     H_    0.282762 0.894369 0.273803 0.256000
H37   H     H_    0.327694 0.869908 0.354307 0.282260
H38   H     H_    0.376493 0.910915 0.291826 0.236869
H39   H     H_    0.413288 0.818482 0.278417 0.187488
H40   H     H_    0.378813 0.844105 0.197418 0.217172
C129  C     C_3   0.862988 0.330303 0.249821 -0.418580
C130  C     C_3   0.924211 0.313132 0.301007 -0.884211
H41   H     H_    0.965920 0.343976 0.304548 0.256273
H42   H     H_    0.950213 0.277347 0.279935 0.263079
H43   H     H_    0.903152 0.305464 0.356796 0.265882
H44   H     H_    0.886557 0.336986 0.194922 0.206853
H45   H     H_    0.842684 0.368829 0.266392 0.223473
C131  C     C_3   0.133535 0.670520 0.748986 -0.417378
C132  C     C_3   0.155174 0.622116 0.791663 -0.840873
H46   H     H_    0.164398 0.631473 0.850056 0.282295
H47   H     H_    0.110567 0.593277 0.788223 0.237427
H48   H     H_    0.205790 0.604648 0.769197 0.256388
H49   H     H_    0.082504 0.686314 0.772930 0.189498
H50   H     H_    0.117425 0.659874 0.692629 0.218718
C133  C     C_3   0.136208 0.330399 0.752405 -0.418921
C134  C     C_3   0.068343 0.307976 0.715573 -0.872571
H51   H     H_    0.026432 0.338715 0.709178 0.242349
H52   H     H_    0.044161 0.276586 0.748628 0.268358
H53   H     H_    0.082166 0.292642 0.660639 0.266295
H54   H     H_    0.122257 0.343122 0.808473 0.209960
H55   H     H_    0.149365 0.366139 0.722606 0.224043
C135  C     C_3   0.869218 0.672092 0.253074 -0.419032
C136  C     C_3   0.849626 0.623168 0.210847 -0.840456
H56   H     H_    0.840691 0.632027 0.152238 0.281350
H57   H     H_    0.895142 0.594903 0.215136 0.238471
H58   H     H_    0.799379 0.605227 0.233071 0.257953
H59   H     H_    0.919857 0.688461 0.229357 0.190297
H60   H     H_    0.885217 0.661915 0.309662 0.220692
C137  C     C_3   0.869954 0.674372 0.745310 -0.418048
C138  C     C_3   0.931640 0.696141 0.698586 -0.874740
H61   H     H_    0.911430 0.706569 0.643301 0.265150
H62   H     H_    0.955209 0.730961 0.724774 0.268876
H63   H     H_    0.975257 0.666616 0.692613 0.247936
H64   H     H_    0.891658 0.665216 0.800357 0.203918
H65   H     H_    0.853749 0.636411 0.723221 0.221906
C139  C     C_3   0.116859 0.312277 0.269330 -0.427082
C140  C     C_3   0.134809 0.368323 0.251223 -0.851939
H66   H     H_    0.087109 0.393042 0.264646 0.254228
H67   H     H_    0.182430 0.382234 0.283014 0.280492
H68   H     H_    0.147486 0.372102 0.192124 0.259692
H69   H     H_    0.071598 0.300045 0.233218 0.199587
H70   H     H_    0.093501 0.309590 0.325008 0.223471
C141  C     C_3   0.132384 0.673092 0.253359 -0.418320
C142  C     C_3   0.070838 0.693675 0.301519 -0.873796
H71   H     H_    0.027778 0.663859 0.306798 0.250021
H72   H     H_    0.091457 0.703108 0.356972 0.265778
H73   H     H_    0.046459 0.728903 0.276881 0.266809
H74   H     H_    0.110094 0.664626 0.198375 0.204633
H75   H     H_    0.149777 0.634929 0.274069 0.223264
C143  C     C_3   0.854824 0.336065 0.758130 -0.400390
C144  C     C_3   0.818911 0.382068 0.796495 -0.850355
H76   H     H_    0.760797 0.386656 0.780335 0.259617
H77   H     H_    0.821431 0.376918 0.856675 0.276667
H78   H     H_    0.847685 0.418018 0.781434 0.239374
H79   H     H_    0.905482 0.325701 0.788038 0.184084
H80   H     H_    0.874923 0.347424 0.703289 0.214368
C145  C     C_3   0.739660 0.335640 0.355870 -0.361123
C146  C     C_3   0.696524 0.380598 0.322997 -0.750708
H81   H     H_    0.720767 0.393276 0.270439 0.229836
H82   H     H_    0.639012 0.369196 0.313135 0.271584
H83   H     H_    0.696923 0.413741 0.361329 0.269988
H84   H     H_    0.712759 0.323654 0.407423 0.226687
H85   H     H_    0.793834 0.349336 0.374266 0.226222
C147  C     C_3   0.249390 0.670358 0.633521 -0.354813
C148  C     C_3   0.209277 0.690042 0.565813 -0.805247
H86   H     H_    0.152435 0.701399 0.579672 0.243130
H87   H     H_    0.237908 0.723809 0.542112 0.256750
H88   H     H_    0.207399 0.659053 0.524016 0.298684
H89   H     H_    0.305934 0.659399 0.618247 0.248635
H90   H     H_    0.224858 0.633409 0.651061 0.230346
C149  C     C_3   0.274356 0.344288 0.664546 -0.438483
C150  C     C_3   0.236536 0.344790 0.590591 -0.740596
H91   H     H_    0.260311 0.314355 0.555227 0.256972
H92   H     H_    0.176995 0.338496 0.596437 0.251631
H93   H     H_    0.245055 0.382723 0.564390 0.318790
H94   H     H_    0.259173 0.378829 0.696857 0.196109
H95   H     H_    0.333466 0.350388 0.656140 0.239258
C151  C     C_3   0.752883 0.671445 0.367987 -0.349302
C152  C     C_3   0.793130 0.691784 0.435084 -0.810821
H96   H     H_    0.849300 0.704073 0.420520 0.243948
H97   H     H_    0.763417 0.725084 0.459112 0.257515
H98   H     H_    0.796853 0.660802 0.476805 0.294051
H99   H     H_    0.696646 0.660354 0.383915 0.246006
H100  H     H_    0.777925 0.634490 0.350730 0.233856
C153  C     C_3   0.746445 0.667734 0.639315 -0.364555
C154  C     C_3   0.708423 0.620352 0.671176 -0.747497
H101  H     H_    0.649629 0.628670 0.680323 0.269551
H102  H     H_    0.733342 0.608654 0.723943 0.226222
H103  H     H_    0.713202 0.587564 0.632623 0.280833
H104  H     H_    0.716986 0.679553 0.589062 0.225856
H105  H     H_    0.801557 0.657228 0.619116 0.221847
C155  C     C_3   0.221013 0.298476 0.392753 -0.348010
C156  C     C_3   0.177689 0.259903 0.438721 -0.872843
H106  H     H_    0.129610 0.245255 0.408251 0.256356
H107  H     H_    0.212805 0.226629 0.454057 0.282799
H108  H     H_    0.157663 0.278741 0.489292 0.251933
H109  H     H_    0.271535 0.308985 0.422539 0.230902
H110  H     H_    0.190629 0.335381 0.389251 0.247271
C157  C     C_3   0.257404 0.665814 0.357554 -0.358151
C158  C     C_3   0.296882 0.619859 0.322909 -0.744788
H111  H     H_    0.354993 0.629526 0.312627 0.266943
H112  H     H_    0.271194 0.608720 0.270327 0.227911
H113  H     H_    0.294746 0.586223 0.360140 0.276483
H114  H     H_    0.287005 0.676879 0.408000 0.227771
H115  H     H_    0.202990 0.653999 0.377945 0.226964
C159  C     C_3   0.746804 0.331339 0.636509 -0.355277
C160  C     C_3   0.789832 0.313090 0.569832 -0.794948
H116  H     H_    0.847322 0.304564 0.585053 0.242951
H117  H     H_    0.764858 0.277845 0.546272 0.252994
H118  H     H_    0.789603 0.343715 0.527431 0.304171
H119  H     H_    0.690230 0.340881 0.619706 0.250117
H120  H     H_    0.768708 0.368943 0.654678 0.237767
C161  C     C_3   0.246212 0.831794 0.860964 -0.362951
C162  C     C_3   0.208393 0.879195 0.828391 -0.747368
H121  H     H_    0.233759 0.890615 0.775765 0.228193
H122  H     H_    0.149696 0.871041 0.818765 0.267825
H123  H     H_    0.212732 0.912125 0.866628 0.281469
H124  H     H_    0.216327 0.820239 0.911022 0.225717
H125  H     H_    0.301160 0.842080 0.881619 0.223408
C163  C     C_3   0.753510 0.168274 0.137094 -0.355171
C164  C     C_3   0.710397 0.186155 0.070248 -0.796485
H126  H     H_    0.652959 0.194897 0.085412 0.240992
H127  H     H_    0.735466 0.221197 0.046154 0.252871
H128  H     H_    0.710425 0.155242 0.028314 0.306044
H129  H     H_    0.810154 0.158860 0.120406 0.250171
H130  H     H_    0.731845 0.130686 0.155627 0.234452
C165  C     C_3   0.750039 0.829661 0.135825 -0.373170
C166  C     C_3   0.786198 0.878389 0.165667 -0.748410
H131  H     H_    0.761040 0.890569 0.218088 0.228929
H132  H     H_    0.845352 0.871448 0.174816 0.269498
H133  H     H_    0.779867 0.910312 0.125895 0.285868
H134  H     H_    0.779990 0.817421 0.086093 0.223002
H135  H     H_    0.694517 0.838617 0.115243 0.219776
C167  C     C_3   0.243948 0.164916 0.857127 -0.345427
C168  C     C_3   0.294662 0.179146 0.920097 -0.802264
H136  H     H_    0.351752 0.183207 0.900578 0.243916
H137  H     H_    0.277036 0.216169 0.945132 0.242391
H138  H     H_    0.293136 0.148529 0.962389 0.314601
H139  H     H_    0.188367 0.158588 0.879000 0.255484
H140  H     H_    0.259445 0.126616 0.835262 0.233895
C169  C     C_3   0.268037 0.186026 0.118391 -0.422805
C170  C     C_3   0.240431 0.131992 0.136569 -0.757803
H141  H     H_    0.180468 0.132763 0.145625 0.273135
H142  H     H_    0.267451 0.116525 0.186304 0.235096
H143  H     H_    0.252575 0.105697 0.090577 0.310177
H144  H     H_    0.236675 0.201020 0.071133 0.217372
H145  H     H_    0.324888 0.183979 0.097956 0.218553
C171  C     C_3   0.749676 0.830264 0.865271 -0.348787
C172  C     C_3   0.708134 0.811324 0.932394 -0.807659
H146  H     H_    0.651568 0.800109 0.917599 0.243182
H147  H     H_    0.736283 0.777596 0.957150 0.254449
H148  H     H_    0.705406 0.842694 0.973563 0.300177
H149  H     H_    0.806105 0.840578 0.881482 0.248212
H150  H     H_    0.726084 0.867458 0.847040 0.233882
C173  C     C_3   0.756888 0.166003 0.858683 -0.361668
C174  C     C_3   0.798434 0.119652 0.827695 -0.748357
H151  H     H_    0.856995 0.129258 0.820402 0.271725
H152  H     H_    0.775840 0.107631 0.774103 0.229229
H153  H     H_    0.794251 0.086612 0.865920 0.274658
H154  H     H_    0.784190 0.178403 0.909820 0.225120
H155  H     H_    0.701878 0.154101 0.877363 0.222700
C175  C     C_3   0.248491 0.830913 0.135491 -0.354374
C176  C     C_3   0.290303 0.812271 0.068268 -0.803206
H156  H     H_    0.347361 0.801983 0.082920 0.242878
H157  H     H_    0.263318 0.778026 0.044001 0.254213
H158  H     H_    0.291591 0.843425 0.026687 0.303383
H159  H     H_    0.191878 0.841030 0.119404 0.249294
H160  H     H_    0.271451 0.868189 0.153706 0.231344
C177  C     C_3   0.523893 0.943607 0.362082 -0.399516
C178  C     C_3   0.605494 0.944561 0.344513 -0.863996
H161  H     H_    0.628770 0.983755 0.351549 0.257940
H162  H     H_    0.635323 0.917497 0.381010 0.274396
H163  H     H_    0.614157 0.932807 0.286997 0.244087
H164  H     H_    0.506033 0.902777 0.364573 0.190070
H165  H     H_    0.492057 0.959842 0.315944 0.213090
C179  C     C_3   0.497280 0.055958 0.639665 -0.404624
C180  C     C_3   0.573838 0.052391 0.672348 -0.875335
H166  H     H_    0.593412 0.011869 0.674972 0.259668
H167  H     H_    0.612780 0.074902 0.638578 0.264753
H168  H     H_    0.572943 0.068054 0.728696 0.257500
H169  H     H_    0.482694 0.097339 0.634185 0.195168
H170  H     H_    0.456951 0.040746 0.679168 0.219195
C181  C     C_3   0.466549 0.943160 0.635066 -0.401164
C182  C     C_3   0.383714 0.945258 0.645076 -0.852785
H171  H     H_    0.362583 0.985195 0.638521 0.254319
H172  H     H_    0.356598 0.920044 0.604279 0.277222
H173  H     H_    0.369159 0.931930 0.700647 0.241072
H174  H     H_    0.484011 0.902145 0.633847 0.189623
H175  H     H_    0.493722 0.958640 0.684384 0.216978
C183  C     C_3   0.501700 0.057833 0.360966 -0.414449
C184  C     C_3   0.423048 0.063674 0.334501 -0.866994
H176  H     H_    0.396780 0.025327 0.328634 0.260440
H177  H     H_    0.390911 0.087326 0.373618 0.275637
H178  H     H_    0.422534 0.083112 0.280477 0.243896
H179  H     H_    0.526084 0.096756 0.366613 0.200193
H180  H     H_    0.534464 0.039422 0.317413 0.222373
C185  C     C_3   0.987792 0.444259 0.861010 -0.404306
C186  C     C_3   0.062773 0.447183 0.824893 -0.881351
H181  H     H_    0.060288 0.428833 0.770223 0.256990
H182  H     H_    0.080470 0.487789 0.817730 0.259501
H183  H     H_    0.103907 0.426881 0.859075 0.264499
H184  H     H_    0.972868 0.403052 0.867107 0.202391
H185  H     H_    0.946281 0.460185 0.823435 0.219028
C187  C     C_3   0.046969 0.556423 0.131642 -0.403334
C188  C     C_3   0.130442 0.555022 0.132999 -0.835247
H186  H     H_    0.151256 0.514979 0.126806 0.255527
H187  H     H_    0.152797 0.578982 0.088000 0.278817
H188  H     H_    0.150718 0.570262 0.185708 0.237095
H189  H     H_    0.028660 0.597249 0.132623 0.188460
H190  H     H_    0.025248 0.540505 0.183352 0.216540
C189  C     C_3   0.017419 0.443413 0.138182 -0.413754
C190  C     C_3   0.944393 0.445744 0.178323 -0.878570
H191  H     H_    0.950017 0.427060 0.232575 0.258135
H192  H     H_    0.926138 0.486173 0.186729 0.261514
H193  H     H_    0.901981 0.425194 0.146276 0.263615
H194  H     H_    0.031913 0.402232 0.130601 0.203840
H195  H     H_    0.061476 0.458666 0.173437 0.222408
C191  C     C_3   0.955331 0.557027 0.867854 -0.401836
C192  C     C_3   0.872033 0.554523 0.863538 -0.844288
H196  H     H_    0.852432 0.514132 0.867761 0.253984
H197  H     H_    0.847366 0.577457 0.908499 0.279566
H198  H     H_    0.853043 0.570399 0.810647 0.236618
H199  H     H_    0.971943 0.598131 0.868166 0.189821
H200  H     H_    0.979613 0.542011 0.816688 0.213095

loop_
_geom_bond_atom_site_label_1
_geom_bond_atom_site_label_2
_ccdc_geom_bond_type
C5    O24   A    
C123  H30   S    
C65   F7    S    
C187  H189  S    
O4    Zn14  S    
C188  H186  S    
C167  H139  S    
C168  H138  S    
C90   C131  S    
C153  C154  S    
O8    Zn2   S    
C144  H77   S    
C110  C171  S    
C138  H61   S    
O36   Zn13  S    
C57   C76   A    
C29   C109  A    
C86   C110  A    
C66   F8    S    
C143  H80   S    
C137  H64   S    
C33   C36   A    
C34   C179  S    
C163  C164  S    
C34   C35   A    
C35   C42   A    
C105  C161  S    
C51   C80   S    
C130  H42   S    
C155  H109  S    
C129  H44   S    
C40   C43   A    
C23   C103  A    
C136  H56   S    
C150  H91   S    
C129  C130  S    
C149  H95   S    
C139  H70   S    
C189  H194  S    
O1    Zn11  S    
O2    Zn12  S    
C169  H145  S    
C147  H90   S    
C165  H135  S    
O45   Zn3   S    
C91   C133  S    
O41   Zn13  S    
C146  H82   S    
C151  C152  S    
C25   C105  A    
C189  C190  S    
C164  H128  S    
C93   C101  A    
C19   C99   A    
C157  H114  S    
C47   O41   A    
C59   F15   S    
C100  C151  S    
C147  C148  S    
C45   O39   A    
C42   C45   S    
C55   F11   S    
C148  H88   S    
C171  H149  S    
C15   O30   A    
C133  H54   S    
C144  H76   S    
C107  C165  S    
O18   Zn7   S    
C65   C68   A    
C158  H111  S    
C3    O26   A    
C156  H108  S    
O2    Zn4   S    
O3    Zn13  S    
C1    O28   A    
C84   C119  S    
C142  H71   S    
C134  H52   S    
C96   C104  A    
C188  H188  S    
C151  H100  S    
C131  H50   S    
C168  H136  S    
C50   C77   S    
C182  H171  S    
C15   C30   S    
C109  C169  S    
C14   O18   A    
C128  H38   S    
C177  H164  S    
O9    Zn4   S    
C21   C86   A    
C133  H55   S    
C1    C20   S    
O10   Zn3   S    
O22   Zn10  S    
C2    C19   S    
C7    O11   A    
C12   O16   A    
C7    C22   S    
C169  C170  S    
C121  H24   S    
C37   C44   A    
C16   C29   S    
C38   C43   A    
C161  C162  S    
O1    Zn1   S    
O44   Zn16  S    
C165  H134  S    
C28   C108  A    
C150  H93   S    
C183  H180  S    
O13   Zn7   S    
C24   C87   A    
C184  H177  S    
O14   Zn8   S    
C170  H141  S    
C88   C127  S    
O2    Zn10  S    
C118  H11   S    
C94   C102  A    
C89   C97   A    
C160  H116  S    
C114  H2    S    
C103  C157  S    
O21   Zn9   S    
C67   F5    S    
C9    C28   S    
C106  C163  S    
C166  H131  S    
C10   C27   S    
C186  H182  S    
O24   Zn12  S    
C177  C178  S    
C63   F1    S    
C13   C32   S    
C69   C77   A    
C157  C158  S    
C176  H156  S    
C14   C31   S    
C172  H146  S    
C145  H85   S    
C119  H19   S    
C180  H166  S    
C50   O46   A    
C25   C90   A    
C33   C42   A    
C135  C136  S    
C37   C40   A    
C191  H199  S    
C190  H193  S    
C132  H46   S    
C186  H183  S    
C31   C96   A    
C158  H113  S    
C189  H195  S    
C17   C82   A    
C13   O32   A    
C72   C78   A    
C59   C67   A    
C4    O25   A    
C53   C61   A    
C142  H73   S    
O32   Zn16  S    
C187  C188  S    
C111  C173  S    
C176  H157  S    
C159  H120  S    
O31   Zn15  S    
C52   C79   S    
C124  H26   S    
O7    Zn1   S    
C153  H104  S    
C182  H173  S    
C175  H160  S    
C64   F2    S    
C117  H14   S    
C68   F6    S    
C49   O45   A    
C96   C143  S    
O51   Zn5   S    
C126  H32   S    
C95   C103  A    
C121  C122  S    
C36   C183  S    
C127  H39   S    
C116  H7    S    
C81   C105  A    
C87   C125  S    
C163  H129  S    
C135  H59   S    
C159  H119  S    
C136  H58   S    
C66   C67   A    
C56   C69   A    
C191  C192  S    
C190  H191  S    
C130  H43   S    
C185  H185  S    
C9    O13   A    
O47   Zn1   S    
C12   O33   A    
C69   C72   A    
C11   O15   A    
C6    O23   A    
C124  H27   S    
C134  H53   S    
C118  H13   S    
C140  H66   S    
C73   C79   A    
O4    Zn6   S    
C113  H4    S    
C1    O5    A    
C134  H51   S    
C162  H123  S    
C3    O7    A    
C166  H133  S    
C161  H124  S    
C154  H102  S    
C23   C88   A    
C178  H161  S    
C85   C121  S    
C71   C77   A    
C172  H148  S    
C179  C180  S    
C180  H168  S    
C48   O42   A    
C127  C128  S    
C187  H190  S    
C54   F10   S    
O38   Zn10  S    
C167  H140  S    
C76   C80   A    
C131  C132  S    
C168  H137  S    
C39   C189  S    
C132  H48   S    
C133  C134  S    
C11   O34   A    
C39   C44   A    
O15   Zn5   S    
C154  H103  S    
C9    O36   A    
C104  C159  S    
C151  H99   S    
C86   C123  S    
C16   O29   A    
C120  H18   S    
O30   Zn14  S    
C75   C79   A    
C126  H31   S    
C160  H118  S    
C82   C106  A    
C113  C114  S    
C152  H98   S    
C161  H125  S    
C62   F4    S    
O12   Zn1   S    
O49   Zn7   S    
C99   C149  S    
C32   C95   A    
C15   O19   A    
C155  C156  S    
C178  H163  S    
C150  H92   S    
C185  C186  S    
O26   Zn11  S    
C13   O17   A    
C49   O47   A    
O27   Zn10  S    
C91   C99   A    
C183  C184  S    
C10   O14   A    
C17   C97   A    
C52   O50   A    
C179  H169  S    
C169  H144  S    
C56   F12   S    
C137  H65   S    
O17   Zn8   S    
C125  C126  S    
C26   C106  A    
C2    O6    A    
O46   Zn4   S    
C165  C166  S    
C114  H1    S    
O16   Zn6   S    
C60   F16   S    
C30   C110  A    
O29   Zn13  S    
C2    O27   A    
C85   C109  A    
C164  H127  S    
C81   C113  S    
C87   C111  A    
C60   C73   A    
C140  H68   S    
O4    Zn8   S    
C148  H87   S    
C162  H121  S    
C171  H150  S    
O11   Zn2   S    
O52   Zn6   S    
C54   C71   A    
C182  H172  S    
O28   Zn9   S    
C158  H112  S    
C115  H9    S    
C51   O51   A    
C70   C71   A    
C156  H107  S    
C141  H75   S    
C142  H72   S    
C48   O44   A    
C74   C80   A    
C188  H187  S    
C36   C41   A    
C34   C41   A    
C102  C155  S    
O43   Zn15  S    
C144  H78   S    
C128  H37   S    
C117  H15   S    
C155  H110  S    
O39   Zn11  S    
C171  C172  S    
C7    O22   A    
O3    Zn7   S    
C120  H16   S    
C8    O12   A    
C94   C139  S    
C54   C62   A    
C116  H6    S    
C143  H79   S    
C58   F14   S    
C126  H33   S    
C149  C150  S    
C95   C141  S    
C61   C64   A    
C192  H196  S    
C62   C63   A    
C129  H45   S    
C117  C118  S    
C20   C100  A    
C27   C107  A    
C121  H25   S    
C139  H69   S    
C59   C74   A    
C170  H142  S    
C52   O52   A    
C4    C17   S    
C118  H12   S    
C147  H89   S    
O42   Zn14  S    
C175  C176  S    
C73   C76   A    
O20   Zn5   S    
C141  C142  S    
C166  H132  S    
C181  H174  S    
C14   O31   A    
C32   C112  A    
C138  H62   S    
C57   C65   A    
C170  H143  S    
O1    Zn3   S    
C145  H84   S    
C119  H20   S    
C141  H74   S    
C125  H35   S    
C50   O48   A    
C192  H197  S    
C167  C168  S    
C152  H96   S    
C191  H200  S    
C38   C39   A    
O5    Zn3   S    
O33   Zn16  S    
O6    Zn4   S    
C123  C124  S    
C84   C108  A    
O34   Zn15  S    
C51   O49   A    
C35   C181  S    
C16   O20   A    
C88   C112  A    
C174  H151  S    
C60   C68   A    
C146  H81   S    
C131  H49   S    
C53   C72   A    
C146  H83   S    
C37   C185  S    
C177  H165  S    
C46   O40   A    
O19   Zn6   S    
C97   C145  S    
C70   C78   A    
O3    Zn5   S    
C93   C137  S    
C57   F13   S    
C127  H40   S    
C145  C146  S    
C26   C89   A    
C130  H41   S    
C163  H130  S    
C135  H60   S    
C173  H155  S    
C136  H57   S    
C30   C93   A    
C38   C187  S    
C22   C85   A    
C185  H184  S    
C5    O9    A    
C18   C81   A    
C3    C18   S    
C149  H94   S    
C183  H179  S    
C184  H178  S    
C58   C66   A    
C33   C177  S    
C49   C78   S    
C41   C46   S    
C125  H34   S    
C28   C91   A    
C43   C48   S    
O37   Zn9   S    
C44   C47   S    
C10   O35   A    
C21   C101  A    
C186  H181  S    
C89   C129  S    
C178  H162  S    
C148  H86   S    
C172  H147  S    
C58   C75   A    
O2    Zn2   S    
C180  H167  S    
C61   F3    S    
C74   C75   A    
O25   Zn12  S    
C192  H198  S    
C40   C191  S    
C132  H47   S    
C11   C26   S    
C137  C138  S    
O3    Zn15  S    
C55   C63   A    
C24   C104  A    
O23   Zn11  S    
C120  H17   S    
C124  H28   S    
O48   Zn2   S    
C174  H153  S    
C173  C174  S    
C114  H3    S    
C56   C64   A    
C8    C21   S    
C176  H158  S    
O50   Zn8   S    
C27   C92   A    
C160  H117  S    
C173  H154  S    
C115  C116  S    
C152  H97   S    
C153  H105  S    
C112  C175  S    
C175  H159  S    
C138  H63   S    
C190  H192  S    
C46   O38   A    
C122  H21   S    
C122  H22   S    
C29   C94   A    
C6    O10   A    
C92   C135  S    
C19   C84   A    
C92   C100  A    
O1    Zn9   S    
C116  H8    S    
C179  H170  S    
C143  C144  S    
C31   C111  A    
C101  C153  S    
C8    O21   A    
C174  H152  S    
C128  H36   S    
C181  H175  S    
C122  H23   S    
C108  C167  S    
C22   C102  A    
C12   C25   S    
C139  C140  S    
O4    Zn16  S    
C184  H176  S    
C164  H126  S    
C82   C115  S    
O35   Zn14  S    
C119  C120  S    
C5    C24   S    
C53   F9    S    
C6    C23   S    
C140  H67   S    
C83   C107  A    
C113  H5    S    
C45   O37   A    
C159  C160  S    
C162  H122  S    
C55   C70   A    
C123  H29   S    
C181  C182  S    
O40   Zn12  S    
C154  H101  S    
C20   C83   A    
C115  H10   S    
C4    O8    A    
C98   C147  S    
C18   C98   A    
C156  H106  S    
C90   C98   A    
C83   C117  S    
C157  H115  S    
C47   O43   A    
