data_mof_unit_57949.cif
_audit_creation_date              2013-03-05T15:50:08-0500
_audit_creation_method            fapswitch 2.2
_symmetry_space_group_name_H-M    P1
_symmetry_Int_Tables_number       1
_space_group_crystal_system       triclinic
_cell_length_a                    18.339322
_cell_length_b                    25.85879
_cell_length_c                    18.272634
_cell_angle_alpha                 89.970643
_cell_angle_beta                  90.207265
_cell_angle_gamma                 90.161629
_cell_volume                      8665.38785599

loop_
_atom_site_label
_atom_site_type_symbol
_atom_site_description
_atom_site_fract_x
_atom_site_fract_y
_atom_site_fract_z
_atom_type_partial_charge
Zn1   Zn    Zn3+2 0.249990 0.293780 0.913250 0.950603
Zn2   Zn    Zn3+2 0.249990 0.706220 0.086750 0.966005
Zn3   Zn    Zn3+2 0.249990 0.706220 0.913250 0.950199
Zn4   Zn    Zn3+2 0.249990 0.293780 0.086750 0.946758
Zn5   Zn    Zn3+2 0.749990 0.793780 0.413250 0.957045
Zn6   Zn    Zn3+2 0.749990 0.206220 0.586750 0.950383
Zn7   Zn    Zn3+2 0.749990 0.206220 0.413250 0.958270
Zn8   Zn    Zn3+2 0.749990 0.793780 0.586750 0.950184
Zn9   Zn    Zn3+2 0.336760 0.206240 0.000000 0.956325
Zn10  Zn    Zn3+2 0.336760 0.793760 0.000000 0.973038
Zn11  Zn    Zn3+2 0.836760 0.706240 0.500000 0.963298
Zn12  Zn    Zn3+2 0.836760 0.293760 0.500000 0.963735
Zn13  Zn    Zn3+2 0.163250 0.206230 0.000000 0.997770
Zn14  Zn    Zn3+2 0.163250 0.793770 0.000000 0.987781
Zn15  Zn    Zn3+2 0.663250 0.706230 0.500000 0.999718
Zn16  Zn    Zn3+2 0.663250 0.293770 0.500000 0.999356
O1    O     O_3   0.249990 0.250010 0.000000 -0.493179
O2    O     O_3   0.249990 0.749990 0.000000 -0.488302
O3    O     O_3   0.749990 0.750010 0.500000 -0.489365
O4    O     O_3   0.749990 0.249990 0.500000 -0.489436
O5    O     O_R   0.335430 0.280650 0.146160 -0.640934
O6    O     O_R   0.335430 0.719350 0.853840 -0.638544
O7    O     O_R   0.335430 0.719350 0.146160 -0.633855
O8    O     O_R   0.335430 0.280650 0.853840 -0.638796
O9    O     O_R   0.835430 0.780650 0.646160 -0.637825
O10   O     O_R   0.835430 0.219350 0.353840 -0.639038
O11   O     O_R   0.835430 0.219350 0.646160 -0.637469
O12   O     O_R   0.835430 0.780650 0.353840 -0.639754
O13   O     O_R   0.164550 0.280640 0.853840 -0.638372
O14   O     O_R   0.164550 0.719360 0.146160 -0.643263
O15   O     O_R   0.164550 0.719360 0.853840 -0.638928
O16   O     O_R   0.164550 0.280640 0.146160 -0.652766
O17   O     O_R   0.664550 0.780640 0.353840 -0.646181
O18   O     O_R   0.664550 0.219360 0.646160 -0.640334
O19   O     O_R   0.664550 0.219360 0.353840 -0.646240
O20   O     O_R   0.664550 0.780640 0.646160 -0.639876
O21   O     O_R   0.396160 0.219380 0.914560 -0.637048
O22   O     O_R   0.396160 0.780620 0.085440 -0.642726
O23   O     O_R   0.396160 0.780620 0.914560 -0.643014
O24   O     O_R   0.396160 0.219380 0.085440 -0.635902
O25   O     O_R   0.896160 0.719380 0.414560 -0.640480
O26   O     O_R   0.896160 0.280620 0.585440 -0.639076
O27   O     O_R   0.896160 0.280620 0.414560 -0.641230
O28   O     O_R   0.896160 0.719380 0.585440 -0.638175
O29   O     O_R   0.103840 0.219370 0.085450 -0.609432
O30   O     O_R   0.103840 0.780630 0.914550 -0.638851
O31   O     O_R   0.103840 0.780630 0.085450 -0.627835
O32   O     O_R   0.103840 0.219370 0.914550 -0.638607
O33   O     O_R   0.603840 0.719370 0.585450 -0.642078
O34   O     O_R   0.603840 0.280630 0.414550 -0.613569
O35   O     O_R   0.603840 0.280630 0.585450 -0.641585
O36   O     O_R   0.603840 0.719370 0.414550 -0.613066
O37   O     O_R   0.310730 0.133160 0.000000 -0.656403
O38   O     O_R   0.310730 0.866840 0.000000 -0.628657
O39   O     O_R   0.810730 0.633160 0.500000 -0.650517
O40   O     O_R   0.810730 0.366840 0.500000 -0.650596
O41   O     O_R   0.249970 0.366860 0.060720 -0.642761
O42   O     O_R   0.249970 0.633140 0.939280 -0.647047
O43   O     O_R   0.249970 0.633140 0.060720 -0.645377
O44   O     O_R   0.249970 0.366860 0.939280 -0.646370
O45   O     O_R   0.749970 0.866860 0.560720 -0.646830
O46   O     O_R   0.749970 0.133140 0.439280 -0.643858
O47   O     O_R   0.749970 0.133140 0.560720 -0.646894
O48   O     O_R   0.749970 0.866860 0.439280 -0.644318
O49   O     O_R   0.189290 0.133150 0.000000 -0.586344
O50   O     O_R   0.189290 0.866850 0.000000 -0.634100
O51   O     O_R   0.689290 0.633150 0.500000 -0.603561
O52   O     O_R   0.689290 0.366850 0.500000 -0.603850
C1    C     C_R   0.389761 0.250234 0.139896 0.780196
C2    C     C_R   0.389942 0.749882 0.860267 0.779272
C3    C     C_R   0.389630 0.749966 0.139965 0.790153
C4    C     C_R   0.389888 0.250181 0.860253 0.780635
C5    C     C_R   0.889737 0.750101 0.639769 0.783886
C6    C     C_R   0.889511 0.250111 0.359811 0.768930
C7    C     C_R   0.889798 0.249940 0.639767 0.785362
C8    C     C_R   0.889550 0.749996 0.359835 0.767237
C9    C     C_R   0.110179 0.250066 0.860235 0.782511
C10   C     C_R   0.110376 0.750013 0.140003 0.791906
C11   C     C_R   0.110242 0.749895 0.860231 0.781603
C12   C     C_R   0.110400 0.249919 0.140152 0.786505
C13   C     C_R   0.610297 0.750018 0.360140 0.798812
C14   C     C_R   0.610099 0.249829 0.639765 0.775547
C15   C     C_R   0.610815 0.250295 0.359804 0.800285
C16   C     C_R   0.610048 0.750107 0.639752 0.776812
C17   C     C_R   0.249477 0.109285 0.001301 0.871479
C18   C     C_R   0.250440 0.890626 0.999994 0.904467
C19   C     C_R   0.749925 0.609349 0.499699 0.904239
C20   C     C_R   0.750105 0.390641 0.499728 0.905356
C21   C     C_R   0.249964 0.391401 0.999893 0.743548
C22   C     C_R   0.249971 0.608597 0.999918 0.740746
C23   C     C_R   0.749953 0.891403 0.500082 0.742070
C24   C     C_R   0.749960 0.108598 0.500106 0.742125
C25   C     C_3   0.181210 0.469931 0.038885 -0.394621
C26   C     C_3   0.249991 0.529740 0.919955 -0.376945
C27   C     C_3   0.181214 0.529759 0.038907 -0.394962
C28   C     C_3   0.249989 0.470318 0.919937 -0.377812
C29   C     C_3   0.749898 0.970260 0.580044 -0.377199
C30   C     C_3   0.681226 0.029796 0.460542 -0.394048
C31   C     C_3   0.749900 0.029681 0.580062 -0.377545
C32   C     C_3   0.681226 0.969967 0.460521 -0.394635
H1    H     H_    0.179713 0.455657 0.096333 0.185383
H2    H     H_    0.298975 0.544023 0.890234 0.181262
H3    H     H_    0.179725 0.543968 0.096363 0.185096
H4    H     H_    0.298972 0.456255 0.890214 0.181236
H5    H     H_    0.798857 0.956172 0.610162 0.182373
H6    H     H_    0.679786 0.044064 0.403081 0.185850
H7    H     H_    0.798861 0.043938 0.610183 0.182453
H8    H     H_    0.679791 0.955750 0.403052 0.185411
H9    H     H_    0.131159 0.455425 0.010939 0.152508
H10   H     H_    0.201022 0.543829 0.889853 0.181923
H11   H     H_    0.131165 0.544098 0.010971 0.152437
H12   H     H_    0.201018 0.456061 0.889833 0.181956
H13   H     H_    0.700904 0.955976 0.609748 0.180831
H14   H     H_    0.631146 0.044105 0.488066 0.152442
H15   H     H_    0.700908 0.043745 0.609769 0.180846
H16   H     H_    0.631146 0.955427 0.488035 0.152370
H17   H     H_    0.267112 0.904912 0.863567 0.103845
H18   H     H_    0.266307 0.096184 0.865028 0.107612
H19   H     H_    0.784590 0.404527 0.631924 0.109196
H20   H     H_    0.783597 0.595539 0.632087 0.108840
H21   H     H_    0.320160 0.455936 0.096896 0.187369
H22   H     H_    0.368774 0.544572 0.011927 0.153276
H23   H     H_    0.320156 0.544249 0.096925 0.187143
H24   H     H_    0.368774 0.455894 0.011897 0.153375
H25   H     H_    0.868755 0.955901 0.489064 0.153703
H26   H     H_    0.820234 0.044342 0.403688 0.186856
H27   H     H_    0.868761 0.044574 0.489098 0.153714
H28   H     H_    0.820221 0.956032 0.403658 0.186500
C33   C     C_3   0.318702 0.470204 0.039436 -0.392265
C34   C     C_3   0.318703 0.530032 0.039457 -0.392686
C35   C     C_3   0.818714 0.970241 0.461114 -0.393079
C36   C     C_3   0.818718 0.030068 0.461136 -0.392659
C37   C     C_3   0.249968 0.449143 0.999553 0.191690
C38   C     C_3   0.249971 0.550853 0.999586 0.192852
C39   C     C_3   0.749945 0.949147 0.500414 0.192384
C40   C     C_3   0.749949 0.050856 0.500447 0.192066
H29   H     H_    0.917197 0.370385 0.929418 0.124290
H30   H     H_    0.878460 0.696813 0.030351 0.137833
H31   H     H_    0.917154 0.628600 0.928633 0.123743
H32   H     H_    0.877710 0.299018 0.028971 0.138999
H33   H     H_    0.414943 0.867448 0.432141 0.123390
H34   H     H_    0.378255 0.191933 0.533350 0.136393
H35   H     H_    0.414230 0.133888 0.433126 0.122075
H36   H     H_    0.379101 0.809075 0.533614 0.136927
C41   C     C_R   0.123882 0.185699 0.733433 -0.140512
C42   C     C_R   0.144673 0.778615 0.288434 -0.130648
C43   C     C_R   0.124062 0.814667 0.733693 -0.140510
C44   C     C_R   0.145836 0.227173 0.290926 -0.138370
C45   C     C_R   0.626197 0.688514 0.230805 -0.120832
C46   C     C_R   0.643996 0.281449 0.786783 -0.140848
C47   C     C_R   0.627697 0.311287 0.229772 -0.120800
C48   C     C_R   0.643498 0.717875 0.786564 -0.140733
C49   C     C_R   0.130889 0.154135 0.672073 -0.148456
C50   C     C_R   0.161957 0.792300 0.360151 -0.144330
C51   C     C_R   0.131049 0.846534 0.672572 -0.148095
C52   C     C_R   0.163103 0.214364 0.362962 -0.154284
C53   C     C_R   0.633600 0.657382 0.169085 -0.150572
C54   C     C_R   0.661341 0.296343 0.857979 -0.144679
C55   C     C_R   0.635366 0.342248 0.167833 -0.151319
C56   C     C_R   0.660661 0.702766 0.857710 -0.144183
C57   C     C_R   0.579174 0.656631 0.115969 -0.159200
C58   C     C_R   0.607953 0.296271 0.911613 -0.145013
C59   C     C_R   0.580783 0.343065 0.114868 -0.159522
C60   C     C_R   0.607334 0.702994 0.911415 -0.145424
C61   C     C_R   0.077246 0.154245 0.618128 -0.155450
C62   C     C_R   0.108152 0.792715 0.413335 -0.148367
C63   C     C_R   0.077278 0.846568 0.618754 -0.154439
C64   C     C_R   0.108699 0.211977 0.415368 -0.144873
C65   C     C_R   0.517323 0.687287 0.124050 -0.146556
C66   C     C_R   0.536845 0.281493 0.894324 -0.141923
C67   C     C_R   0.518508 0.312624 0.123283 -0.144201
C68   C     C_R   0.536475 0.718160 0.894245 -0.143754
C69   C     C_R   0.016212 0.185812 0.625351 -0.148395
C70   C     C_R   0.036777 0.779319 0.395136 -0.140106
C71   C     C_R   0.016162 0.814814 0.625838 -0.147677
C72   C     C_R   0.036899 0.223052 0.396172 -0.137204
C73   C     C_R   0.508382 0.718953 0.186602 0.081242
C74   C     C_R   0.518000 0.265230 0.822572 0.072204
C75   C     C_R   0.509281 0.281170 0.186058 0.078253
C76   C     C_R   0.517830 0.734597 0.822537 0.072123
C77   C     C_R   0.007701 0.218040 0.687389 0.075669
C78   C     C_R   0.017969 0.764051 0.322898 0.075591
C79   C     C_R   0.007674 0.782270 0.687627 0.075426
C80   C     C_R   0.018116 0.237558 0.323571 0.073688
C81   C     C_R   0.062279 0.218048 0.742052 0.075450
C82   C     C_R   0.072726 0.763735 0.268735 0.069193
C83   C     C_R   0.062363 0.782144 0.742191 0.075336
C84   C     C_R   0.073178 0.238775 0.269794 0.080469
C85   C     C_R   0.563345 0.719336 0.240848 0.066836
C86   C     C_R   0.572428 0.265090 0.768052 0.073322
C87   C     C_R   0.564430 0.280717 0.240166 0.065414
C88   C     C_R   0.572183 0.734563 0.767947 0.073219
C89   C     C_R   0.445425 0.749492 0.196442 -0.160603
C90   C     C_R   0.445962 0.250201 0.804076 -0.157029
C91   C     C_R   0.445750 0.251067 0.196459 -0.148355
C92   C     C_R   0.446043 0.749971 0.804141 -0.156208
C93   C     C_R   0.945902 0.249965 0.695894 -0.148906
C94   C     C_R   0.945527 0.750683 0.303490 -0.158168
C95   C     C_R   0.945795 0.750145 0.695977 -0.148288
C96   C     C_R   0.945481 0.249504 0.303585 -0.160148
C97   C     C_R   0.435655 0.779409 0.260355 0.062018
C98   C     C_R   0.427579 0.234837 0.732018 0.074008
C99   C     C_R   0.435764 0.221714 0.260965 0.081891
C100  C     C_R   0.427835 0.765526 0.732130 0.073863
C101  C     C_R   0.937754 0.282033 0.757888 0.077163
C102  C     C_R   0.926775 0.737864 0.230360 0.075145
C103  C     C_R   0.937660 0.717792 0.757758 0.077113
C104  C     C_R   0.926595 0.261279 0.230143 0.074372
C105  C     C_R   0.992320 0.282024 0.812565 0.076044
C106  C     C_R   0.981907 0.736345 0.176645 0.074652
C107  C     C_R   0.992344 0.717675 0.812330 0.075758
C108  C     C_R   0.981679 0.262526 0.176365 0.073291
C109  C     C_R   0.491272 0.780581 0.313892 0.082901
C110  C     C_R   0.481985 0.234748 0.677473 0.072253
C111  C     C_R   0.491802 0.219932 0.313867 0.076603
C112  C     C_R   0.482167 0.765446 0.677520 0.071994
C113  C     C_R   0.054091 0.250069 0.804088 -0.148099
C114  C     C_R   0.054283 0.749710 0.196105 -0.163246
C115  C     C_R   0.054199 0.749826 0.804003 -0.147435
C116  C     C_R   0.054332 0.250547 0.196340 -0.153745
C117  C     C_R   0.554298 0.750179 0.303933 -0.156339
C118  C     C_R   0.554028 0.249788 0.695960 -0.155228
C119  C     C_R   0.555122 0.250038 0.303466 -0.155545
C120  C     C_R   0.553953 0.750045 0.695900 -0.155438
C121  C     C_R   0.371546 0.808623 0.271936 -0.165765
C122  C     C_R   0.356044 0.218369 0.713354 -0.142895
C123  C     C_R   0.370714 0.193938 0.273966 -0.157524
C124  C     C_R   0.356561 0.782333 0.713581 -0.143009
C125  C     C_R   0.876199 0.314434 0.766462 -0.142987
C126  C     C_R   0.854185 0.725531 0.209501 -0.163497
C127  C     C_R   0.875985 0.685243 0.766237 -0.142771
C128  C     C_R   0.853903 0.272880 0.209035 -0.161202
C129  C     C_R   0.364625 0.840295 0.333172 -0.151627
C130  C     C_R   0.338676 0.203476 0.642171 -0.148039
C131  C     C_R   0.363273 0.162323 0.335280 -0.155950
C132  C     C_R   0.339390 0.797470 0.642457 -0.147309
C133  C     C_R   0.869189 0.345979 0.827838 -0.157615
C134  C     C_R   0.837179 0.711240 0.137970 -0.149451
C135  C     C_R   0.868977 0.653417 0.827397 -0.157396
C136  C     C_R   0.836685 0.285927 0.137089 -0.149019
C137  C     C_R   0.922823 0.345861 0.881786 -0.154491
C138  C     C_R   0.891720 0.708423 0.085727 -0.142149
C139  C     C_R   0.922756 0.653372 0.881198 -0.153906
C140  C     C_R   0.891113 0.288307 0.084676 -0.142628
C141  C     C_R   0.420242 0.842514 0.384916 -0.161010
C142  C     C_R   0.392006 0.203666 0.588485 -0.144167
C143  C     C_R   0.419762 0.158811 0.385858 -0.150321
C144  C     C_R   0.392667 0.797137 0.588708 -0.143662
C145  C     C_R   0.983834 0.314272 0.874582 -0.147133
C146  C     C_R   0.963382 0.720541 0.104553 -0.140595
C147  C     C_R   0.983875 0.685118 0.874106 -0.146604
C148  C     C_R   0.962897 0.277091 0.103804 -0.138186
C149  C     C_R   0.482667 0.812580 0.376155 -0.146563
C150  C     C_R   0.463107 0.218509 0.605718 -0.141838
C151  C     C_R   0.483105 0.187845 0.376167 -0.146833
C152  C     C_R   0.463505 0.781885 0.605819 -0.142395
H37   H     H_    0.167032 0.184326 0.773954 0.105835
H38   H     H_    0.188323 0.780260 0.248911 0.141866
H39   H     H_    0.167315 0.815935 0.774121 0.105765
H40   H     H_    0.190343 0.227766 0.252592 0.132480
H41   H     H_    0.669966 0.688069 0.270544 0.149735
H42   H     H_    0.687299 0.283304 0.746865 0.129080
H43   H     H_    0.671572 0.311668 0.269411 0.148278
H44   H     H_    0.686719 0.715919 0.746579 0.128244
H45   H     H_    0.178120 0.129456 0.666421 0.121581
H46   H     H_    0.217234 0.802990 0.374465 0.137798
H47   H     H_    0.178360 0.871339 0.667011 0.121400
H48   H     H_    0.218901 0.205934 0.378102 0.138869
H49   H     H_    0.681702 0.633692 0.162522 0.121416
H50   H     H_    0.716362 0.308293 0.871495 0.136181
H51   H     H_    0.683797 0.365757 0.160989 0.121711
H52   H     H_    0.715487 0.690529 0.871127 0.135904
H53   H     H_    0.584845 0.632143 0.068323 0.124645
H54   H     H_    0.621647 0.308044 0.966756 0.135935
H55   H     H_    0.586648 0.367465 0.067098 0.124553
H56   H     H_    0.620865 0.691043 0.966521 0.135522
H57   H     H_    0.082872 0.129721 0.570496 0.126031
H58   H     H_    0.121644 0.803892 0.468835 0.138860
H59   H     H_    0.082867 0.871355 0.571335 0.125446
H60   H     H_    0.122134 0.201369 0.471116 0.139629
H61   H     H_    0.476448 0.685477 0.081249 0.109026
H62   H     H_    0.497090 0.283331 0.937785 0.130207
H63   H     H_    0.477477 0.314501 0.080650 0.109726
H64   H     H_    0.496745 0.716491 0.937762 0.129555
H65   H     H_    0.975860 0.184558 0.582013 0.109471
H66   H     H_    0.996760 0.781720 0.438281 0.133175
H67   H     H_    0.975721 0.816182 0.582598 0.109409
H68   H     H_    0.996569 0.219466 0.438878 0.132755
H69   H     H_    0.326663 0.807906 0.233359 0.149668
H70   H     H_    0.312786 0.216434 0.753316 0.128438
H71   H     H_    0.325041 0.197032 0.237216 0.101863
H72   H     H_    0.313382 0.784360 0.753607 0.127452
H73   H     H_    0.833076 0.315841 0.725915 0.104194
H74   H     H_    0.809481 0.726822 0.247604 0.136099
H75   H     H_    0.832747 0.683951 0.725795 0.104202
H76   H     H_    0.809285 0.272111 0.247288 0.136461
H77   H     H_    0.821940 0.370627 0.833533 0.119188
H78   H     H_    0.781449 0.702047 0.123125 0.138119
H79   H     H_    0.821618 0.628678 0.833039 0.118903
H80   H     H_    0.780887 0.294554 0.122069 0.139285
H81   H     H_    0.316113 0.863481 0.340218 0.131743
H82   H     H_    0.283678 0.191453 0.628693 0.135258
H83   H     H_    0.313548 0.140498 0.343583 0.119666
H84   H     H_    0.284594 0.809793 0.629082 0.135180
H85   H     H_    0.024180 0.315517 0.917926 0.107608
H86   H     H_    0.003837 0.716916 0.061983 0.126673
H87   H     H_    0.024319 0.683750 0.917342 0.107645
H88   H     H_    0.003241 0.280639 0.061101 0.127867
H89   H     H_    0.524238 0.815212 0.418192 0.105681
H90   H     H_    0.502824 0.216738 0.562213 0.129336
H91   H     H_    0.525190 0.184537 0.417569 0.106424
H92   H     H_    0.503205 0.783495 0.562269 0.128881
H93   H     H_    0.280818 0.048899 0.751115 0.125692
H94   H     H_    0.280483 0.953328 0.750233 0.125374
H95   H     H_    0.812842 0.547817 0.742542 0.128761
H96   H     H_    0.813328 0.452333 0.742464 0.128868
C153  C     C_R   0.211258 0.050782 0.134178 0.550437
C154  C     C_R   0.251137 0.946551 0.137425 0.540538
C155  C     C_R   0.717482 0.554010 0.363939 0.558757
C156  C     C_R   0.718295 0.445813 0.363817 0.558747
C157  C     C_R   0.206458 0.022195 0.199181 -0.307772
C158  C     C_R   0.228908 0.971202 0.201318 -0.303177
C159  C     C_R   0.696952 0.526518 0.301480 -0.304473
C160  C     C_R   0.697356 0.473189 0.301416 -0.305071
C161  C     C_R   0.245705 0.972461 0.068683 -0.108324
C162  C     C_R   0.233844 0.026285 0.067948 -0.100646
C163  C     C_R   0.733533 0.472528 0.430950 -0.106546
C164  C     C_R   0.733191 0.527369 0.431000 -0.106798
C165  C     C_R   0.252574 0.946247 0.001148 -0.127057
C166  C     C_R   0.246915 0.053541 0.001570 -0.115932
C167  C     C_R   0.750487 0.446255 0.497346 -0.127564
C168  C     C_R   0.749972 0.553717 0.497415 -0.127222
C169  C     C_R   0.258839 0.973049 0.934227 0.063608
C170  C     C_R   0.258317 0.027392 0.934718 0.071497
C171  C     C_R   0.767599 0.472890 0.562650 0.065015
C172  C     C_R   0.767332 0.527134 0.562689 0.065467
C173  C     C_R   0.266685 0.946709 0.866670 -0.154481
C174  C     C_R   0.266774 0.054372 0.867633 -0.149440
C175  C     C_R   0.784227 0.446306 0.628705 -0.154166
C176  C     C_R   0.783689 0.553763 0.628791 -0.153437
C177  C     C_R   0.274517 0.973991 0.801373 -0.128912
C178  C     C_R   0.274803 0.027731 0.801884 -0.132549
C179  C     C_R   0.800629 0.473227 0.692693 -0.129006
C180  C     C_R   0.800359 0.526891 0.692736 -0.128931
H97   H     H_    0.187211 0.040236 0.248928 0.174460
H98   H     H_    0.230424 0.950811 0.253089 0.173231
H99   H     H_    0.682201 0.546981 0.251878 0.176501
H100  H     H_    0.682914 0.452657 0.251762 0.176709
O53   O     O_3   0.185748 0.100919 0.134226 -0.582523
C181  C     C_3   0.234735 0.132396 0.173632 -0.318259
H101  H     H_    0.223615 0.129776 0.233231 0.152877
H102  H     H_    0.226360 0.172935 0.156013 0.168627
H103  H     H_    0.292957 0.123022 0.162176 0.143231
O54   O     O_3   0.284031 0.898810 0.143926 -0.636986
C182  C     C_3   0.359711 0.907347 0.152806 -0.293806
H104  H     H_    0.371739 0.924352 0.207466 0.160597
H105  H     H_    0.382647 0.932338 0.108769 0.168491
H106  H     H_    0.388405 0.869912 0.149220 0.212258
O55   O     O_3   0.719550 0.607224 0.358727 -0.617912
C183  C     C_3   0.785781 0.621856 0.325562 -0.352615
H107  H     H_    0.783800 0.614804 0.265580 0.155463
H108  H     H_    0.833811 0.602069 0.350413 0.176038
H109  H     H_    0.793481 0.663762 0.334637 0.177335
O56   O     O_3   0.721260 0.392624 0.358485 -0.618451
C184  C     C_3   0.787539 0.378886 0.324893 -0.352516
H110  H     H_    0.835388 0.398800 0.350150 0.176443
H111  H     H_    0.785449 0.386581 0.265061 0.155205
H112  H     H_    0.795614 0.336935 0.332980 0.176990

loop_
_geom_bond_atom_site_label_1
_geom_bond_atom_site_label_2
_geom_bond_distance
_ccdc_geom_bond_type
C153  C162  1.429460 A    
C87   C119  1.412850 A    
C94   C102  1.417852 A    
C109  C149  1.416677 A    
C164  C168  1.424303 A    
C99   C123  1.411589 A    
C75   C91   1.412748 A    
C169  C170  1.405350 A    
C97   C121  1.415886 A    
O26   C7    1.275912 A    
C73   C89   1.412751 A    
C66   C74   1.418349 A    
C99   C111  1.409157 A    
C4    C90   1.455617 S    
O30   C11   1.277806 A    
C22   C38   1.493208 S    
C153  O53   1.379539 S    
C30   H14   1.113027 S    
C91   C99   1.413816 A    
C136  C140  1.387042 A    
C89   C97   1.413403 A    
H93   C178  1.082710 S    
C131  C143  1.388938 A    
Zn12  O26   1.931002 S    
C110  C118  1.415999 A    
C154  O54   1.380436 S    
C51   C63   1.390133 A    
H34   C142  1.081060 S    
C161  C165  1.414467 A    
C92   C100  1.414820 A    
C43   C51   1.393653 A    
C76   C92   1.415604 A    
C32   C39   1.551217 S    
C29   H5    1.113480 S    
C96   C104  1.417888 A    
C34   C38   1.551218 S    
C44   H40   1.077575 S    
O11   C7    1.276644 A    
C45   H41   1.080534 S    
C42   C82   1.418598 A    
O34   C15   1.278547 A    
C135  H79   1.082431 S    
C55   H51   1.082471 S    
C155  C159  1.394964 A    
C62   C70   1.392265 A    
C41   H37   1.082422 S    
C159  C160  1.379060 A    
C137  C145  1.393860 A    
C98   C122  1.418622 A    
Zn1   O44   1.948936 S    
C25   H1    1.112954 S    
Zn2   O43   1.948933 S    
C108  C116  1.415346 A    
C141  C149  1.393507 A    
Zn5   O48   1.948936 S    
H32   C140  1.082367 S    
Zn6   O47   1.948933 S    
C112  C120  1.415696 A    
Zn7   O46   1.948461 S    
O16   C12   1.274434 A    
C11   C115  1.450626 S    
C182  H104  1.112605 S    
C42   C50   1.392788 A    
C169  C173  1.418158 A    
Zn16  O4    1.955069 S    
Zn12  O4    1.950167 S    
C159  H99   1.083145 S    
C71   H67   1.082342 S    
C98   C110  1.412837 A    
C26   C28   1.536579 S    
C72   H68   1.080878 S    
Zn4   O16   1.938573 S    
C57   H53   1.082296 S    
C104  C128  1.419295 A    
C9    C113  1.450178 S    
C33   C37   1.551313 S    
C6    C96   1.455039 S    
C28   H4    1.113455 S    
C150  H90   1.081204 S    
C125  C133  1.393656 A    
C63   H59   1.082520 S    
C31   H7    1.113480 S    
C64   H60   1.082541 S    
C71   C79   1.416594 A    
C72   C80   1.419917 A    
C14   C118  1.455827 S    
C44   C84   1.418841 A    
C45   C85   1.415760 A    
C30   H6    1.112963 S    
Zn10  O22   1.931002 S    
C105  C113  1.413096 A    
C48   C88   1.418539 A    
C184  H110  1.114895 S    
O25   C8    1.280729 A    
C163  C167  1.423994 A    
C129  C141  1.389385 A    
C13   C117  1.449801 S    
Zn10  O2    1.950167 S    
C31   C40   1.554159 S    
O29   C12   1.279458 A    
C65   H61   1.082302 S    
Zn15  O33   1.937896 S    
C181  H101  1.110692 S    
C171  C172  1.402720 A    
C75   C87   1.411872 A    
C26   H2    1.113457 S    
C147  H87   1.082335 S    
C157  C158  1.382987 A    
C41   C81   1.416907 A    
O55   C183  1.410043 S    
C135  C139  1.390044 A    
O48   C23   1.279785 A    
C130  C142  1.387728 A    
Zn13  O29   1.937896 S    
O53   C181  1.407102 S    
C132  C144  1.387917 A    
C101  C125  1.416913 A    
C156  C160  1.395078 A    
Zn16  O35   1.936537 S    
C77   C93   1.413104 A    
C70   C78   1.419040 A    
C157  H97   1.082687 S    
C82   C114  1.415554 A    
Zn7   O10   1.938531 S    
C123  H71   1.074786 S    
O33   C16   1.276228 A    
C25   C37   1.551234 S    
C86   C118  1.415032 A    
C78   C82   1.412550 A    
O40   C20   1.272318 A    
C52   C64   1.386647 A    
C70   H66   1.080956 S    
C1    C91   1.454380 S    
O56   C184  1.410149 S    
C102  C106  1.412311 A    
H95   C180  1.082479 S    
C80   C96   1.414883 A    
C52   H48   1.081820 S    
H33   C141  1.082278 S    
H31   C139  1.082518 S    
C57   C65   1.394002 A    
C53   H49   1.082458 S    
C25   C27   1.547075 S    
C129  H81   1.082349 S    
C103  C107  1.411685 A    
C67   C75   1.416196 A    
O28   C5    1.277751 A    
C17   C166  1.442122 S    
C61   H57   1.082561 S    
C65   C73   1.416654 A    
C183  H107  1.111628 S    
H96   C179  1.082537 S    
C27   H3    1.112953 S    
C32   H8    1.112964 S    
Zn8   O3    1.948229 S    
C21   C37   1.493143 S    
C184  H112  1.105044 S    
O38   C18   1.266752 A    
C145  H85   1.082328 S    
H22   C34   1.113029 S    
O5    C1    1.276662 A    
C47   C55   1.393292 A    
O32   C9    1.275968 A    
C151  H91   1.082327 S    
H25   C35   1.113043 S    
C152  H92   1.081221 S    
H26   C36   1.112957 S    
C36   C40   1.551234 S    
Zn15  O51   1.950473 S    
C111  C151  1.417520 A    
Zn11  O28   1.930202 S    
C182  H105  1.114643 S    
C121  H69   1.081902 S    
H23   C34   1.112963 S    
C42   H38   1.080795 S    
C29   C39   1.554383 S    
H28   C35   1.112953 S    
O8    C4    1.278847 A    
C63   C71   1.393914 A    
C33   C34   1.547088 S    
C64   C72   1.391984 A    
C49   C61   1.390125 A    
H20   C176  1.081984 S    
O37   C17   1.280573 A    
C107  C115  1.413144 A    
C100  C112  1.412733 A    
Zn1   O1    1.947287 S    
C122  C130  1.392280 A    
C133  C137  1.390059 A    
Zn2   O14   1.940317 S    
C15   C119  1.447532 S    
C58   H54   1.081236 S    
C68   C76   1.418269 A    
C167  C171  1.411980 A    
H29   C137  1.082545 S    
O9    C5    1.278661 A    
C43   H39   1.082425 S    
O36   C13   1.276751 A    
C60   C68   1.393094 A    
O13   C9    1.276427 A    
Zn1   O8    1.940273 S    
C2    C92   1.455313 S    
O54   C182  1.413540 S    
Zn2   O7    1.932367 S    
C165  C169  1.410156 A    
Zn3   O6    1.938531 S    
O18   C14   1.278715 A    
O31   C10   1.278178 A    
C106  C146  1.419238 A    
C183  H109  1.104935 S    
C25   H9    1.113044 S    
H94   C177  1.082696 S    
C110  C150  1.418363 A    
C93   C101  1.412816 A    
C32   H16   1.113030 S    
H18   C174  1.082285 S    
Zn14  O30   1.930454 S    
C59   H55   1.082279 S    
Zn15  O3    1.949865 S    
C74   C90   1.415868 A    
Zn11  O3    1.955370 S    
O41   C21   1.279589 A    
C56   C60   1.387978 A    
C66   H62   1.081166 S    
Zn16  O34   1.930454 S    
C31   H15   1.113456 S    
C74   C86   1.412821 A    
C3    C89   1.450723 S    
Zn2   O2    1.947285 S    
O15   C11   1.278449 A    
C90   C98   1.414829 A    
Zn8   O20   1.938573 S    
O10   C6    1.274032 A    
C109  C117  1.412064 A    
C162  C166  1.423231 A    
C108  C148  1.419649 A    
C59   C67   1.394172 A    
C47   H43   1.080694 S    
C48   H44   1.081264 S    
C84   C116  1.417894 A    
C69   C77   1.416642 A    
C112  C152  1.418232 A    
Zn8   O9    1.933725 S    
C24   C40   1.493145 S    
C131  H83   1.082208 S    
C132  H84   1.082179 S    
C133  H77   1.082453 S    
C156  O56   1.380142 S    
C7    C93   1.450121 S    
C56   H52   1.082203 S    
C154  C158  1.393294 A    
C138  C146  1.392226 A    
O7    C3    1.274319 A    
C88   C120  1.415016 A    
C95   C103  1.412839 A    
C16   C120  1.455520 S    
O19   C15   1.276031 A    
Zn13  O49   1.950473 S    
C142  C150  1.393223 A    
C181  H103  1.116152 S    
C43   C83   1.416877 A    
O44   C21   1.276777 A    
C26   H10   1.113482 S    
Zn9   O24   1.930202 S    
Zn6   O18   1.940317 S    
Zn10  O23   1.937646 S    
C49   H45   1.082608 S    
O50   C18   1.277412 A    
C79   C83   1.411660 A    
C170  C174  1.418919 A    
H19   C175  1.081967 S    
C58   C66   1.393117 A    
C130  H82   1.082204 S    
Zn15  O36   1.931254 S    
C181  H102  1.107416 S    
O42   C22   1.276613 A    
C97   C109  1.410982 A    
C28   C37   1.554160 S    
C46   H42   1.081177 S    
Zn4   O1    1.948229 S    
C30   C32   1.547106 S    
Zn9   O37   1.947819 S    
C35   C36   1.547059 S    
O12   C8    1.276315 A    
C53   C57   1.389810 A    
Zn11  O39   1.947819 S    
C146  H86   1.081172 S    
C46   C54   1.392399 A    
C60   H56   1.081355 S    
C176  C180  1.392621 A    
H21   C33   1.112966 S    
Zn5   O3    1.947287 S    
Zn13  O1    1.949865 S    
Zn6   O4    1.947285 S    
C54   H50   1.082213 S    
C121  C129  1.393361 A    
C139  C147  1.393854 A    
C163  C164  1.418152 A    
C8    C94   1.456619 S    
H17   C173  1.082397 S    
C10   C114  1.454907 S    
C136  H80   1.082321 S    
C160  H100  1.083148 S    
H35   C143  1.082274 S    
H24   C33   1.113027 S    
C27   C38   1.551153 S    
C161  C162  1.409361 A    
Zn3   O42   1.948461 S    
C153  C157  1.401610 A    
C23   C39   1.493203 S    
Zn7   O4    1.948231 S    
O21   C4    1.277198 A    
C50   C62   1.387520 A    
C44   C52   1.392732 A    
C45   C53   1.393235 A    
C173  C177  1.393460 A    
C105  C145  1.416608 A    
C143  C151  1.393178 A    
C175  C179  1.392586 A    
C179  C180  1.387715 A    
C48   C56   1.392460 A    
C102  C126  1.418904 A    
Zn14  O2    1.955069 S    
C78   C94   1.415760 A    
C172  C176  1.421307 A    
C183  H108  1.115011 S    
C158  H98   1.083097 S    
C83   C115  1.412818 A    
C177  C178  1.389701 A    
C28   H12   1.113482 S    
C81   C113  1.412802 A    
Zn12  O27   1.937646 S    
C35   C39   1.551152 S    
C184  H111  1.111703 S    
C20   C167  1.438753 S    
C85   C117  1.412628 A    
C46   C86   1.418637 A    
C61   C69   1.393908 A    
C30   C40   1.551317 S    
Zn3   O2    1.948231 S    
C127  C135  1.393632 A    
C156  C163  1.434366 A    
H27   C36   1.113044 S    
C26   C38   1.554384 S    
O46   C24   1.279590 A    
O47   C24   1.276780 A    
Zn16  O52   1.947861 S    
C100  C124  1.418514 A    
H30   C138  1.082246 S    
C104  C108  1.412143 A    
Zn8   O45   1.948463 S    
C41   C49   1.393692 A    
O27   C6    1.279636 A    
C47   C87   1.415449 A    
O39   C19   1.272283 A    
C18   C165  1.438877 S    
C67   H63   1.082306 S    
Zn1   O13   1.932410 S    
C29   C31   1.536579 S    
C148  H88   1.080922 S    
C73   C85   1.411159 A    
O24   C1    1.281665 A    
C149  H89   1.082323 S    
C155  O55   1.379717 S    
C76   C88   1.412729 A    
C77   C81   1.411487 A    
C174  C178  1.393680 A    
C79   C95   1.413159 A    
C80   C84   1.411827 A    
C154  C161  1.426608 A    
Zn5   O17   1.932410 S    
O43   C22   1.279789 A    
O14   C10   1.277323 A    
Zn4   O41   1.948463 S    
Zn3   O15   1.933769 S    
C127  H75   1.082410 S    
C128  H76   1.078221 S    
Zn5   O12   1.940273 S    
Zn6   O11   1.932367 S    
C101  C105  1.411517 A    
Zn9   O21   1.936287 S    
Zn14  O50   1.947861 S    
C124  H72   1.081290 S    
C125  H73   1.082411 S    
O35   C14   1.277279 A    
Zn12  O40   1.950430 S    
C134  H78   1.082280 S    
Zn9   O1    1.955370 S    
H36   C144  1.081175 S    
O52   C20   1.272235 A    
C55   C59   1.390049 A    
C126  C134  1.392543 A    
C29   H13   1.113460 S    
O22   C3    1.278607 A    
C140  C148  1.392160 A    
Zn7   O19   1.933769 S    
C168  C172  1.412129 A    
C50   H46   1.081242 S    
C111  C119  1.409612 A    
C12   C116  1.455823 S    
Zn13  O32   1.931254 S    
C144  C152  1.393145 A    
O49   C17   1.266250 A    
Zn14  O31   1.936537 S    
C123  C131  1.393460 A    
C134  C138  1.387246 A    
O51   C19   1.272519 A    
C106  C114  1.414859 A    
C126  H74   1.078095 S    
C27   H11   1.113044 S    
C171  C175  1.421286 A    
Zn4   O5    1.933725 S    
C103  C127  1.416886 A    
O20   C16   1.277084 A    
C5    C95   1.450571 S    
C122  H70   1.081207 S    
O23   C2    1.276122 A    
O6    C2    1.277246 A    
Zn11  O25   1.936287 S    
Zn10  O38   1.950430 S    
C124  C132  1.392332 A    
C54   C58   1.387815 A    
C68   H64   1.081205 S    
C19   C168  1.439211 S    
C182  H106  1.105202 S    
C69   H65   1.082327 S    
C155  C164  1.434179 A    
C166  C170  1.413023 A    
C128  C136  1.392464 A    
C107  C147  1.416565 A    
O17   C13   1.275353 A    
C62   H58   1.082268 S    
C51   H47   1.082606 S    
O45   C23   1.276613 A    
