data_mof_unit_20700.cif
_audit_creation_date              2012-10-26T19:24:19-0400
_audit_creation_method            fapswitch 2.2
_symmetry_space_group_name_H-M    P1
_symmetry_Int_Tables_number       1
_space_group_crystal_system       triclinic
_cell_length_a                    27.771541
_cell_length_b                    10.790094
_cell_length_c                    9.613887
_cell_angle_alpha                 89.129557
_cell_angle_beta                  89.902319
_cell_angle_gamma                 91.701435
_cell_volume                      2879.26458103

loop_
_atom_site_label
_atom_site_type_symbol
_atom_type_description
_atom_site_fract_x
_atom_site_fract_y
_atom_site_fract_z
_atom_type_partial_charge
C1    C     C_R   0.499675 0.262786 0.501231 0.534183
C2    C     C_R   0.972384 0.350452 0.501640 0.018005
C3    C     C_R   0.975622 0.572969 0.558538 0.018218
C4    C     C_R   0.407587 0.492530 0.500383 0.591183
C5    C     C_R   0.948714 0.462176 0.530436 0.034052
C6    C     C_R   0.943836 0.244611 0.466721 -0.141363
C7    C     C_R   0.893841 0.247831 0.463556 -0.111961
C8    C     C_R   0.870226 0.356310 0.495640 0.025294
C9    C     C_R   0.897530 0.463421 0.530312 -0.027135
C10   C     C_R   0.873542 0.572072 0.564083 0.027543
C11   C     C_R   0.823025 0.571922 0.561803 0.398237
C12   C     C_R   0.279239 0.473528 0.630384 -0.074664
C13   C     C_R   0.819713 0.360905 0.491392 0.404136
C14   C     C_R   0.716034 0.396495 0.599261 -0.075706
C15   C     C_R   0.666067 0.405257 0.593199 -0.192460
C16   C     C_R   0.498003 0.737284 0.498654 0.592305
C17   C     C_R   0.674593 0.570746 0.419880 0.253055
C18   C     C_R   0.724609 0.558235 0.422816 -0.034974
C19   C     C_R   0.745572 0.472870 0.513909 0.188416
C20   C     C_R   0.023542 0.348598 0.506718 0.018336
C21   C     C_R   0.050384 0.461253 0.525466 0.033706
C22   C     C_R   0.026655 0.574056 0.548054 0.018359
C23   C     C_R   0.253451 0.462760 0.506054 0.261192
C24   C     C_R   0.049050 0.237670 0.493854 -0.141938
C25   C     C_R   0.104901 0.684062 0.549825 -0.114287
C26   C     C_R   0.950328 0.679206 0.596757 -0.142613
C27   C     C_R   0.900335 0.678494 0.599430 -0.112419
C28   C     C_R   0.592317 0.499178 0.500248 0.555119
C29   C     C_R   0.054976 0.684854 0.557236 -0.141978
C30   C     C_R   0.419679 0.123540 0.631717 -0.133753
C31   C     C_R   0.379159 0.056911 0.679880 -0.173091
C32   C     C_R   0.373878 0.931194 0.652641 -0.089080
C33   C     C_R   0.410002 0.870174 0.581294 0.289408
C34   C     C_R   0.101558 0.461228 0.521137 -0.027543
C35   C     C_R   0.454508 0.932626 0.550361 0.028848
C36   C     C_R   0.457617 0.062833 0.564895 -0.016925
C37   C     C_R   0.497262 0.128963 0.504399 0.012152
C38   C     C_R   0.534006 0.067172 0.437832 -0.147378
C39   C     C_R   0.533119 0.939144 0.435554 -0.177269
C40   C     C_R   0.176379 0.351652 0.501222 0.389354
C41   C     C_R   0.494487 0.871333 0.494262 0.010078
C42   C     C_R   0.562298 0.666731 0.140397 -0.054316
C43   C     C_R   0.592407 0.749142 0.066672 -0.131742
C44   C     C_R   0.593007 0.747880 0.923594 -0.166589
C45   C     C_R   0.125780 0.349511 0.504736 0.023526
C46   C     C_R   0.563151 0.665082 0.853154 -0.080467
C47   C     C_R   0.530916 0.581305 0.923680 0.159209
C48   C     C_R   0.530716 0.581662 0.073106 0.147106
C49   C     C_R   0.470595 0.422687 0.075303 -0.002725
C50   C     C_R   0.470575 0.422801 0.927512 -0.002121
C51   C     C_R   0.179080 0.571230 0.526676 0.391563
C52   C     C_R   0.278197 0.459253 0.378052 0.043203
C53   C     C_R   0.328696 0.466700 0.377250 -0.144154
C54   C     C_R   0.329327 0.482402 0.628580 -0.139661
C55   C     C_3   0.251061 0.450932 0.242999 -0.374320
C56   C     C_R   0.099117 0.238381 0.493046 -0.115234
C57   C     C_3   0.657830 0.774308 0.415044 -0.137976
C58   C     C_3   0.377951 0.782244 0.390161 -0.103318
C59   C     C_R   0.128628 0.573002 0.533057 0.023389
C60   C     C_R   0.354532 0.480376 0.501960 0.006053
C61   C     C_R   0.644959 0.491238 0.502677 0.019279
Cu1   Cu    Cu3+1 0.500000 0.499990 0.640660 0.942022
Cu2   Cu    Cu3+1 0.500000 0.500010 0.359340 0.944137
H1    H     H_    0.348235 0.492088 0.726415 0.131127
H2    H     H_    0.260241 0.476837 0.728664 0.120631
H3    H     H_    0.340325 0.882535 0.678673 0.145240
H4    H     H_    0.562780 0.892481 0.388171 0.100740
H5    H     H_    0.446446 0.359263 0.131497 0.114910
H6    H     H_    0.565512 0.673562 0.249731 0.208039
H7    H     H_    0.615772 0.814063 0.120895 0.144887
H8    H     H_    0.616937 0.811346 0.866388 0.125936
H9    H     H_    0.567150 0.671528 0.743659 0.178679
H10   H     H_    0.446421 0.359459 0.873613 0.105520
H11   H     H_    0.116874 0.150931 0.482588 0.163614
H12   H     H_    0.124873 0.771511 0.557193 0.165967
H13   H     H_    0.643785 0.344821 0.659295 0.137110
H14   H     H_    0.731820 0.331087 0.671137 0.154046
H15   H     H_    0.873726 0.164451 0.435197 0.166940
H16   H     H_    0.959017 0.158123 0.437337 0.109126
H17   H     H_    0.031403 0.147758 0.486964 0.106080
H18   H     H_    0.347807 0.464030 0.279043 0.116235
H19   H     H_    0.275806 0.453407 0.152033 0.107823
H20   H     H_    0.229417 0.362906 0.240324 0.170507
H21   H     H_    0.226655 0.530208 0.232777 0.150498
H22   H     H_    0.695448 0.799010 0.446457 0.154074
H23   H     H_    0.968106 0.764321 0.628046 0.108720
H24   H     H_    0.633911 0.767972 0.508096 0.105185
H25   H     H_    0.645482 0.851342 0.347951 0.123380
H26   H     H_    0.373565 0.694716 0.332758 0.149761
H27   H     H_    0.401534 0.844781 0.324455 0.112624
H28   H     H_    0.341631 0.821837 0.401357 0.134373
H29   H     H_    0.882745 0.762615 0.628466 0.166138
H30   H     H_    0.747315 0.618232 0.357466 0.149089
H31   H     H_    0.039650 0.774871 0.566553 0.106562
H32   H     H_    0.564078 0.118418 0.390325 0.128860
H33   H     H_    0.420329 0.222682 0.645783 0.136674
H34   H     H_    0.350454 0.104478 0.731112 0.130944
N1    N     N_R   0.201802 0.461666 0.510706 -0.397598
N2    N     N_R   0.797156 0.467960 0.523474 -0.392372
N3    N     N_R   0.500460 0.501210 0.147910 -0.249116
N4    N     N_R   0.500480 0.501290 0.852040 -0.242864
O1    O     O_R   0.500000 0.319640 0.618810 -0.511864
O2    O     O_R   0.569730 0.499970 0.618800 -0.532872
O3    O     O_R   0.569740 0.499990 0.381230 -0.486510
O4    O     O_2   0.200006 0.244903 0.488486 -0.505046
O5    O     O_3   0.655142 0.663360 0.339110 -0.583774
O6    O     O_3   0.398446 0.757715 0.522108 -0.562219
O7    O     O_2   0.793430 0.259802 0.453506 -0.500359
O8    O     O_2   0.205303 0.678124 0.536050 -0.502605
O9    O     O_2   0.799891 0.674962 0.597887 -0.511104
O10   O     O_R   0.500000 0.319660 0.381240 -0.502800
O11   O     O_R   0.430260 0.500010 0.618770 -0.487211
O12   O     O_R   0.430270 0.500030 0.381200 -0.508162
O13   O     O_R   0.500000 0.680340 0.618760 -0.502903
O14   O     O_R   0.500000 0.680360 0.381190 -0.522168

loop_
_geom_bond_atom_site_label_1
_geom_bond_atom_site_label_2
_ccdc_geom_bond_type
C10   C27   A    
C8    C13   A    
C47   N4    A    
C49   H5    S    
C35   C36   A    
C33   O6    S    
C23   C52   A    
C7    C8    A    
C39   C41   A    
C54   C60   A    
C12   C23   A    
C26   C27   A    
C37   C38   A    
C11   N2    A    
C36   C37   A    
C22   C29   A    
C18   C19   A    
C40   N1    A    
C30   C31   A    
C31   C32   A    
C44   H8    S    
C53   H18   S    
C58   O6    S    
C14   H14   S    
C30   H33   S    
C17   C61   A    
C24   H17   S    
C20   C24   A    
C45   C56   A    
C57   H22   S    
C8    C9    A    
C38   H32   S    
C58   H28   S    
C46   H9    S    
C52   C55   S    
C1    C37   S    
Cu1   N4    S    
Cu2   O14   S    
C28   C61   S    
C51   N1    A    
C15   H13   S    
C4    O11   A    
C51   O8    S    
C21   C22   A    
C11   O9    S    
C2    C6    A    
C13   O7    S    
C53   C60   A    
C44   C46   A    
C25   C29   A    
C40   C45   A    
C48   N3    A    
C56   H11   S    
C2    C20   A    
C4    O12   A    
C50   H10   S    
C19   N2    S    
C21   C34   A    
Cu2   N3    S    
C42   H6    S    
C57   H24   S    
C25   H12   S    
C13   N2    A    
C43   C44   A    
C5    C9    A    
Cu1   Cu2   S    
C28   O3    A    
C47   C48   A    
C26   H23   S    
C4    C60   S    
C17   C18   A    
C15   C61   A    
C27   H29   S    
C34   C45   A    
C42   C48   A    
C55   H19   S    
C58   H27   S    
C7    H15   S    
C43   H7    S    
C34   C59   A    
C2    C5    A    
C51   C59   A    
C42   C43   A    
C55   H20   S    
C16   O14   A    
C52   C53   A    
C32   H3    S    
Cu1   O2    S    
C9    C10   A    
C46   C47   A    
C39   H4    S    
C14   C19   A    
C3    C26   A    
Cu2   O3    S    
C3    C5    A    
C16   O13   A    
Cu1   O13   S    
C6    C7    A    
C24   C56   A    
C12   H2    S    
C57   H25   S    
C30   C36   A    
C32   C33   A    
C17   O5    S    
C1    O10   A    
C49   N3    A    
C28   O2    A    
C6    H16   S    
C38   C39   A    
C54   H1    S    
C1    O1    A    
C33   C35   A    
C29   H31   S    
C57   O5    S    
C31   H34   S    
Cu2   O10   S    
C35   C41   A    
C58   H26   S    
C10   C11   A    
Cu2   O12   S    
C23   N1    S    
Cu1   O11   S    
C20   C21   A    
C50   N4    A    
C49   C50   A    
C18   H30   S    
C14   C15   A    
C3    C22   A    
C25   C59   A    
C55   H21   S    
C16   C41   S    
C12   C54   A    
C40   O4    S    
Cu1   O1    S    
