data_mof_unit_10097.cif
_audit_creation_date              2013-03-05T16:48:29-0500
_audit_creation_method            fapswitch 2.2
_symmetry_space_group_name_H-M    P1
_symmetry_Int_Tables_number       1
_space_group_crystal_system       triclinic
_cell_length_a                    10.873545
_cell_length_b                    14.659418
_cell_length_c                    14.672532
_cell_angle_alpha                 65.340667
_cell_angle_beta                  102.880283
_cell_angle_gamma                 102.285924
_cell_volume                      2053.00236527

loop_
_atom_site_label
_atom_site_type_symbol
_atom_site_description
_atom_site_fract_x
_atom_site_fract_y
_atom_site_fract_z
_atom_type_partial_charge
O1    O     O_R   0.455540 0.022090 0.338120 -0.586248
O2    O     O_R   0.544460 0.977910 0.661880 -0.596387
O3    O     O_R   0.512510 0.160150 0.379180 -0.598407
O4    O     O_R   0.487490 0.839850 0.620820 -0.593890
C1    C     C_R   0.473899 0.119695 0.312448 0.851617
C2    C     C_R   0.521614 0.880266 0.687819 0.841522
O5    O     O_R   0.291160 0.930970 0.479480 -0.592014
O6    O     O_R   0.708840 0.069030 0.520520 -0.587594
O7    O     O_R   0.348130 0.069020 0.520540 -0.586315
O8    O     O_R   0.651870 0.930980 0.479460 -0.584341
C3    C     C_R   0.262883 0.000571 0.501184 0.847717
C4    C     C_R   0.737208 0.999542 0.498672 0.829342
Cu1   Cu    Cu3+1 0.466270 0.918260 0.475690 0.966720
Cu2   Cu    Cu3+1 0.533730 0.081740 0.524310 0.960914
H1    H     H_    0.367249 0.301788 0.729261 0.160546
H2    H     H_    0.602024 0.727370 0.252044 0.156453
C5    C     C_R   0.313350 0.145175 0.747511 0.214657
C6    C     C_R   0.673465 0.878995 0.244977 0.223060
C7    C     C_R   0.243177 0.077506 0.702299 0.346483
C8    C     C_R   0.755168 0.937579 0.296537 0.317988
C9    C     C_R   0.179455 0.117849 0.601062 -0.038977
C10   C     C_R   0.820979 0.887428 0.394716 -0.022249
C11   C     C_R   0.183841 0.223305 0.549316 -0.201272
C12   C     C_R   0.809597 0.781360 0.437665 -0.201826
H3    H     H_    0.132882 0.254968 0.473050 0.185971
H4    H     H_    0.861915 0.742491 0.511692 0.182088
C13   C     C_R   0.249023 0.288575 0.596337 -0.171333
C14   C     C_R   0.732239 0.724733 0.385324 -0.193798
H5    H     H_    0.248940 0.369484 0.556430 0.174935
H6    H     H_    0.726035 0.643031 0.418185 0.173025
C15   C     C_R   0.314382 0.249999 0.694510 -0.234052
C16   C     C_R   0.662720 0.772926 0.290794 -0.174739
C17   C     C_R   0.962083 0.050493 0.549152 -0.211677
C18   C     C_R   0.038501 0.945967 0.455391 -0.187047
H7    H     H_    0.933137 0.090854 0.586548 0.158255
H8    H     H_    0.067157 0.906055 0.417394 0.155895
C19   C     C_R   0.870652 0.997342 0.498991 -0.061335
C20   C     C_R   0.129877 0.001003 0.503478 -0.037507
C21   C     C_R   0.909557 0.944058 0.451591 0.080374
C22   C     C_R   0.091287 0.053511 0.551968 0.080214
C23   C     C_R   0.443536 0.187714 0.206000 -0.002726
C24   C     C_R   0.532596 0.812532 0.795631 -0.024788
C25   C     C_R   0.328600 0.220729 0.036544 -0.172862
C26   C     C_R   0.605187 0.781725 0.972834 -0.143176
C27   C     C_R   0.364606 0.152523 0.134717 -0.148550
C28   C     C_R   0.592922 0.848206 0.871507 -0.156758
C29   C     C_R   0.485354 0.291320 0.178366 -0.201163
C30   C     C_R   0.483848 0.709889 0.822183 -0.192614
C31   C     C_R   0.444448 0.362143 0.081783 0.096672
C32   C     C_R   0.494764 0.641024 0.923942 0.098291
C33   C     C_R   0.368714 0.324992 0.009313 0.165674
C34   C     C_R   0.558538 0.678517 0.999425 0.164491
C35   C     C_R   0.478202 0.468398 0.055130 0.081241
C36   C     C_R   0.448717 0.535692 0.952407 0.080184
C37   C     C_R   0.373404 0.495401 0.882154 -0.170621
C38   C     C_R   0.537963 0.509558 0.128319 -0.162521
C39   C     C_R   0.333051 0.392170 0.910738 -0.188574
C40   C     C_R   0.577058 0.612562 0.100633 -0.162830
H9    H     H_    0.274450 0.364641 0.854814 0.143682
H10   H     H_    0.624958 0.640348 0.158901 0.132732
H11   H     H_    0.441303 0.685016 0.761470 0.145655
H12   H     H_    0.551392 0.314711 0.233663 0.151387
H13   H     H_    0.633909 0.926663 0.852502 0.139426
H14   H     H_    0.328430 0.072941 0.155360 0.139222
H15   H     H_    0.267113 0.192218 0.982433 0.135292
H16   H     H_    0.653713 0.810607 0.030377 0.155333
H17   H     H_    0.340216 0.541827 0.804794 0.147998
H18   H     H_    0.553481 0.464393 0.208538 0.135104
N1    N     N_R   0.584450 0.204570 0.560790 -0.183090
N2    N     N_R   0.415550 0.795430 0.439210 -0.181655
C41   C     C_R   0.715262 0.284686 0.666999 -0.274332
C42   C     C_R   0.292748 0.718806 0.327356 -0.268589
C43   C     C_R   0.682890 0.203979 0.636018 0.043192
C44   C     C_R   0.321967 0.798212 0.360209 0.050258
C45   C     C_R   0.519410 0.285522 0.509858 0.059190
C46   C     C_R   0.478968 0.713705 0.491558 0.060548
C47   C     C_R   0.550131 0.371848 0.535564 -0.024596
C48   C     C_R   0.451777 0.628735 0.463684 -0.029815
C49   C     C_R   0.645292 0.367275 0.620582 0.031130
C50   C     C_R   0.360614 0.635022 0.375948 0.026973
C51   C     C_R   0.488044 0.460599 0.481351 0.000029
C52   C     C_R   0.514632 0.540228 0.517648 -0.004600
C53   C     C_R   0.603135 0.528910 0.606839 -0.298247
C54   C     C_R   0.402643 0.473011 0.390552 -0.308020
C55   C     C_R   0.668909 0.445113 0.657274 0.324524
C56   C     C_R   0.339362 0.557990 0.338298 0.318622
H19   H     H_    0.553066 0.718876 0.552079 0.127054
H20   H     H_    0.441611 0.279039 0.452053 0.127702
H21   H     H_    0.271954 0.863700 0.320865 0.124178
H22   H     H_    0.734573 0.139343 0.673773 0.128866
H23   H     H_    0.793857 0.280980 0.727822 0.196094
H24   H     H_    0.217882 0.724262 0.263644 0.199105
H25   H     H_    0.622304 0.583586 0.641124 0.171936
H26   H     H_    0.386098 0.418956 0.355636 0.169677
N3    N     N_R   0.755568 0.438655 0.748748 0.117522
O9    O     O_R   0.831594 0.518729 0.753297 -0.339493
O10   O     O_R   0.742330 0.359231 0.832217 -0.354174
N4    N     N_R   0.257918 0.566441 0.244146 0.118202
O11   O     O_R   0.182247 0.487439 0.236424 -0.334270
O12   O     O_R   0.276835 0.646086 0.161948 -0.356650
N5    N     N_2   0.385358 0.107750 0.845919 -0.398978
H27   H     H_    0.381187 0.145960 0.890056 0.250470
C57   C     C_3   0.515058 0.099696 0.844943 -0.608068
H28   H     H_    0.571009 0.176228 0.819051 0.240787
H29   H     H_    0.517836 0.061842 0.793987 0.238322
H30   H     H_    0.559159 0.054466 0.922459 0.227541
N6    N     N_2   0.609435 0.924924 0.144316 -0.452814
H31   H     H_    0.646952 0.997660 0.102557 0.292670
C58   C     C_3   0.471973 0.908983 0.134016 -0.594879
H32   H     H_    0.430641 0.948969 0.053817 0.255337
H33   H     H_    0.440642 0.938756 0.182092 0.228305
H34   H     H_    0.435475 0.827157 0.156304 0.256695
N7    N     N_R   0.231618 0.969847 0.761236 0.123346
O13   O     O_R   0.222133 0.934410 0.857170 -0.316212
O14   O     O_R   0.233037 0.906487 0.720644 -0.381752
N8    N     N_R   0.772867 0.046415 0.249581 0.096218
O15   O     O_R   0.886802 0.096981 0.249076 -0.348823
O16   O     O_R   0.675300 0.095670 0.207510 -0.377404

loop_
_geom_bond_atom_site_label_1
_geom_bond_atom_site_label_2
_geom_bond_distance
_ccdc_geom_bond_type
N5    H27   1.030435 S    
C13   H5    1.081818 S    
C26   H16   1.084011 S    
N3    O9    1.301355 A    
C29   H12   1.076617 S    
C41   C49   1.407644 A    
C51   C52   1.426999 A    
C29   C31   1.404198 A    
C35   C36   1.423418 A    
O5    C3    1.298174 A    
C32   C36   1.426704 A    
O1    C1    1.300479 A    
C44   H21   1.081851 S    
C7    C9    1.420837 A    
C46   C48   1.421505 A    
C43   H22   1.081817 S    
C58   H33   1.109722 S    
C42   H24   1.081204 S    
C48   C50   1.421006 A    
C39   H9    1.084419 S    
Cu1   N2    2.020612 S    
C7    N7    1.442079 S    
C40   H10   1.081617 S    
C53   H25   1.075877 S    
O4    Cu1   1.939149 S    
N8    O15   1.301163 A    
C24   C28   1.399078 A    
C4    C19   1.457140 S    
C5    N5    1.420082 S    
C6    N6    1.425034 S    
C50   C56   1.409370 A    
C17   H7    1.085061 S    
C38   C40   1.384818 A    
C31   C33   1.416807 A    
N2    C44   1.353920 A    
C32   C34   1.418759 A    
N6    H31   1.029527 S    
N1    C43   1.354023 A    
C33   C39   1.391414 A    
C11   C13   1.392138 A    
C18   H8    1.085112 S    
C25   H15   1.083213 S    
C26   C34   1.402740 A    
C30   C32   1.405956 A    
N5    C57   1.443739 S    
Cu1   Cu2   2.689881 S    
N6    C58   1.446265 S    
O2    C2    1.300658 A    
O2    Cu2   1.952331 S    
O8    C4    1.293672 A    
C26   C28   1.391330 A    
C47   C49   1.419693 A    
C17   C22   1.388021 A    
C13   C15   1.390923 A    
C18   C21   1.385448 A    
C14   C16   1.391567 A    
C42   C44   1.389548 A    
C58   H34   1.109606 S    
C8    N8    1.438208 S    
C54   H26   1.076915 S    
C38   H18   1.077463 S    
C17   C19   1.399924 A    
C3    C20   1.455535 S    
O7    Cu2   1.977211 S    
O7    C3    1.292801 A    
C48   C52   1.433994 A    
C47   C51   1.432494 A    
O6    C4    1.298407 A    
C23   C29   1.397273 A    
C41   H23   1.081210 S    
C57   H29   1.109614 S    
C24   C30   1.400107 A    
C25   C27   1.393297 A    
C45   C47   1.420384 A    
C46   H19   1.074539 S    
O3    Cu2   1.939149 S    
C34   C40   1.389965 A    
O4    C2    1.298036 A    
C53   C55   1.395539 A    
C8    C10   1.417149 A    
C52   C53   1.411213 A    
N4    O12   1.301322 A    
C37   C39   1.388653 A    
N2    C46   1.359544 A    
C5    C15   1.401994 A    
Cu2   N1    2.020612 S    
C10   C12   1.401927 A    
C6    C16   1.403134 A    
C49   C55   1.408562 A    
C51   C54   1.410105 A    
C41   C43   1.389423 A    
N7    O13   1.301377 A    
C35   C38   1.415000 A    
C1    C23   1.467419 S    
C36   C37   1.416991 A    
O6    Cu2   1.967261 S    
C18   C20   1.399012 A    
C12   C14   1.390409 A    
C54   C56   1.394913 A    
O3    C1    1.296908 A    
O8    Cu1   1.977211 S    
C37   H17   1.076613 S    
N3    O10   1.301405 A    
H1    C15   1.083254 S    
H2    C16   1.080179 S    
C27   H14   1.081871 S    
C28   H13   1.081129 S    
C9    C11   1.404978 A    
C19   C21   1.413463 A    
C58   H32   1.109512 S    
C20   C22   1.415035 A    
C55   N3    1.437486 S    
C12   H4    1.083557 S    
C25   C33   1.403706 A    
C30   H11   1.075192 S    
C9    C22   1.483823 S    
C31   C35   1.423473 A    
C10   C21   1.480771 S    
C14   H6    1.081551 S    
C5    C7    1.416911 A    
N8    O16   1.300008 A    
N1    C45   1.359573 A    
C57   H30   1.107268 S    
C6    C8    1.420179 A    
C11   H3    1.083649 S    
C56   N4    1.437521 S    
C45   H20   1.075732 S    
O5    Cu1   1.967260 S    
O1    Cu1   1.952330 S    
C42   C50   1.407792 A    
N4    O11   1.301349 A    
C2    C24   1.469052 S    
C57   H28   1.109077 S    
C23   C27   1.399368 A    
N7    O14   1.299812 A    
