data_mof_unit_34885.cif
_audit_creation_date              2012-12-11T15:11:53-0500
_audit_creation_method            fapswitch 2.2
_symmetry_space_group_name_H-M    P1
_symmetry_Int_Tables_number       1
_space_group_crystal_system       triclinic
_cell_length_a                    20.004316
_cell_length_b                    7.09889
_cell_length_c                    13.715385
_cell_angle_alpha                 90.000314
_cell_angle_beta                  103.591937
_cell_angle_gamma                 89.999849
_cell_volume                      1893.15327258

loop_
_atom_site_label
_atom_site_type_symbol
_atom_type_description
_atom_site_fract_x
_atom_site_fract_y
_atom_site_fract_z
_atom_type_partial_charge
O1    O     O_R   0.449830 0.506740 0.599960 -0.525763
O2    O     O_R   0.550170 0.006740 0.400040 -0.525762
O3    O     O_R   0.588980 0.179860 0.596720 -0.543116
O4    O     O_R   0.411020 0.679860 0.403280 -0.543117
C1    C     C_R   0.615631 0.345162 0.621051 0.669465
C2    C     C_R   0.384368 0.845162 0.378949 0.669466
O5    O     O_R   0.452740 0.177340 0.612040 -0.546836
O6    O     O_R   0.547260 0.677340 0.387960 -0.546835
O7    O     O_R   0.412960 0.002070 0.415460 -0.542567
O8    O     O_R   0.587040 0.502070 0.584540 -0.542566
C3    C     C_R   0.436408 0.346137 0.638242 0.710750
C4    C     C_R   0.563592 0.846136 0.361758 0.710750
O9    O     O_3   0.487110 0.337570 0.435490 -0.378133
O10   O     O_3   0.512890 0.837570 0.564510 -0.378134
V1    V     V_3+5 0.502390 0.064650 0.511970 1.452225
V2    V     V_3+5 0.497610 0.564650 0.488030 1.452227
C5    C     C_R   0.608726 0.956558 0.117508 -0.164379
C6    C     C_R   0.391273 0.456585 0.882490 -0.164377
H1    H     H_    0.515501 0.954516 0.169321 0.101836
H2    H     H_    0.484498 0.454540 0.830677 0.101837
H3    H     H_    0.691759 0.991405 0.993578 0.117573
H4    H     H_    0.308240 0.491447 0.006420 0.117574
H5    H     H_    0.582575 0.001503 0.042741 0.112850
H6    H     H_    0.417424 0.501539 0.957256 0.112850
C7    C     C_R   0.602332 0.859277 0.283789 -0.056403
C8    C     C_R   0.397668 0.359282 0.716211 -0.056407
C9    C     C_R   0.931580 0.809159 0.311245 -0.235809
C10   C     C_R   0.068421 0.309133 0.688757 -0.235765
C11   C     C_R   0.898138 0.815083 0.388859 -0.148199
C12   C     C_R   0.101863 0.315052 0.611143 -0.148242
C13   C     C_R   0.828457 0.862976 0.370648 0.448069
C14   C     C_R   0.171543 0.362964 0.629352 0.448027
C15   C     C_R   0.788253 0.873486 0.269636 -0.044443
C16   C     C_R   0.211747 0.373491 0.730363 -0.044422
C17   C     C_R   0.824327 0.884408 0.191614 0.028879
C18   C     C_R   0.175672 0.384420 0.808385 0.028878
C19   C     C_R   0.714597 0.879560 0.242365 0.102021
C20   C     C_R   0.285403 0.379570 0.757634 0.102019
C21   C     C_R   0.680370 0.931770 0.143140 0.143342
C22   C     C_R   0.319629 0.431793 0.856858 0.143341
C23   C     C_R   0.717635 0.955507 0.069940 -0.213349
C24   C     C_R   0.282364 0.455540 0.930058 -0.213349
C25   C     C_R   0.788137 0.925590 0.092888 -0.172072
C26   C     C_R   0.211862 0.425617 0.907111 -0.172071
C27   C     C_R   0.673327 0.826445 0.308343 -0.107278
C28   C     C_R   0.326673 0.326446 0.691658 -0.107278
C29   C     C_R   0.570310 0.926940 0.188685 -0.178461
C30   C     C_R   0.429689 0.426959 0.811314 -0.178459
C31   C     C_R   0.896314 0.855705 0.214143 -0.078000
C32   C     C_R   0.103686 0.355702 0.785857 -0.078010
H7    H     H_    0.695540 0.762026 0.379648 0.174081
H8    H     H_    0.304460 0.262017 0.620355 0.174079
H9    H     H_    0.986351 0.780721 0.328118 0.147158
H10   H     H_    0.013651 0.280679 0.671884 0.147156
H11   H     H_    0.928468 0.798132 0.464890 0.154863
H12   H     H_    0.071533 0.298077 0.535113 0.154812
H13   H     H_    0.814329 0.937170 0.032574 0.104570
H14   H     H_    0.185670 0.437202 0.967424 0.104574
C33   C     C_3   0.239252 0.745750 0.138063 -0.318999
C34   C     C_3   0.760748 0.245740 0.861935 -0.318995
H15   H     H_    0.220219 0.598767 0.124176 0.137172
H16   H     H_    0.779785 0.098758 0.875822 0.137172
H17   H     H_    0.241862 0.807544 0.064493 0.141167
H18   H     H_    0.758136 0.307533 0.935505 0.141165
C35   C     C_3   0.312390 0.741841 0.209084 -0.334292
C36   C     C_3   0.687611 0.241824 0.790912 -0.334292
H19   H     H_    0.350119 0.803265 0.169952 0.127637
H20   H     H_    0.649880 0.303228 0.830045 0.127634
H21   H     H_    0.327822 0.592925 0.227240 0.142596
H22   H     H_    0.672185 0.092907 0.772749 0.142602
H23   H     H_    0.166759 0.623791 0.274258 0.164582
H24   H     H_    0.833241 0.123804 0.725735 0.164532
H25   H     H_    0.273903 0.618914 0.379220 0.209773
H26   H     H_    0.726099 0.118936 0.620769 0.209780
C37   C     C_3   0.186759 0.770297 0.286534 -0.289346
C38   C     C_3   0.813241 0.270311 0.713463 -0.289393
C39   C     C_3   0.219045 0.063925 0.206297 -0.298768
C40   C     C_3   0.780952 0.563926 0.793711 -0.298775
C41   C     C_3   0.188738 0.861278 0.184926 0.066283
C42   C     C_3   0.811262 0.361279 0.815075 0.066323
H27   H     H_    0.184964 0.151120 0.241727 0.170361
H28   H     H_    0.815031 0.651130 0.758283 0.170353
H29   H     H_    0.221620 0.133722 0.134571 0.134127
H30   H     H_    0.778377 0.633716 0.865440 0.134122
C43   C     C_3   0.313869 0.853656 0.307041 0.034814
C44   C     C_3   0.686131 0.353657 0.692960 0.034827
C45   C     C_3   0.259517 0.766982 0.357586 -0.201900
C46   C     C_3   0.740483 0.267002 0.642411 -0.201907
C47   C     C_3   0.291768 0.059271 0.276718 -0.311215
C48   C     C_3   0.708229 0.559271 0.723294 -0.311220
H31   H     H_    0.329126 0.125151 0.238346 0.132729
H32   H     H_    0.670870 0.625134 0.761671 0.132726
H33   H     H_    0.291915 0.144877 0.344700 0.190992
H34   H     H_    0.708078 0.644892 0.655316 0.190979
H35   H     H_    0.151121 0.850801 0.322230 0.171151
H36   H     H_    0.848879 0.350820 0.677770 0.171141
H37   H     H_    0.258730 0.847736 0.426797 0.199735
H38   H     H_    0.741271 0.347769 0.573204 0.199731
O11   O     O_R   0.912980 0.203550 0.915410 -0.542174
O12   O     O_R   0.087020 0.703550 0.084590 -0.542172
O13   O     O_R   0.047270 0.535570 0.887960 -0.538636
O14   O     O_R   0.952730 0.035570 0.112040 -0.538637
C49   C     C_R   0.064319 0.367574 0.862849 0.708014
C50   C     C_R   0.935681 0.867575 0.137151 0.708020
O15   O     O_R   0.911030 0.532970 0.903270 -0.546347
O16   O     O_R   0.088970 0.032970 0.096730 -0.546346
O17   O     O_R   0.949820 0.708150 0.099970 -0.538620
O18   O     O_R   0.050180 0.208150 0.900030 -0.538621
C51   C     C_R   0.883096 0.365559 0.883735 0.655876
C52   C     C_R   0.116904 0.865559 0.116265 0.655884
O19   O     O_3   0.012900 0.375230 0.064480 -0.374672
O20   O     O_3   0.987100 0.875230 0.935520 -0.374676
V3    V     V_3+5 0.997610 0.648190 0.988040 1.411214
V4    V     V_3+5 0.002390 0.148190 0.011960 1.411213
S1    S     S_3+6 0.803627 0.968747 0.473386 -0.086832
O21   O     O_2   0.746265 0.106779 0.436971 -0.352252
O22   O     O_2   0.781105 0.820490 0.537157 -0.407013
O23   O     O_3   0.871350 0.086000 0.543138 -0.516266
H39   H     H_    0.894936 0.995039 0.594611 0.326297
S2    S     S_3+6 0.196372 0.468726 0.526610 -0.086817
O24   O     O_2   0.253733 0.606757 0.563023 -0.352248
O25   O     O_2   0.218895 0.320464 0.462842 -0.406991
O26   O     O_3   0.128653 0.585978 0.456853 -0.516257
H40   H     H_    0.105022 0.494953 0.405453 0.326284

loop_
_geom_bond_atom_site_label_1
_geom_bond_atom_site_label_2
_ccdc_geom_bond_type
C36   H20   S    
O12   C52   A    
C9    C11   A    
O13   V3    S    
O1    C3    A    
H24   C38   S    
O2    C4    A    
O11   V4    S    
O20   V4    S    
C37   H35   S    
O26   H40   S    
C21   C23   A    
C36   H22   S    
C40   C48   S    
O5    C3    A    
C39   C47   S    
C5    H5    S    
C2    C43   S    
O16   V4    S    
C6    H6    S    
O15   V3    S    
C20   C22   A    
C44   C46   S    
C39   H29   S    
S1    O21   D    
O11   C51   A    
C28   H8    S    
C2    O7    A    
C34   H16   S    
C5    C21   A    
O18   V4    S    
C6    C22   A    
O23   H39   S    
H25   C45   S    
O15   C51   A    
C10   C32   A    
O17   V3    S    
C26   H14   S    
C35   H19   S    
C42   C51   S    
C17   C31   A    
C13   C15   A    
C49   O18   A    
C47   H31   S    
C17   C25   A    
C7    C29   A    
C16   C18   A    
S2    O26   S    
C8    C30   A    
C43   C45   S    
C38   H36   S    
C34   C36   S    
C32   C49   S    
O6    V2    S    
H23   C37   S    
C23   C25   A    
C24   C26   A    
C14   S2    S    
C13   S1    S    
O20   V3    S    
S2    O25   D    
C48   H34   S    
C39   C41   S    
C19   C21   A    
C33   H15   S    
C38   C42   S    
O4    C2    A    
C44   C48   S    
C33   C41   S    
C43   C47   S    
O5    V1    S    
C11   H11   S    
C3    C8    S    
S1    O22   D    
C12   H12   S    
C15   C19   A    
C14   C16   A    
O4    V2    S    
O14   V4    S    
C40   H28   S    
C48   H32   S    
C39   H27   S    
O6    C4    A    
S1    O23   S    
H1    C29   S    
O19   V3    S    
O1    V2    S    
O14   C50   A    
O2    V1    S    
H2    C30   S    
H3    C23   S    
C1    C44   S    
C37   C45   S    
C18   C26   A    
C19   C27   A    
C7    C27   A    
C18   C32   A    
S2    O24   D    
O16   C52   A    
C38   C46   S    
C34   C42   S    
C10   H10   S    
C41   C52   S    
C16   C20   A    
O12   V3    S    
C5    C29   A    
O3    C1    A    
C6    C30   A    
C36   C44   S    
C9    H9    S    
C35   C43   S    
C33   H17   S    
C4    C7    S    
C34   H18   S    
C31   C50   S    
C10   C12   A    
O7    V1    S    
C1    O8    A    
C11   C13   A    
O8    V2    S    
C33   C35   S    
C12   C14   A    
H4    C24   S    
C35   H21   S    
C22   C24   A    
C15   C17   A    
O19   V4    S    
C40   C42   S    
C47   H33   S    
C20   C28   A    
C25   H13   S    
C40   H30   S    
O13   C49   A    
O9    V2    S    
C27   H7    S    
O10   V1    S    
O3    V1    S    
H26   C46   S    
C8    C28   A    
C37   C41   S    
C50   O17   A    
C46   H38   S    
C9    C31   A    
C45   H37   S    
