data_mof_unit_6224.cif
_audit_creation_date              2012-12-11T16:08:34-0500
_audit_creation_method            fapswitch 2.2
_symmetry_space_group_name_H-M    P1
_symmetry_Int_Tables_number       1
_space_group_crystal_system       triclinic
_cell_length_a                    12.95428
_cell_length_b                    13.295954
_cell_length_c                    27.716956
_cell_angle_alpha                 95.064621
_cell_angle_beta                  89.976199
_cell_angle_gamma                 119.130981
_cell_volume                      4148.84013678

loop_
_atom_site_label
_atom_site_type_symbol
_atom_type_description
_atom_site_fract_x
_atom_site_fract_y
_atom_site_fract_z
_atom_type_partial_charge
C1    C     C_R   0.627742 0.896044 0.427118 0.544273
C2    C     C_R   0.580783 0.254687 0.219568 -0.093148
C3    C     C_R   0.569502 0.238775 0.268891 -0.098086
C4    C     C_R   0.664078 0.309076 0.302357 0.033242
C5    C     C_R   0.687020 0.340597 0.203335 0.048195
C6    C     C_1   0.695172 0.364979 0.153404 -0.034671
C7    C     C_1   0.650524 0.290783 0.352975 -0.062717
C8    C     C_1   0.703356 0.393568 0.112837 0.007656
C9    C     C_R   0.196745 0.755448 0.348010 -0.130082
C10   C     C_R   0.185322 0.749888 0.298111 0.007482
C11   C     C_R   0.172649 0.743967 0.197535 0.008238
C12   C     C_R   0.600973 0.221566 0.440410 0.546445
C13   C     C_R   0.182828 0.657380 0.218834 -0.124382
C14   C     C_R   0.187036 0.659238 0.268960 -0.135499
C15   C     C_R   0.157335 0.736295 0.147678 -0.116469
C16   C     C_R   0.127508 0.811473 0.126687 -0.007700
C17   C     C_R   0.200044 0.940699 0.356727 -0.136946
C18   C     C_R   0.181238 0.932880 0.306512 0.009996
C19   C     C_R   0.178448 0.839239 0.277087 0.062223
C20   C     C_R   0.170787 0.019273 0.284938 -0.137938
C21   C     C_R   0.155973 0.011943 0.234551 -0.129089
C22   C     C_R   0.155071 0.919981 0.205142 0.007499
C23   C     C_R   0.269534 0.876243 0.425497 0.546159
C24   C     C_R   0.169611 0.834993 0.226572 0.059124
C25   C     C_R   0.132981 0.907178 0.154987 -0.130854
C26   C     C_R   0.213039 0.854345 0.377216 -0.003747
C27   C     C_R   0.749796 0.942358 0.356033 -0.131388
C28   C     C_R   0.754588 0.937670 0.305520 -0.002270
C29   C     C_R   0.750409 0.926594 0.203984 0.004415
C30   C     C_R   0.840375 0.025168 0.231556 0.159528
C31   C     C_R   0.846665 0.028661 0.282515 0.039051
C32   C     C_R   0.753650 0.913526 0.153825 -0.130178
C33   C     C_R   0.676195 0.809175 0.126678 -0.002190
C34   C     C_R   0.626901 0.899233 0.565162 0.546512
C35   C     C_R   0.560988 0.765847 0.350700 -0.127979
C36   C     C_R   0.565639 0.755480 0.300451 0.022215
C37   C     C_R   0.660404 0.843028 0.277552 0.039838
C38   C     C_R   0.473302 0.661960 0.272765 -0.135262
C39   C     C_R   0.474575 0.653008 0.222501 -0.099301
C40   C     C_R   0.568098 0.738263 0.198761 0.033566
C41   C     C_R   0.659926 0.835892 0.226787 0.000828
C42   C     C_R   0.575267 0.725896 0.148023 0.139365
C43   C     C_R   0.650064 0.862317 0.378278 -0.007726
C44   C     C_R   0.739359 0.299486 0.652286 -0.114333
C45   C     C_R   0.602145 0.226058 0.578815 0.544751
C46   C     C_R   0.753335 0.319032 0.703075 0.016659
C47   C     C_R   0.770456 0.347206 0.805172 -0.030203
C48   C     C_R   0.865325 0.353113 0.778897 -0.111762
C49   C     C_R   0.857161 0.338042 0.728187 0.146365
C50   C     C_R   0.781129 0.369999 0.855633 -0.135671
C51   C     C_R   0.687679 0.370878 0.881046 -0.002085
C52   C     C_R   0.546486 0.288025 0.655600 -0.130460
C53   C     C_R   0.555183 0.300155 0.705678 0.003797
C54   C     C_R   0.658242 0.314926 0.729714 0.029144
C55   C     C_R   0.459529 0.292240 0.731906 -0.139419
C56   C     C_R   0.271971 0.879715 0.563481 0.547491
C57   C     C_R   0.465537 0.299104 0.782144 -0.139913
C58   C     C_R   0.568561 0.317313 0.806569 0.011999
C59   C     C_R   0.665507 0.325446 0.780470 0.049086
C60   C     C_R   0.578887 0.335525 0.856741 -0.129755
C61   C     C_R   0.634285 0.279749 0.628785 -0.018029
C62   C     C_1   0.223205 0.863695 0.610398 -0.002836
C63   C     C_R   0.090181 0.740990 0.718761 -0.089011
C64   C     C_R   0.076155 0.731020 0.768416 -0.092857
C65   C     C_R   0.227063 0.932008 0.786149 -0.100888
C66   C     C_R   0.241121 0.941961 0.736428 -0.101423
C67   C     C_1   0.632350 0.266317 0.394171 -0.017277
C68   C     C_R   0.172733 0.846455 0.702646 0.035444
C69   C     C_R   0.145008 0.826219 0.802226 0.036011
C70   C     C_1   0.127080 0.814560 0.853108 -0.052591
C71   C     C_1   0.195166 0.854526 0.651910 -0.047390
C72   C     C_1   0.102296 0.797464 0.894603 -0.006658
C73   C     C_1   0.641087 0.867944 0.611944 0.000468
C74   C     C_R   0.665515 0.925877 0.738745 -0.092056
C75   C     C_R   0.666618 0.913120 0.788256 -0.098507
C76   C     C_R   0.635804 0.718622 0.769023 -0.098688
C77   C     C_R   0.634677 0.731381 0.719452 -0.098739
C78   C     C_R   0.770954 0.394023 0.286099 -0.110511
C79   C     C_R   0.650388 0.835413 0.704217 0.039292
C80   C     C_R   0.651954 0.809536 0.803546 0.036790
C81   C     C_1   0.664295 0.799811 0.854315 -0.050704
C82   C     C_1   0.647219 0.849653 0.653412 -0.043561
C83   C     C_1   0.682495 0.790450 0.895915 -0.004007
C84   C     C_R   0.065402 0.772939 0.079037 0.547551
C85   C     C_R   0.717017 0.441348 0.067279 0.546570
C86   C     C_R   0.718576 0.783447 0.080404 0.565251
C87   C     C_R   0.056839 0.766166 0.941330 0.546458
C88   C     C_R   0.710006 0.432657 0.929437 0.540714
C89   C     C_R   0.782311 0.409862 0.236698 -0.087018
C90   C     C_R   0.716256 0.776149 0.943029 0.547398
Cr1   Cr    Cr6+3 0.416430 0.829200 0.492370 1.029710
Cr2   Cr    Cr6+3 0.674630 0.087020 0.504170 1.037069
Cr3   Cr    Cr6+3 0.408920 0.083740 0.503490 1.028701
Cr4   Cr    Cr6+3 0.914010 0.832750 0.013970 1.045913
Cr5   Cr    Cr6+3 0.922310 0.578600 0.003000 1.043202
Cr6   Cr    Cr6+3 0.656280 0.574630 0.003870 1.087365
H1    H     H_    0.844971 0.448243 0.311533 0.110965
H2    H     H_    0.145245 0.077993 0.218608 0.158539
H3    H     H_    0.173474 0.091970 0.307030 0.106423
H4    H     H_    0.211532 0.016672 0.379278 0.125236
H5    H     H_    0.825187 0.979845 0.135915 0.202254
H6    H     H_    0.817669 0.014716 0.378609 0.141451
H7    H     H_    0.402183 0.577837 0.202838 0.169281
H8    H     H_    0.399904 0.595182 0.290059 0.105226
H9    H     H_    0.864596 0.477366 0.224639 0.124882
H10   H     H_    0.484059 0.703194 0.367926 0.123522
H11   H     H_    0.864915 0.395773 0.874499 0.134777
H12   H     H_    0.806464 0.293461 0.630973 0.182803
H13   H     H_    0.946420 0.370380 0.797776 0.149033
H14   H     H_    0.505613 0.333693 0.876364 0.136746
H15   H     H_    0.390919 0.293263 0.801919 0.120852
H16   H     H_    0.379531 0.279334 0.713521 0.128523
H17   H     H_    0.465437 0.274189 0.637783 0.144927
H18   H     H_    0.037960 0.666223 0.693048 0.138160
H19   H     H_    0.506141 0.201418 0.194278 0.121939
H20   H     H_    0.011913 0.648929 0.780467 0.125271
H21   H     H_    0.280263 0.006316 0.811917 0.115337
H22   H     H_    0.306376 0.023530 0.724341 0.120891
H23   H     H_    0.677030 0.006524 0.727376 0.129009
H24   H     H_    0.680641 0.984484 0.814536 0.118994
H25   H     H_    0.625855 0.638591 0.780435 0.121011
H26   H     H_    0.622181 0.660631 0.693135 0.118013
H27   H     H_    0.486629 0.172243 0.280996 0.121542
H28   H     H_    0.155996 0.663762 0.125861 0.158935
H29   H     H_    0.204676 0.687295 0.363544 0.131352
H30   H     H_    0.184380 0.586707 0.196748 0.140942
H31   H     H_    0.193496 0.590864 0.284934 0.108996
H32   H     H_    0.111704 0.966455 0.138689 0.147836
O1    O     O_R   0.296680 0.802170 0.437540 -0.523381
O2    O     O_R   0.662610 0.183990 0.557860 -0.497185
O3    O     O_R   0.500730 0.201280 0.562180 -0.518303
O4    O     O_R   0.312500 0.978850 0.548170 -0.496161
O5    O     O_3   0.499990 0.999990 0.500010 -0.248134
O6    O     O_R   0.820790 0.857990 0.068830 -0.525389
O7    O     O_R   0.016700 0.827330 0.062850 -0.499443
O8    O     O_R   0.041970 0.673520 0.060040 -0.511062
O9    O     O_R   0.817980 0.483660 0.048840 -0.495520
O10   O     O_R   0.637200 0.461990 0.052510 -0.477529
O11   O     O_R   0.664790 0.681920 0.057970 -0.443171
O12   O     O_R   0.525380 0.838530 0.443500 -0.502251
O13   O     O_R   0.815840 0.852920 0.961840 -0.504622
O14   O     O_R   0.012100 0.822630 0.963670 -0.493865
O15   O     O_R   0.037010 0.668460 0.953040 -0.505212
O16   O     O_R   0.813390 0.478970 0.949660 -0.504495
O17   O     O_R   0.632250 0.456930 0.945520 -0.516214
O18   O     O_R   0.660200 0.677230 0.958780 -0.489344
O19   O     O_3   0.830870 0.661990 0.006950 -0.261230
O20   O     O_R   0.702130 0.995190 0.446810 -0.521946
O21   O     O_R   0.661770 0.181390 0.458760 -0.496445
O22   O     O_R   0.499820 0.198480 0.455280 -0.507627
O23   O     O_R   0.311660 0.976250 0.449080 -0.500842
O24   O     O_R   0.297580 0.804960 0.544440 -0.500640
O25   O     O_R   0.526220 0.841130 0.542590 -0.494476
O26   O     O_R   0.703030 0.997990 0.553710 -0.497696
Br1   Br    Br    0.952896 0.157674 0.199724 -0.607315
C91   C     C_3   0.950007 0.130793 0.311640 -0.256805
C92   C     C_3   0.918768 0.224748 0.328683 -0.415700
H33   H     H_    0.994930 0.297129 0.350288 0.131567
H34   H     H_    0.840821 0.190314 0.351565 0.159338
H35   H     H_    0.898605 0.258904 0.296980 0.197523
H36   H     H_    0.979585 0.102698 0.342816 0.116967
H37   H     H_    0.030135 0.169355 0.290239 0.185319
Br2   Br    Br    0.448541 0.597378 0.108528 -0.510390
Br3   Br    Br    0.991920 0.347292 0.695555 -0.557061

loop_
_geom_bond_atom_site_label_1
_geom_bond_atom_site_label_2
_ccdc_geom_bond_type
C66   C68   A    
C84   O7    A    
Cr5   O15   S    
C92   H33   S    
C64   H20   S    
C55   H16   S    
Cr2   O20   S    
C35   C36   A    
Cr6   O11   S    
C31   C91   S    
C53   C54   A    
Cr6   O17   S    
C46   C49   A    
C5    C6    S    
C33   C42   A    
C36   C37   A    
C25   H32   S    
Cr1   O25   S    
C29   C32   A    
Cr3   O5    S    
C52   C61   A    
Cr6   O10   S    
C38   C39   A    
C65   C69   A    
C58   C60   A    
C15   C16   A    
C11   C24   A    
C16   C84   S    
C23   O1    A    
C8    C85   S    
C23   C26   S    
C45   C61   S    
Cr6   O19   S    
C49   Br3   S    
C38   H8    S    
C77   H26   S    
C63   H18   S    
C11   C15   A    
C1    C43   S    
Cr2   O5    S    
C44   C46   A    
C22   C25   A    
C86   O6    A    
C88   O17   A    
C56   O24   A    
Cr3   O4    S    
C35   C43   A    
C75   C80   A    
C44   H12   S    
C18   C20   A    
C77   C79   A    
C48   H13   S    
C91   H37   S    
C45   O2    A    
C92   H34   S    
C21   C22   A    
Cr3   O22   S    
C4    C7    S    
C30   Br1   S    
C81   C83   T    
C3    H27   S    
C9    C26   A    
C50   C51   A    
C47   C50   A    
C54   C59   A    
C53   C55   A    
C78   C89   A    
C12   C67   S    
Cr5   O9    S    
C15   H28   S    
Cr4   O14   S    
C12   O22   A    
Cr5   O19   S    
C76   C77   A    
C10   C14   A    
C39   C40   A    
C42   Br2   S    
C18   C19   A    
C6    C8    T    
C58   C59   A    
C52   H17   S    
C47   C59   A    
C9    H29   S    
C14   H31   S    
Cr1   O12   S    
C91   C92   S    
Cr2   O2    S    
C33   C86   S    
C4    C78   A    
C29   C30   A    
C74   H23   S    
C2    H19   S    
C47   C48   A    
Cr1   O5    S    
C10   C19   A    
C46   C54   A    
C78   H1    S    
C17   C18   A    
C64   C69   A    
C20   C21   A    
C56   O4    A    
C1    O12   A    
C86   O11   A    
C13   H30   S    
C40   C41   A    
C91   H36   S    
C45   O3    A    
C34   O26   A    
C74   C79   A    
C55   C57   A    
C50   H11   S    
C56   C62   S    
Cr3   O23   S    
C2    C5    A    
C76   C80   A    
C76   H25   S    
C3    C4    A    
C85   O9    A    
C73   C82   T    
Cr2   O21   S    
C72   C87   S    
C52   C53   A    
C9    C10   A    
C34   O25   A    
C16   C25   A    
C83   C90   S    
C23   O23   A    
C63   C68   A    
C84   O8    A    
C29   C41   A    
Cr4   O13   S    
C12   O21   A    
C28   C31   A    
C75   H24   S    
Cr4   O19   S    
C80   C81   S    
C51   C88   S    
C79   C82   S    
Cr2   O26   S    
C39   H7    S    
Cr1   O1    S    
C44   C61   A    
C92   H35   S    
Cr6   O18   S    
C27   H6    S    
Cr4   O7    S    
C32   C33   A    
C36   C38   A    
C19   C24   A    
C90   O18   A    
C35   H10   S    
Cr3   O3    S    
C21   H2    S    
C11   C13   A    
C30   C31   A    
C57   C58   A    
C57   H15   S    
C20   H3    S    
C28   C37   A    
C68   C71   S    
C48   C49   A    
C40   C42   A    
Cr5   O8    S    
Cr4   O6    S    
C17   C26   A    
C62   C71   T    
C2    C3    A    
C22   C24   A    
C87   O14   A    
C37   C41   A    
C69   C70   S    
C17   H4    S    
C90   O13   A    
C60   H14   S    
C34   C73   S    
C7    C67   T    
C63   C64   A    
C27   C43   A    
Cr5   O16   S    
C74   C75   A    
C65   C66   A    
C66   H22   S    
C89   H9    S    
C27   C28   A    
C65   H21   S    
C32   H5    S    
C1    O20   A    
C70   C72   T    
C51   C60   A    
C87   O15   A    
Cr1   O24   S    
C13   C14   A    
C85   O10   A    
C88   O16   A    
C5    C89   A    
