data_mof_unit_34751.cif
_audit_creation_date              2012-10-26T20:40:14-0400
_audit_creation_method            fapswitch 2.2
_symmetry_space_group_name_H-M    P1
_symmetry_Int_Tables_number       1
_space_group_crystal_system       triclinic
_cell_length_a                    15.136989
_cell_length_b                    10.860466
_cell_length_c                    9.683712
_cell_angle_alpha                 88.972594
_cell_angle_beta                  88.593244
_cell_angle_gamma                 96.844663
_cell_volume                      1579.78020788

loop_
_atom_site_label
_atom_site_type_symbol
_atom_type_description
_atom_site_fract_x
_atom_site_fract_y
_atom_site_fract_z
_atom_type_partial_charge
C1    C     C_R   0.497839 0.262530 0.501199 0.597985
C2    C     C_R   0.175458 0.403445 0.558988 0.049325
C3    C     C_R   0.232486 0.504683 0.502684 -0.010659
C4    C     C_R   0.329116 0.499808 0.501199 0.491152
C5    C     C_R   0.196693 0.606849 0.442234 0.210533
C6    C     C_R   0.361038 0.099199 0.652928 -0.138101
C7    C     C_R   0.293299 0.022934 0.722716 -0.051187
C8    C     C_R   0.291238 0.894656 0.719059 0.144550
C9    C     C_R   0.358799 0.843733 0.646309 -0.051951
C10   C     C_R   0.428517 0.920344 0.575244 -0.029292
C11   C     C_R   0.429171 0.050145 0.578224 -0.041148
C12   C     C_R   0.916783 0.608407 0.441762 0.059301
C13   C     C_R   0.496105 0.127780 0.503092 0.035967
C14   C     C_R   0.561705 0.077741 0.424539 0.248830
C15   C     C_R   0.561885 0.948083 0.423121 0.070824
C16   C     C_R   0.499664 0.736990 0.499065 0.561412
C17   C     C_R   0.495928 0.870413 0.498320 0.017024
C18   C     C_R   0.624214 0.659175 0.142807 -0.092627
C19   C     C_R   0.692777 0.733508 0.076844 -0.198655
C20   C     C_R   0.697527 0.738078 0.936295 -0.129740
C21   C     C_R   0.632572 0.670350 0.857949 0.277210
C22   C     C_R   0.564096 0.581169 0.923022 0.166081
C23   C     C_R   0.933995 0.316039 0.643130 0.277055
C24   C     C_R   0.562305 0.579094 0.072349 0.106127
C25   C     C_R   0.440523 0.424376 0.077959 0.022556
C26   C     C_R   0.440122 0.424181 0.930643 0.203887
C27   C     C_R   0.671006 0.503247 0.498682 0.624860
C28   C     C_R   0.824263 0.612228 0.454848 0.066659
C29   C     C_R   0.767915 0.505073 0.497368 0.044084
C30   C     C_R   0.803609 0.399504 0.543776 0.203778
C31   C     C_R   0.896538 0.405536 0.562260 -0.050413
C32   C     C_R   0.953408 0.506457 0.501159 -0.103176
C33   C     C_R   0.026032 0.317711 0.647087 0.333065
C34   C     C_R   0.083171 0.408608 0.570012 0.006834
C35   C     C_R   0.046729 0.506493 0.501956 -0.104924
C36   C     C_R   0.103314 0.603594 0.433571 0.024037
C37   C     C_R   0.064969 0.697195 0.359980 0.257234
C38   C     C_R   0.972874 0.704014 0.371067 0.310584
Cu1   Cu    Cu3+1 0.499990 0.499990 0.640660 1.037305
Cu2   Cu    Cu3+1 0.500010 0.500010 0.359340 0.979577
H1    H     H_    0.359179 0.197096 0.656358 0.143632
H2    H     H_    0.161276 0.829284 0.738414 0.255386
H3    H     H_    0.228846 0.723692 0.780126 0.227242
H4    H     H_    0.691990 0.929263 0.386671 0.245379
H5    H     H_    0.627129 0.917576 0.244558 0.236613
H6    H     H_    0.667309 0.783054 0.702578 0.298783
H7    H     H_    0.778380 0.220618 0.544982 0.361851
H8    H     H_    0.381200 0.252089 0.898776 0.211950
H9    H     H_    0.312198 0.362927 0.898417 0.199687
H10   H     H_    0.833960 0.274355 0.770311 0.348750
H11   H     H_    0.103970 0.281843 0.792175 0.322168
H12   H     H_    0.241679 0.063980 0.778623 0.159627
H13   H     H_    0.247173 0.262847 0.512951 0.237956
H14   H     H_    0.251578 0.311242 0.680011 0.237172
H15   H     H_    0.313764 0.705134 0.407443 0.333256
H16   H     H_    0.151545 0.730472 0.211542 0.365239
H17   H     H_    0.982066 0.864910 0.272465 0.377065
H18   H     H_    0.666488 0.114352 0.299035 0.328967
H19   H     H_    0.354390 0.744043 0.643653 0.131591
H20   H     H_    0.391573 0.362130 0.136299 0.122091
H21   H     H_    0.620789 0.667527 0.250507 0.208034
H22   H     H_    0.741045 0.791862 0.134592 0.168299
H23   H     H_    0.750860 0.800037 0.886673 0.140690
H24   H     H_    0.757499 0.750166 0.523930 0.237627
H25   H     H_    0.742085 0.714643 0.356559 0.234192
N1    N     N_R   0.500860 0.501210 0.147910 -0.260241
N2    N     N_R   0.500890 0.501290 0.852040 -0.198317
N3    N     N_3   0.788794 0.727024 0.432760 -0.551423
N4    N     N_3   0.219912 0.817254 0.789186 -0.601836
N5    N     N_3   0.630112 0.893797 0.349243 -0.666915
N6    N     N_3   0.374724 0.342267 0.864290 -0.600081
N7    N     N_3   0.210436 0.291378 0.596862 -0.602607
O1    O     O_R   0.499990 0.319640 0.618810 -0.482565
O2    O     O_3   0.746032 0.292168 0.567400 -0.665773
O3    O     O_3   0.883533 0.232786 0.731373 -0.641912
O4    O     O_3   0.057731 0.234454 0.736943 -0.607487
O5    O     O_3   0.250172 0.712633 0.395352 -0.675353
O6    O     O_3   0.114952 0.779607 0.270562 -0.649682
O7    O     O_3   0.935431 0.797608 0.303092 -0.651290
O8    O     O_3   0.625425 0.159306 0.353986 -0.653718
O9    O     O_R   0.500000 0.319660 0.381240 -0.461660
O10   O     O_R   0.370250 0.499960 0.618800 -0.504124
O11   O     O_R   0.370260 0.499980 0.381230 -0.513957
O12   O     O_R   0.500000 0.680340 0.618760 -0.461364
O13   O     O_R   0.500010 0.680360 0.381190 -0.515367
O14   O     O_R   0.629740 0.500020 0.618770 -0.414463
O15   O     O_R   0.629750 0.500040 0.381200 -0.516179
O16   O     O_3   0.638011 0.697196 0.719944 -0.662897

loop_
_geom_bond_atom_site_label_1
_geom_bond_atom_site_label_2
_ccdc_geom_bond_type
C27   C29   S    
H17   O7    S    
C35   C36   A    
C7    C8    A    
C8    N4    S    
C29   C30   A    
C12   C28   A    
C18   C24   A    
C26   N2    A    
H24   N3    S    
Cu2   O15   S    
C36   C37   A    
C28   N3    S    
C7    H12   S    
C18   C19   A    
C30   C31   A    
C30   O2    S    
C38   O7    S    
C10   C17   A    
C1    O9    A    
C5    C36   A    
C16   O12   A    
H16   O6    S    
C34   C35   A    
C19   C20   A    
C8    C9    A    
C23   C33   A    
C6    H1    S    
H4    N5    S    
C25   H20   S    
C14   O8    S    
C9    C10   A    
C24   N1    A    
C2    C34   A    
C21   O16   S    
H3    N4    S    
Cu2   N1    S    
C13   C14   A    
C12   C32   A    
C26   N6    S    
Cu2   O11   S    
C2    N7    S    
H6    O16   S    
C32   C35   A    
H11   O4    S    
Cu1   O10   S    
C6    C11   A    
C16   C17   S    
C25   C26   A    
H2    N4    S    
C9    H19   S    
C23   C31   A    
Cu2   O13   S    
C27   O14   A    
C37   C38   A    
C33   O4    S    
C31   C32   A    
H25   N3    S    
C33   C34   A    
C4    O10   A    
C27   O15   A    
C16   O13   A    
C22   C24   A    
C1    C13   S    
H8    N6    S    
C5    O5    S    
C3    C4    S    
Cu1   Cu2   S    
C15   C17   A    
C15   N5    S    
C28   C29   A    
H5    N5    S    
Cu1   N2    S    
Cu2   O9    S    
C25   N1    A    
H7    O2    S    
C23   O3    S    
C3    C5    A    
Cu1   O12   S    
C18   H21   S    
C6    C7    A    
H18   O8    S    
C37   O6    S    
C1    O1    A    
C20   H23   S    
C2    C3    A    
H10   O3    S    
C11   C13   A    
C4    O11   A    
H15   O5    S    
Cu1   O1    S    
C12   C38   A    
C22   N2    A    
C10   C11   A    
H14   N7    S    
C20   C21   A    
H9    N6    S    
C14   C15   A    
C19   H22   S    
Cu1   O14   S    
C21   C22   A    
H13   N7    S    
