data_mof_unit_52956.cif
_audit_creation_date              2012-12-10T17:17:28-0500
_audit_creation_method            fapswitch 2.2
_symmetry_space_group_name_H-M    P1
_symmetry_Int_Tables_number       1
_space_group_crystal_system       triclinic
_cell_length_a                    10.157635
_cell_length_b                    10.664159
_cell_length_c                    12.54329
_cell_angle_alpha                 90.594121
_cell_angle_beta                  109.485993
_cell_angle_gamma                 95.051958
_cell_volume                      1274.77957478

loop_
_atom_site_label
_atom_site_type_symbol
_atom_type_description
_atom_site_fract_x
_atom_site_fract_y
_atom_site_fract_z
_atom_type_partial_charge
C1    C     C_R   0.053887 0.733789 0.497864 0.941770
C2    C     C_R   0.423175 0.450799 0.988392 0.130507
C3    C     C_R   0.344429 0.440442 0.871797 0.085404
C4    C     C_R   0.563949 0.421217 0.023707 0.018921
C5    C     C_R   0.631959 0.409131 0.942946 0.162677
C6    C     C_R   0.551805 0.384244 0.830781 -0.250886
C7    C     C_R   0.408266 0.388905 0.797826 -0.207334
C8    C     C_R   0.642320 0.408099 0.136894 -0.121687
C9    C     C_R   0.855499 0.449690 0.089797 -0.212005
C10   C     C_R   0.208839 0.486469 0.833908 -0.120993
C11   C     C_2   0.093487 0.868120 0.517284 -0.384609
C12   C     C_R   0.133969 0.501672 0.713159 0.849617
C13   C     C_2   0.030119 0.932264 0.575481 -0.134773
C14   C     C_2   0.932205 0.132064 0.531111 -0.005006
C15   C     C_2   0.045757 0.068443 0.581172 0.194931
C16   C     C_2   0.432404 0.510568 0.510233 -0.153740
C17   C     C_2   0.567905 0.487923 0.491582 -0.138106
C18   C     C_R   0.952211 0.266528 0.512824 0.971710
C19   C     C_R   0.864031 0.480889 0.287820 0.937005
C20   C     C_R   0.778415 0.420695 0.976688 -0.193677
C21   C     C_R   0.786720 0.446622 0.170160 -0.123179
C22   C     C_R   0.151126 0.529582 0.913098 -0.208618
C23   C     C_R   0.228722 0.536803 0.027792 -0.149993
C24   C     C_R   0.364708 0.501648 0.065039 -0.100627
H1    H     H_    0.968076 0.471105 0.114727 0.165554
H2    H     H_    0.954197 0.885764 0.609658 0.171621
H3    H     H_    0.170463 0.914480 0.484169 0.165114
H4    H     H_    0.566370 0.414132 0.431047 0.194536
H5    H     H_    0.433952 0.583044 0.572119 0.176299
H6    H     H_    0.683535 0.622665 0.602077 0.160217
H7    H     H_    0.316316 0.378516 0.396837 0.170914
H8    H     H_    0.599531 0.359988 0.768775 0.154506
H9    H     H_    0.831979 0.415513 0.915349 0.144534
H10   H     H_    0.048151 0.563600 0.885934 0.157017
H11   H     H_    0.424920 0.517502 0.154053 0.133946
H12   H     H_    0.185471 0.574905 0.087843 0.139025
H13   H     H_    0.353516 0.354554 0.712615 0.198653
N1    N     N_2   0.313640 0.446500 0.454900 -0.198301
N2    N     N_2   0.686360 0.553430 0.545150 -0.194763
O1    O     O_R   0.936910 0.692950 0.509080 -0.606690
O2    O     O_R   0.138320 0.658600 0.480130 -0.601206
O3    O     O_R   0.002900 0.525670 0.675280 -0.617254
O4    O     O_R   0.204310 0.491320 0.646330 -0.627240
O5    O     O_R   0.861680 0.341400 0.519870 -0.581185
O6    O     O_R   0.063090 0.307050 0.490920 -0.622999
O7    O     O_R   0.795690 0.508680 0.353670 -0.591658
O8    O     O_R   0.997100 0.474330 0.324720 -0.614730
Zn1   Zn    Zn3+2 0.865520 0.522940 0.519330 0.953115
Zn2   Zn    Zn3+2 0.134480 0.477060 0.480670 0.932048
C25   C     C_3   0.785135 0.065652 0.488207 -0.906512
H14   H     H_    0.705189 0.132461 0.454077 0.286608
H15   H     H_    0.775943 0.994708 0.420026 0.259788
H16   H     H_    0.760773 0.018120 0.558683 0.229769
C26   C     C_2   0.583377 0.321199 0.206826 0.882534
O9    O     O_2   0.660903 0.282195 0.294382 -0.654230
O10   O     O_R   0.442079 0.273246 0.167265 -0.814785
H17   H     H_    0.416741 0.213404 0.221245 0.335024
C27   C     C_3   0.189902 0.131114 0.645986 -0.886951
H18   H     H_    0.258840 0.061983 0.696029 0.248016
H19   H     H_    0.241385 0.173015 0.587638 0.250707
H20   H     H_    0.180141 0.202941 0.706764 0.221650

loop_
_geom_bond_atom_site_label_1
_geom_bond_atom_site_label_2
_ccdc_geom_bond_type
H6    N2    S    
C2    C4    A    
C23   C24   A    
C18   O6    A    
C6    C7    A    
C18   O5    A    
C14   C18   S    
C9    C20   A    
C6    H8    S    
C1    C11   S    
H7    N1    S    
O6    Zn2   S    
C4    C8    A    
C27   H20   S    
C25   H14   S    
C7    H13   S    
C19   O7    A    
C9    H1    S    
O8    Zn2   S    
N1    Zn2   S    
O3    Zn1   S    
C10   C22   A    
C11   C13   D    
C9    C21   A    
C14   C25   S    
C10   C12   S    
C20   H9    S    
O2    Zn2   S    
C19   C21   S    
C11   H3    S    
C2    C3    A    
C12   O4    A    
C3    C7    A    
C5    C20   A    
C13   C15   S    
C2    C24   A    
C5    C6    A    
C22   H10   S    
C15   C27   S    
C26   O10   S    
C13   H2    S    
C27   H18   S    
C25   H16   S    
C16   C17   S    
C27   H19   S    
C26   O9    D    
C24   H11   S    
O7    Zn1   S    
O5    Zn1   S    
O10   H17   S    
O1    Zn1   S    
C23   H12   S    
C17   N2    D    
C19   O8    A    
C8    C26   S    
C25   H15   S    
C3    C10   A    
C22   C23   A    
O4    Zn2   S    
C12   O3    A    
C1    O1    A    
C16   H5    S    
C14   C15   D    
C17   H4    S    
C1    O2    A    
C16   N1    D    
C4    C5    A    
N2    Zn1   S    
C8    C21   A    
