data_mof_unit_66659.cif
_audit_creation_date              2013-03-05T15:52:47-0500
_audit_creation_method            fapswitch 2.2
_symmetry_space_group_name_H-M    P1
_symmetry_Int_Tables_number       1
_space_group_crystal_system       triclinic
_cell_length_a                    6.953289
_cell_length_b                    15.013921
_cell_length_c                    21.460036
_cell_angle_alpha                 73.383862
_cell_angle_beta                  90.522438
_cell_angle_gamma                 90.340863
_cell_volume                      2146.69028489

loop_
_atom_site_label
_atom_site_type_symbol
_atom_site_description
_atom_site_fract_x
_atom_site_fract_y
_atom_site_fract_z
_atom_type_partial_charge
O1    O     O_R   0.648150 0.130050 0.214300 -0.599004
O2    O     O_R   0.351850 0.869950 0.785700 -0.599352
O3    O     O_R   0.320490 0.006660 0.340150 -0.573452
O4    O     O_R   0.679510 0.993340 0.659850 -0.576276
O5    O     O_R   0.146100 0.869940 0.285700 -0.593661
O6    O     O_R   0.853900 0.130060 0.714300 -0.611485
C1    C     C_R   0.489356 0.001411 0.366827 1.088872
C2    C     C_R   0.510614 0.998487 0.633194 1.109518
O7    O     O_R   0.318690 0.137980 0.218120 -0.560737
O8    O     O_R   0.681310 0.862020 0.781880 -0.566063
O9    O     O_R   0.144280 0.002190 0.162800 -0.579002
O10   O     O_R   0.855720 0.997810 0.837200 -0.576364
C3    C     C_R   0.488361 0.175396 0.206323 1.052399
C4    C     C_R   0.512017 0.824415 0.794336 1.042989
O11   O     O_R   0.649960 0.997790 0.337200 -0.625951
O12   O     O_R   0.350040 0.002210 0.662800 -0.610969
O13   O     O_3   0.479300 0.955290 0.231990 -0.242700
O14   O     O_3   0.520700 0.044710 0.768010 -0.246211
V1    V     V_3+5 0.206040 0.008290 0.253340 1.327038
V2    V     V_3+5 0.793960 0.991710 0.746660 1.324555
O15   O     O_R   0.814320 0.993320 0.159850 -0.542805
O16   O     O_R   0.185680 0.006680 0.840150 -0.548709
C5    C     C_R   0.982176 0.000436 0.132835 1.171403
C6    C     C_R   0.017650 0.001689 0.866814 1.165248
O17   O     O_R   0.816120 0.862000 0.281880 -0.594909
O18   O     O_R   0.183880 0.138000 0.718120 -0.563194
C7    C     C_R   0.985563 0.824643 0.294287 1.009844
C8    C     C_R   0.014273 0.175270 0.706089 1.072994
V3    V     V_3+5 0.705540 0.991700 0.246660 1.321300
V4    V     V_3+5 0.294460 0.008300 0.753340 1.339162
O19   O     O_3   0.982150 0.044700 0.268010 -0.290106
O20   O     O_3   0.017850 0.955300 0.731990 -0.295081
C9    C     C_R   0.003079 0.722886 0.318633 -0.469834
C10   C     C_R   0.997372 0.275900 0.676240 -0.410334
C11   C     C_R   0.211447 0.593966 0.317480 0.338267
C12   C     C_R   0.820456 0.416564 0.673794 0.376952
C13   C     C_R   0.124599 0.678273 0.284663 0.462049
C14   C     C_R   0.901048 0.331211 0.709479 0.392479
C15   C     C_R   0.944999 0.675836 0.382581 0.477803
C16   C     C_R   0.035599 0.310893 0.609549 0.485988
C17   C     C_R   0.007189 0.583101 0.412187 0.034684
C18   C     C_R   0.975057 0.402247 0.575030 -0.059500
C19   C     C_R   0.155145 0.545168 0.381801 -0.305403
C20   C     C_R   0.837757 0.445675 0.605126 -0.275782
C21   C     C_R   0.937550 0.530374 0.474351 0.142065
C22   C     C_R   0.037532 0.450168 0.510861 0.101114
C23   C     C_R   0.200735 0.422398 0.483300 -0.291261
C24   C     C_R   0.764473 0.552871 0.499802 -0.170451
C25   C     C_R   0.248266 0.462433 0.418342 0.391207
C26   C     C_R   0.715790 0.513674 0.564849 0.378135
H1    H     H_    0.291869 0.367058 0.511231 0.206727
H2    H     H_    0.661554 0.598958 0.468742 0.194466
C27   C     C_3   0.823121 0.005166 0.974600 0.188497
C28   C     C_3   0.176652 0.999989 0.024523 0.190025
C29   C     C_3   0.901053 0.927884 0.033184 0.131904
C30   C     C_3   0.098708 0.077186 0.965870 0.127809
C31   C     C_3   0.989913 0.001555 0.062807 -0.552691
C32   C     C_3   0.009874 0.003212 0.936383 -0.542666
C33   C     C_3   0.912066 0.079063 0.003587 0.402414
C34   C     C_3   0.087848 0.926091 0.995636 0.406885
C35   C     C_3   0.677171 0.986153 0.481329 0.340155
C36   C     C_3   0.322675 0.013581 0.518732 0.343700
C37   C     C_3   0.615889 0.067217 0.507458 0.331674
C38   C     C_3   0.383921 0.932522 0.492588 0.315451
C39   C     C_3   0.503012 0.999092 0.563296 -0.521292
C40   C     C_3   0.496844 0.000664 0.436755 -0.520502
C41   C     C_3   0.564616 0.918048 0.536475 0.334894
C42   C     C_3   0.435204 0.081667 0.463596 0.341266
C43   C     C_R   0.506082 0.277158 0.181906 -0.502557
C44   C     C_R   0.498596 0.722871 0.823904 -0.522907
C45   C     C_R   0.711078 0.406919 0.185539 0.403116
C46   C     C_R   0.331786 0.579608 0.824073 0.411597
C47   C     C_R   0.619090 0.323487 0.217767 0.453016
C48   C     C_R   0.409168 0.666531 0.789334 0.431057
C49   C     C_R   0.459636 0.322213 0.116657 0.381910
C50   C     C_R   0.542404 0.685058 0.890532 0.404101
C51   C     C_R   0.518207 0.415617 0.087796 -0.001430
C52   C     C_R   0.491913 0.591710 0.923113 -0.013901
C53   C     C_R   0.665635 0.453342 0.119167 -0.303961
C54   C     C_R   0.352253 0.548894 0.892887 -0.309741
C55   C     C_R   0.449002 0.467488 0.025006 -0.033876
C56   C     C_R   0.557411 0.543933 0.987500 -0.023289
C57   C     C_R   0.731199 0.567931 0.014134 0.458936
C58   C     C_R   0.267613 0.448399 0.000470 0.485646
C59   C     C_R   0.770964 0.531353 0.081612 0.230477
C60   C     C_R   0.224942 0.483853 0.933133 0.252870
N1    N     N_R   0.389686 0.416015 0.390846 0.257184
O21   O     O_R   0.555787 0.395147 0.419610 -0.366678
O22   O     O_R   0.337202 0.376217 0.346902 -0.280755
N2    N     N_R   0.531085 0.535158 0.586629 0.257719
O23   O     O_R   0.456402 0.617197 0.562311 -0.329683
O24   O     O_R   0.424777 0.469256 0.622986 -0.362538
O25   O     O_3   0.862476 0.969623 0.462676 -0.647046
H3    H     H_    0.901237 0.027587 0.429543 0.353675
O26   O     O_3   0.137380 0.030190 0.537354 -0.640911
H4    H     H_    0.098596 0.972293 0.570546 0.353486
O27   O     O_3   0.632423 0.832034 0.574538 -0.672969
H5    H     H_    0.661995 0.796421 0.543408 0.385331
O28   O     O_3   0.367156 0.167654 0.425639 -0.670690
H6    H     H_    0.337846 0.203185 0.456845 0.369149
N3    N     N_R   0.920281 0.572983 0.110665 0.260230
O29   O     O_R   0.100195 0.554906 0.103557 -0.333524
O30   O     O_R   0.875546 0.623729 0.148367 -0.246882
N4    N     N_R   0.041560 0.464148 0.907987 0.252686
O31   O     O_R   0.978074 0.379231 0.920667 -0.273522
O32   O     O_R   0.935061 0.531576 0.873361 -0.336843
N5    N     N_R   0.591682 0.746939 0.928047 0.269729
O33   O     O_R   0.491520 0.745008 0.979262 -0.289668
O34   O     O_R   0.737490 0.803392 0.912242 -0.317292
N6    N     N_R   0.399616 0.266940 0.075446 0.261403
O35   O     O_R   0.247189 0.214415 0.088780 -0.309831
O36   O     O_R   0.503833 0.267000 0.025437 -0.289175
O37   O     O_3   0.387050 0.696077 0.722444 -0.633936
H7    H     H_    0.469781 0.751065 0.704032 0.330396
O38   O     O_3   0.664424 0.283189 0.282634 -0.651174
H8    H     H_    0.569715 0.233597 0.301827 0.331504
N7    N     N_R   0.864273 0.436889 0.219870 0.285566
O39   O     O_R   0.823623 0.471857 0.267028 -0.247569
O40   O     O_R   0.036204 0.404497 0.217242 -0.288939
N8    N     N_R   0.242640 0.520832 0.789264 0.291015
O41   O     O_R   0.150056 0.556556 0.734994 -0.240820
O42   O     O_R   0.264234 0.431060 0.809595 -0.254532
O43   O     O_3   0.862656 0.623835 0.972476 -0.690196
H9    H     H_    0.982031 0.631116 0.995757 0.364957
O44   O     O_3   0.131367 0.401023 0.044378 -0.683059
H10   H     H_    0.001398 0.411962 0.024796 0.340476
O45   O     O_3   0.103176 0.248830 0.578228 -0.732492
H11   H     H_    0.038640 0.262525 0.535145 0.346491
O46   O     O_3   0.858160 0.723811 0.421006 -0.732090
H12   H     H_    0.779519 0.775086 0.393776 0.333429
O47   O     O_3   0.875754 0.302267 0.776134 -0.612795
H13   H     H_    0.950143 0.245033 0.795527 0.330810
O48   O     O_3   0.182251 0.720883 0.221527 -0.628250
H14   H     H_    0.089784 0.770374 0.200305 0.333116
N9    N     N_R   0.373759 0.565970 0.287124 0.288096
O49   O     O_R   0.351035 0.545035 0.232715 -0.218395
O50   O     O_R   0.545759 0.583716 0.304872 -0.336069
N10   N     N_R   0.734056 0.476399 0.707662 0.293800
O51   O     O_R   0.644819 0.441765 0.762301 -0.226449
O52   O     O_R   0.758516 0.566033 0.686789 -0.288898
N11   N     N_R   0.803511 0.843015 0.069320 0.302331
O53   O     O_R   0.768167 0.827765 0.130849 -0.328106
O54   O     O_R   0.794067 0.773930 0.044485 -0.250782
N12   N     N_R   0.199078 0.160994 0.929214 0.300836
O55   O     O_R   0.222956 0.228905 0.954613 -0.209313
O56   O     O_R   0.234742 0.175089 0.867825 -0.343290
N13   N     N_R   0.633648 0.013633 0.944503 0.274722
O57   O     O_R   0.530743 0.939794 0.948836 -0.282329
O58   O     O_R   0.588007 0.090824 0.901309 -0.322431
N14   N     N_R   0.366414 0.993397 0.054312 0.274458
O59   O     O_R   0.460999 0.068754 0.052878 -0.287338
O60   O     O_R   0.417528 0.915550 0.095739 -0.313982
O61   O     O_3   0.821714 0.159877 0.007906 -0.592816
H15   H     H_    0.797966 0.197303 0.962372 0.392221
O62   O     O_3   0.177140 0.844963 0.991637 -0.605486
H16   H     H_    0.197487 0.807041 0.037268 0.383603
O63   O     O_3   0.736755 0.138229 0.514979 -0.672313
H17   H     H_    0.783536 0.170335 0.470714 0.355363
O64   O     O_3   0.262934 0.861569 0.485013 -0.647446
H18   H     H_    0.215462 0.829689 0.529225 0.368272

loop_
_geom_bond_atom_site_label_1
_geom_bond_atom_site_label_2
_geom_bond_distance
_ccdc_geom_bond_type
C40   C42   1.551098 S    
N1    O21   1.301456 A    
C37   C39   1.550709 S    
O25   H3    0.991147 S    
C29   N11   1.455749 S    
C52   C56   1.434137 A    
O13   V3    1.718078 S    
C25   N1    1.433429 S    
C27   C29   1.543148 S    
O26   H4    0.991116 S    
C12   N10   1.443604 S    
O4    C2    1.294574 A    
V1    O19   1.714342 S    
N4    O32   1.301560 A    
C55   C56   1.416262 A    
C27   C33   1.542706 S    
O43   H9    0.986480 S    
C23   C25   1.393060 A    
C28   C34   1.541036 S    
C21   C22   1.416945 A    
C7    C9    1.471876 S    
O9    V1    2.013481 S    
O63   H17   0.991174 S    
C10   C16   1.403654 A    
O16   C6    1.297968 A    
C11   C13   1.397985 A    
C58   C60   1.419039 A    
O37   H7    0.990231 S    
O3    C1    1.294482 A    
N7    O40   1.301041 A    
O64   H18   0.991137 S    
C35   O25   1.397147 S    
C31   C33   1.552876 S    
C32   C34   1.550604 S    
O38   H8    0.990672 S    
O27   H5    0.991248 S    
C27   N13   1.452080 S    
C5    C31   1.499530 S    
C18   C22   1.429404 A    
C35   C37   1.542134 S    
O7    C3    1.299132 A    
N6    O35   1.301393 A    
C54   C60   1.415793 A    
O5    C7    1.290565 A    
C35   C40   1.548169 S    
O7    V1    2.031546 S    
O6    C8    1.288974 A    
N13   O57   1.297098 A    
O8    V2    2.031546 S    
C39   C41   1.551323 S    
C26   N2    1.440157 S    
C44   C48   1.413064 A    
C36   C38   1.542166 S    
N5    O33   1.299750 A    
O3    V1    2.012855 S    
O14   V4    1.718076 S    
C16   C18   1.423830 A    
C11   C19   1.422454 A    
C29   C34   1.539126 S    
C24   C26   1.394968 A    
C8    C10   1.467672 S    
C2    C39   1.497881 S    
N3    O30   1.300693 A    
C36   O26   1.397173 S    
C17   C19   1.428136 A    
C46   N8    1.443269 S    
C4    C44   1.477096 S    
C18   C20   1.418873 A    
C45   C53   1.428655 A    
N4    O31   1.300559 A    
N8    O42   1.301703 A    
C33   O61   1.396383 S    
O11   V3    2.012126 S    
C51   C53   1.422490 A    
O15   C5    1.298147 A    
O17   V3    2.029760 S    
C28   C30   1.543403 S    
C45   N7    1.431605 S    
N3    O29   1.301190 A    
N9    O49   1.301163 A    
N12   O56   1.299140 A    
O8    C4    1.299001 A    
C11   N9    1.431942 S    
C45   C47   1.399870 A    
C19   C25   1.421414 A    
C23   H1    1.079667 S    
C1    O11   1.299117 A    
C15   O46   1.384668 S    
C16   O45   1.382033 S    
O15   V3    2.010682 S    
C9    C13   1.411129 A    
C46   C54   1.421687 A    
C30   N12   1.456922 S    
C38   C41   1.541898 S    
N5    O34   1.301135 A    
C35   C41   1.540750 S    
N2    O24   1.301712 A    
O28   H6    0.991306 S    
C51   C55   1.430458 A    
O10   V2    2.013481 S    
O1    V3    2.033710 S    
C52   C54   1.412994 A    
C9    C15   1.413393 A    
C43   C47   1.407885 A    
C49   C51   1.420257 A    
N10   O52   1.301746 A    
C6    C32   1.501132 S    
C46   C48   1.411019 A    
C57   C59   1.419392 A    
O18   V4    2.029760 S    
C50   N5    1.430981 S    
C29   C31   1.547958 S    
C44   C50   1.410468 A    
O48   H14   0.989813 S    
N14   O60   1.299094 A    
C12   C20   1.418206 A    
O1    C3    1.290797 A    
C37   O63   1.397969 S    
O47   H13   0.987916 S    
C53   C59   1.420708 A    
C55   C58   1.421280 A    
C59   N3    1.435505 S    
N8    O41   1.300644 A    
O46   H12   0.987439 S    
V2    O20   1.714344 S    
C21   C24   1.408207 A    
C20   C26   1.414526 A    
C58   O44   1.384286 S    
N9    O50   1.300892 A    
O10   C6    1.297060 A    
C22   C23   1.403692 A    
C49   N6    1.433145 S    
C28   N14   1.452392 S    
C36   C39   1.548117 S    
N13   O58   1.299120 A    
C10   C14   1.414606 A    
C50   C52   1.419352 A    
N12   O55   1.295540 A    
C60   N4    1.441841 S    
C27   C32   1.547042 S    
O5    V1    2.034850 S    
O17   C7    1.300131 A    
O6    V2    2.034851 S    
C37   C42   1.541559 S    
O18   C8    1.300099 A    
C47   O38   1.384109 S    
C30   C33   1.540390 S    
C36   C42   1.540396 S    
O2    V4    2.033712 S    
C14   O47   1.383507 S    
N11   O54   1.295736 A    
C34   O62   1.395077 S    
V3    O19   2.171779 S    
O16   V4    2.010677 S    
N11   O53   1.299484 A    
C12   C14   1.407872 A    
V4    O20   2.171778 S    
C48   O37   1.383326 S    
N2    O23   1.301607 A    
O44   H10   0.987736 S    
C3    C43   1.471441 S    
C38   O64   1.398164 S    
O9    C5    1.296461 A    
O13   V1    2.166959 S    
C30   C32   1.549886 S    
C43   C49   1.405427 A    
O14   V2    2.166957 S    
O2    C4    1.294161 A    
C13   O48   1.384502 S    
N6    O36   1.300176 A    
C42   O28   1.397451 S    
N10   O51   1.300395 A    
C41   O27   1.397918 S    
O4    V2    2.012858 S    
C24   H2    1.081016 S    
C15   C17   1.423183 A    
C2    O12   1.299003 A    
C56   C57   1.420123 A    
O62   H16   0.991300 S    
N1    O22   1.301127 A    
C17   C21   1.429704 A    
N14   O59   1.298149 A    
C57   O43   1.384141 S    
O61   H15   0.990957 S    
N7    O39   1.300223 A    
O12   V4    2.012126 S    
O45   H11   0.991591 S    
C38   C40   1.550918 S    
C1    C40   1.497923 S    
C28   C31   1.546731 S    
