data_mof_unit_28866.cif
_audit_creation_date              2013-03-05T15:58:06-0500
_audit_creation_method            fapswitch 2.2
_symmetry_space_group_name_H-M    P1
_symmetry_Int_Tables_number       1
_space_group_crystal_system       triclinic
_cell_length_a                    12.888767
_cell_length_b                    13.190404
_cell_length_c                    14.948636
_cell_angle_alpha                 96.29855
_cell_angle_beta                  104.511625
_cell_angle_gamma                 82.086439
_cell_volume                      2429.37265993

loop_
_atom_site_label
_atom_site_type_symbol
_atom_site_description
_atom_site_fract_x
_atom_site_fract_y
_atom_site_fract_z
_atom_type_partial_charge
O1    O     O_R   0.366740 0.627160 0.477250 -0.553836
O2    O     O_R   0.544830 0.662520 0.507680 -0.606480
C1    C     C_R   0.440262 0.692153 0.494676 0.976052
O3    O     O_R   0.410940 0.482340 0.616930 -0.572892
O4    O     O_R   0.589030 0.517700 0.647360 -0.542963
C2    C     C_R   0.503063 0.500796 0.672825 0.973925
Zn1   Zn    Zn3+2 0.381090 0.476390 0.479680 1.159181
Zn2   Zn    Zn3+2 0.618910 0.523610 0.520320 1.124285
O5    O     O_R   0.455170 0.337480 0.492320 -0.578149
O6    O     O_R   0.633260 0.372840 0.522750 -0.566016
O7    O     O_R   0.410970 0.482300 0.352640 -0.560747
O8    O     O_R   0.589060 0.517660 0.383070 -0.572828
C3    C     C_R   0.560788 0.308523 0.509938 1.024182
C4    C     C_R   0.496548 0.499895 0.326856 0.994846
C5    C     C_R   0.485954 0.409779 0.172480 0.269228
C6    C     C_R   0.489373 0.501624 0.229445 -0.233075
C7    C     C_R   0.499395 0.593772 0.195507 0.294851
C8    C     C_R   0.487821 0.596606 0.100034 -0.117602
C9    C     C_R   0.502607 0.502354 0.046915 -0.016478
C10   C     C_R   0.511629 0.408078 0.086458 -0.077534
C11   C     C_R   0.463281 0.689814 0.056797 0.350158
C12   C     C_R   0.459104 0.689369 0.962521 0.393487
C13   C     C_R   0.476885 0.595300 0.909896 -0.108232
C14   C     C_R   0.506906 0.502260 0.954336 -0.057800
C15   C     C_R   0.539202 0.408989 0.905679 -0.070785
C16   C     C_R   0.557487 0.315446 0.948959 0.246006
C17   C     C_R   0.544401 0.315254 0.039104 0.212554
C18   C     C_R   0.462611 0.589223 0.813597 0.399137
C19   C     C_R   0.509548 0.502543 0.769992 -0.207491
C20   C     C_R   0.553462 0.414307 0.816005 0.359171
C21   C     C_R   0.729904 0.068091 0.606881 0.404286
C22   C     C_R   0.599971 0.199950 0.525743 -0.263755
C23   C     C_R   0.299002 0.844848 0.453911 0.211806
C24   C     C_R   0.266716 0.951067 0.467048 0.318765
C25   C     C_R   0.344931 0.018010 0.508218 0.255821
C26   C     C_R   0.455153 0.977707 0.530018 -0.021806
C27   C     C_R   0.479887 0.874160 0.546192 -0.116826
C28   C     C_R   0.541126 0.038236 0.542139 -0.012551
C29   C     C_R   0.645967 0.003969 0.594037 -0.202158
C30   C     C_R   0.660535 0.908649 0.632885 0.280968
C31   C     C_R   0.576174 0.846335 0.612283 0.243698
C32   C     C_R   0.526394 0.128059 0.496795 0.347686
C33   C     C_R   0.705212 0.167842 0.577319 0.362226
C34   C     C_R   0.404888 0.804448 0.499931 -0.190957
C35   C     C_R   0.088714 0.336465 0.373471 0.226288
N1    N     N_R   0.222190 0.444670 0.452360 -0.204113
C36   C     C_R   0.814673 0.576035 0.640957 0.452655
C37   C     C_R   0.917396 0.605872 0.678674 0.151183
C38   C     C_R   0.997452 0.572964 0.629995 0.239511
C39   C     C_R   0.968845 0.519685 0.540682 -0.098198
C40   C     C_R   0.856605 0.502700 0.503980 -0.022037
C41   C     C_R   0.048527 0.468878 0.492421 -0.081899
C42   C     C_R   0.023537 0.379235 0.434349 -0.194204
C43   C     C_R   0.926901 0.341550 0.430513 0.411116
C44   C     C_R   0.839552 0.411555 0.442913 0.280106
C45   C     C_R   0.150587 0.502259 0.497110 0.508393
C46   C     C_R   0.187854 0.372996 0.382561 0.297808
N2    N     N_R   0.776970 0.554790 0.547140 -0.169267
N3    N     N_R   0.450108 0.321321 0.198470 0.255197
O9    O     O_R   0.491586 0.286684 0.279302 -0.271536
O10   O     O_R   0.376545 0.273638 0.139587 -0.211069
N4    N     N_R   0.756998 0.876736 0.698831 0.265892
O11   O     O_R   0.834462 0.818950 0.670559 -0.323291
O12   O     O_R   0.770113 0.910211 0.785649 -0.173997
Cl1   Cl    Cl    0.867464 0.028876 0.657824 -0.257328
Cl2   Cl    Cl    0.433902 0.136662 0.388081 -0.354502
N5    N     N_R   0.226526 0.780084 0.391717 0.270150
O13   O     O_R   0.126338 0.784840 0.395853 -0.212812
O14   O     O_R   0.257216 0.724835 0.323342 -0.270272
N6    N     N_R   0.313703 0.123135 0.537715 0.250483
O15   O     O_R   0.365203 0.164024 0.616798 -0.296108
O16   O     O_R   0.234537 0.178689 0.486718 -0.308041
Cl3   Cl    Cl    0.129550 0.999996 0.429843 -0.247248
N7    N     N_R   0.572333 0.780817 0.680903 0.201478
O17   O     O_R   0.517181 0.818682 0.740915 -0.238137
O18   O     O_R   0.649853 0.707922 0.704629 -0.333409
N8    N     N_R   0.238792 0.354629 0.306785 0.241127
O19   O     O_R   0.261461 0.261126 0.274177 -0.184372
O20   O     O_R   0.226841 0.428092 0.252441 -0.292873
Cl4   Cl    Cl    0.907546 0.211147 0.396010 -0.268787
N9    N     N_R   0.046231 0.272083 0.292300 0.270346
O21   O     O_R   0.962934 0.307414 0.230012 -0.240201
O22   O     O_R   0.087381 0.176969 0.282467 -0.163516
N10   N     N_R   0.532262 0.679929 0.258713 0.243296
O23   O     O_R   0.470940 0.725534 0.311515 -0.347750
O24   O     O_R   0.623217 0.714310 0.261871 -0.255129
Cl5   Cl    Cl    0.175813 0.628982 0.535744 -0.403450
Cl6   Cl    Cl    0.795486 0.489663 0.716091 -0.358431
N11   N     N_R   0.107495 0.569428 0.682408 0.259097
O25   O     O_R   0.166823 0.481556 0.694868 -0.304055
O26   O     O_R   0.141832 0.651455 0.731110 -0.203652
N12   N     N_R   0.946843 0.635922 0.777086 0.288841
O27   O     O_R   0.879560 0.698408 0.814608 -0.184937
O28   O     O_R   0.023349 0.580788 0.831621 -0.221654
N13   N     N_R   0.746669 0.402369 0.369700 0.230143
O29   O     O_R   0.740557 0.447791 0.295155 -0.333921
O30   O     O_R   0.694697 0.322885 0.362043 -0.295286
Cl7   Cl    Cl    0.421516 0.807423 0.114852 -0.266459
Cl8   Cl    Cl    0.447234 0.810438 0.917648 -0.235796
Cl9   Cl    Cl    0.369623 0.677168 0.743431 -0.357057
Cl10  Cl    Cl    0.625374 0.314568 0.758316 -0.453854
N14   N     N_R   0.582036 0.218636 0.900688 0.264532
O31   O     O_R   0.505789 0.177015 0.839405 -0.230504
O32   O     O_R   0.675723 0.165591 0.927268 -0.198083
N15   N     N_R   0.574754 0.221700 0.085134 0.256949
O33   O     O_R   0.651995 0.217522 0.160243 -0.204043
O34   O     O_R   0.531007 0.138820 0.048823 -0.181998
Cl11  Cl    Cl    0.809759 0.248805 0.605066 -0.362671

loop_
_geom_bond_atom_site_label_1
_geom_bond_atom_site_label_2
_geom_bond_distance
_ccdc_geom_bond_type
C8    C11   1.412143 A    
C3    C22   1.475510 S    
C9    C10   1.412921 A    
N9    O21   1.301249 A    
N8    O19   1.297828 A    
Zn1   O7    2.041605 S    
N15   O34   1.301478 A    
C35   C46   1.396982 A    
C16   C17   1.399670 A    
N4    O11   1.299102 A    
N7    O18   1.296642 A    
C18   C19   1.393465 A    
N10   O24   1.302352 A    
C28   C32   1.396071 A    
C28   C29   1.419674 A    
O7    C4    1.312324 A    
C17   N15   1.437981 S    
C5    C6    1.401522 A    
C30   N4    1.423896 S    
Zn1   O5    1.951515 S    
C24   C25   1.410558 A    
O5    C3    1.329503 A    
N4    O12   1.301042 A    
Zn2   N2    2.065254 S    
C31   N7    1.425927 S    
C25   C26   1.415998 A    
C25   N6    1.442324 S    
C6    C7    1.400999 A    
C39   C41   1.449152 A    
C13   C14   1.420014 A    
N6    O15   1.301722 A    
N11   O26   1.301578 A    
C18   Cl9   1.770984 S    
C35   C42   1.411413 A    
N3    O9    1.297983 A    
C11   C12   1.396163 A    
O3    Zn1   1.985207 S    
N9    O22   1.300880 A    
C39   C40   1.452056 A    
C43   Cl4   1.773661 S    
N8    O20   1.300609 A    
C5    C10   1.403024 A    
C35   N9    1.436072 S    
C1    C34   1.488129 S    
N3    O10   1.301469 A    
N7    O17   1.297315 A    
N5    O13   1.300798 A    
Zn1   N1    2.077389 S    
C46   N8    1.428823 S    
C23   C24   1.412357 A    
N10   O23   1.298892 A    
O3    C2    1.305757 A    
C29   C30   1.412053 A    
C8    C9    1.416480 A    
C45   Cl5   1.754141 S    
C15   C16   1.419595 A    
C42   C43   1.389296 A    
N5    O14   1.300790 A    
C19   C20   1.395417 A    
C36   C37   1.395114 A    
Zn2   O8    1.985207 S    
N12   O28   1.302138 A    
C7    C8    1.401441 A    
C40   N2    1.407923 A    
C13   C18   1.399495 A    
C14   C15   1.424882 A    
N14   O32   1.301319 A    
C21   C33   1.403418 A    
C44   N13   1.414164 S    
C30   C31   1.405490 A    
O8    C4    1.309343 A    
N1    C46   1.358556 A    
C4    C6    1.438297 S    
C41   C42   1.412438 A    
C23   N5    1.441170 S    
C15   C20   1.408291 A    
C21   Cl1   1.774324 S    
C43   C44   1.391130 A    
C37   C38   1.402237 A    
C12   Cl8   1.772002 S    
O1    Zn1   1.975278 S    
C23   C34   1.424579 A    
C5    N3    1.436547 S    
Zn2   O6    1.975280 S    
O2    Zn2   1.951516 S    
C38   N11   1.435469 S    
O6    C3    1.312174 A    
O4    Zn2   2.041605 S    
N13   O30   1.299857 A    
C10   C17   1.412761 A    
N15   O33   1.301177 A    
C7    N10   1.435287 S    
C36   Cl6   1.765817 S    
C27   C34   1.424206 A    
C26   C28   1.417527 A    
O2    C1    1.321862 A    
C16   N14   1.432628 S    
C36   N2    1.375226 A    
C11   Cl7   1.777161 S    
O4    C2    1.311609 A    
C20   Cl10  1.774667 S    
N12   O27   1.300570 A    
C22   C33   1.415289 A    
C21   C29   1.426487 A    
C9    C14   1.398697 A    
C40   C44   1.434728 A    
C33   Cl11  1.774026 S    
C27   C31   1.410889 A    
N14   O31   1.301315 A    
C24   Cl3   1.767242 S    
C2    C19   1.431673 S    
C26   C27   1.392656 A    
C38   C39   1.425169 A    
C37   N12   1.448801 S    
N1    C45   1.371525 A    
N13   O29   1.302472 A    
C32   Cl2   1.762770 S    
C22   C32   1.392009 A    
C12   C13   1.417339 A    
N6    O16   1.298505 A    
O1    C1    1.323531 A    
N11   O25   1.301845 A    
C41   C45   1.426755 A    
