data_mof_unit_39430.cif
_audit_creation_date              2012-12-10T17:03:53-0500
_audit_creation_method            fapswitch 2.2
_symmetry_space_group_name_H-M    P1
_symmetry_Int_Tables_number       1
_space_group_crystal_system       triclinic
_cell_length_a                    9.929981
_cell_length_b                    11.087743
_cell_length_c                    15.84667
_cell_angle_alpha                 95.871641
_cell_angle_beta                  78.922837
_cell_angle_gamma                 111.492942
_cell_volume                      1592.19315838

loop_
_atom_site_label
_atom_site_type_symbol
_atom_type_description
_atom_site_fract_x
_atom_site_fract_y
_atom_site_fract_z
_atom_type_partial_charge
C1    C     C_R   0.556285 0.744704 0.505851 0.849380
C2    C     C_R   0.442778 0.254872 0.496053 0.845889
C3    C     C_R   0.331238 0.503213 0.078716 -0.190659
C4    C     C_R   0.681103 0.561690 0.924356 -0.204063
C5    C     C_R   0.232591 0.490395 0.024110 -0.212218
C6    C     C_R   0.781000 0.580158 0.979152 -0.212083
C7    C     C_2   0.582065 0.882330 0.516902 -0.281772
C8    C     C_2   0.414738 0.115875 0.490119 -0.408585
C9    C     C_2   0.506474 0.936002 0.480978 0.413082
C10   C     C_2   0.511051 0.067966 0.510626 0.348498
C11   C     C_2   0.941689 0.523604 0.479122 0.564962
C12   C     C_2   0.090786 0.530172 0.496091 0.420872
C13   C     C_R   0.411894 0.487318 0.662581 0.766961
C14   C     C_R   0.588276 0.513733 0.337437 0.789556
C15   C     C_R   0.361368 0.484868 0.756170 -0.050502
C16   C     C_R   0.640919 0.527591 0.244298 -0.048712
C17   C     C_R   0.174798 0.474953 0.881100 -0.181234
C18   C     C_R   0.835946 0.580396 0.121223 -0.197853
C19   C     C_R   0.217225 0.473811 0.791980 -0.161647
C20   C     C_R   0.790211 0.563881 0.209454 -0.150967
C21   C     C_R   0.462202 0.497719 0.810396 -0.222038
C22   C     C_R   0.538420 0.508473 0.189943 -0.226660
C23   C     C_R   0.424591 0.506303 0.900250 0.078146
C24   C     C_R   0.582158 0.530551 0.101476 0.082730
C25   C     C_R   0.276938 0.490503 0.935339 0.154515
C26   C     C_R   0.733363 0.563553 0.067086 0.159985
C27   C     C_R   0.528897 0.527850 0.955913 0.061361
C28   C     C_R   0.479843 0.519171 0.046340 0.064543
Cu1   Cu    Cu3+1 0.362980 0.479380 0.485080 1.081325
Cu2   Cu    Cu3+1 0.637020 0.520620 0.514920 1.112827
H1    H     H_    0.120175 0.479183 0.051725 0.147824
H2    H     H_    0.896629 0.607160 0.952282 0.151553
H3    H     H_    0.424075 0.473883 0.218023 0.181731
H4    H     H_    0.569252 0.497857 0.780988 0.186571
H5    H     H_    0.871492 0.579889 0.250155 0.179794
H6    H     H_    0.137400 0.463787 0.751315 0.184116
H7    H     H_    0.062168 0.464274 0.907717 0.140058
H8    H     H_    0.951881 0.607605 0.095318 0.133440
H9    H     H_    0.288032 0.504710 0.146405 0.167841
H10   H     H_    0.728040 0.579504 0.857641 0.177110
H11   H     H_    0.320993 0.054332 0.461138 0.175290
H12   H     H_    0.656668 0.937603 0.560542 0.178923
N1    N     N_2   0.842890 0.551600 0.537350 -0.023548
N2    N     N_2   0.157110 0.448400 0.462650 -0.063247
O1    O     O_R   0.426810 0.668300 0.492040 -0.515443
O2    O     O_R   0.573190 0.331700 0.507960 -0.536861
O3    O     O_R   0.658240 0.703130 0.517240 -0.544487
O4    O     O_R   0.341760 0.296870 0.482760 -0.505242
O5    O     O_R   0.319390 0.472820 0.610170 -0.631348
O6    O     O_R   0.680610 0.527180 0.389830 -0.542558
O7    O     O_R   0.550820 0.507640 0.635370 -0.530400
O8    O     O_R   0.449180 0.492360 0.364630 -0.564821
O9    O     O_3   0.614470 0.138271 0.561724 -0.680467
H13   H     H_    0.566926 0.183112 0.608680 0.332534
O10   O     O_3   0.426800 0.866581 0.417798 -0.697203
H14   H     H_    0.419759 0.928456 0.379590 0.315151
O11   O     O_3   0.164190 0.635579 0.543526 -0.644428
H15   H     H_    0.192808 0.602252 0.589944 0.359583
O12   O     O_3   0.908418 0.487209 0.397995 -0.682672
H16   H     H_    0.001614 0.520324 0.357016 0.312563
S1    S     S_3+6 0.064402 0.307753 0.406211 0.104427
O13   O     O_2   0.903522 0.257686 0.443287 -0.237786
O14   O     O_2   0.083789 0.338035 0.313352 -0.315353
O15   O     O_3   0.127620 0.187422 0.409177 -0.485370
H17   H     H_    0.069710 0.115391 0.373642 0.361322
S2    S     S_3+6 0.894712 0.658042 0.624119 0.100527
O16   O     O_2   0.945191 0.594705 0.685108 -0.346076
O17   O     O_2   0.015983 0.780775 0.592273 -0.234569
O18   O     O_3   0.756318 0.702180 0.678382 -0.504682
H18   H     H_    0.793780 0.752900 0.729546 0.350565

loop_
_geom_bond_atom_site_label_1
_geom_bond_atom_site_label_2
_ccdc_geom_bond_type
C5    C25   A    
S1    O15   S    
S2    O17   D    
Cu2   O7    S    
C14   O8    A    
C11   N1    D    
Cu1   Cu2   S    
C9    O10   S    
C14   C16   S    
C23   C27   A    
N2    S1    S    
C9    C10   S    
C6    H2    S    
C18   C26   A    
C16   C20   A    
C4    H10   S    
C17   C25   A    
O15   H17   S    
O10   H14   S    
C13   C15   S    
S2    O16   D    
Cu2   O6    S    
C3    H9    S    
O12   H16   S    
C12   N2    D    
Cu1   O5    S    
O9    H13   S    
C2    O2    A    
C15   C19   A    
C1    O1    A    
O11   H15   S    
C14   O6    A    
N1    S2    S    
C13   O5    A    
C12   O11   S    
O18   H18   S    
C3    C28   A    
C17   C19   A    
C24   C26   A    
C22   C24   A    
C19   H6    S    
C21   C23   A    
Cu1   N2    S    
C18   H8    S    
S1    O13   D    
C11   O12   S    
Cu2   N1    S    
C5    H1    S    
S2    O18   S    
Cu1   O4    S    
C7    C9    D    
Cu2   O3    S    
C15   C21   A    
C4    C27   A    
C8    H11   S    
C10   O9    S    
C18   C20   A    
C4    C6    A    
C23   C25   A    
C7    H12   S    
Cu1   O1    S    
C27   C28   A    
S1    O14   D    
C22   H3    S    
C6    C26   A    
C1    O3    A    
C1    C7    S    
C17   H7    S    
C21   H4    S    
C2    O4    A    
C13   O7    A    
C20   H5    S    
Cu2   O2    S    
C8    C10   D    
C2    C8    S    
C24   C28   A    
C11   C12   S    
C16   C22   A    
C3    C5    A    
Cu1   O8    S    
