data_mof_unit_57654.cif
_audit_creation_date              2012-12-11T14:33:57-0500
_audit_creation_method            fapswitch 2.2
_symmetry_space_group_name_H-M    P1
_symmetry_Int_Tables_number       1
_space_group_crystal_system       triclinic
_cell_length_a                    13.904895
_cell_length_b                    14.01172
_cell_length_c                    27.379419
_cell_angle_alpha                 89.821221
_cell_angle_beta                  90.457698
_cell_angle_gamma                 119.726428
_cell_volume                      4632.23507598

loop_
_atom_site_label
_atom_site_type_symbol
_atom_type_description
_atom_site_fract_x
_atom_site_fract_y
_atom_site_fract_z
_atom_type_partial_charge
C1    C     C_R   0.235752 0.785897 0.569421 0.540734
C2    C     C_R   0.213952 0.449106 0.569352 0.541740
C3    C     C_R   0.550314 0.763892 0.569753 0.542495
C4    C     C_3   0.653067 0.728158 0.793837 -0.052268
C5    C     C_3   0.262750 0.935822 0.789063 -0.052802
C6    C     C_3   0.051533 0.315958 0.786756 -0.082483
C7    C     C_3   0.626295 0.711175 0.737649 -0.057968
C8    C     C_3   0.284270 0.916748 0.734827 -0.058459
C9    C     C_3   0.070518 0.354432 0.731831 -0.060409
C10   C     C_1   0.684070 0.852102 0.864311 0.013127
C11   C     C_1   0.130666 0.857502 0.857768 0.011219
C12   C     C_1   0.136559 0.272680 0.857753 0.019472
C13   C     C_1   0.610932 0.804468 0.662119 -0.020600
C14   C     C_1   0.191735 0.805843 0.660462 -0.019553
C15   C     C_1   0.191439 0.384004 0.660322 0.025738
C16   C     C_1   0.590272 0.790156 0.619033 0.016359
C17   C     C_1   0.208056 0.798847 0.617979 0.019146
C18   C     C_1   0.200513 0.407834 0.617834 0.036649
C19   C     C_R   0.067089 0.152715 0.096290 0.582427
C20   C     C_R   0.779282 0.884979 0.088951 0.579003
C21   C     C_R   0.116599 0.893419 0.088179 0.553842
C22   C     C_R   0.076009 0.171689 0.942562 0.536850
C23   C     C_R   0.778048 0.886361 0.951406 0.550151
C24   C     C_R   0.095014 0.922427 0.942658 0.535167
C25   C     C_R   0.600669 0.886042 0.359544 -0.182697
C26   C     C_R   0.102158 0.724404 0.361726 -0.176149
C27   C     C_R   0.270091 0.370846 0.362962 -0.180833
C28   C     C_R   0.631596 0.905146 0.310851 -0.008393
C29   C     C_R   0.086320 0.734662 0.312105 -0.005801
C30   C     C_R   0.250385 0.322642 0.316830 0.000576
C31   C     C_R   0.674381 0.925272 0.210015 0.019396
C32   C     C_R   0.069473 0.750160 0.210222 0.061810
C33   C     C_R   0.215156 0.248860 0.219341 0.027749
C34   C     C_R   0.232013 0.788297 0.432021 0.565813
C35   C     C_R   0.211226 0.443943 0.431804 0.570319
C36   C     C_R   0.554901 0.767235 0.431892 0.575790
C37   C     C_R   0.625122 0.980980 0.232006 -0.144948
C38   C     C_R   0.996281 0.653115 0.235044 -0.122202
C39   C     C_R   0.320992 0.293885 0.241139 -0.133418
C40   C     C_R   0.604134 0.971026 0.281983 -0.123695
C41   C     C_R   0.005034 0.645373 0.285519 -0.137128
C42   C     C_R   0.338165 0.330107 0.289363 -0.111739
C43   C     C_R   0.695355 0.932412 0.159260 0.062947
C44   C     C_R   0.060060 0.761192 0.159489 0.071751
C45   C     C_R   0.198098 0.221255 0.169212 0.090615
C46   C     C_R   0.742075 0.872438 0.139412 0.037951
C47   C     C_R   0.135701 0.861062 0.136580 0.001367
C48   C     C_R   0.090699 0.179357 0.148557 0.028515
C49   C     C_R   0.678469 0.764731 0.367754 0.364888
C50   C     C_R   0.251619 0.914444 0.364540 0.364479
C51   C     C_R   0.074623 0.313220 0.370738 0.367854
C52   C     C_R   0.710660 0.783651 0.319005 0.028583
C53   C     C_R   0.240040 0.924341 0.314598 0.029369
C54   C     C_R   0.053718 0.264363 0.324441 0.028992
C55   C     C_R   0.683613 0.851143 0.289988 0.010857
C56   C     C_R   0.158637 0.833287 0.288023 0.007168
C57   C     C_R   0.142671 0.272350 0.296712 0.011033
C58   C     C_R   0.762574 0.730308 0.297914 -0.094917
C59   C     C_R   0.313937 0.021079 0.290244 -0.098556
C60   C     C_R   0.946650 0.213335 0.304181 -0.095103
C61   C     C_R   0.782118 0.738882 0.248099 -0.146212
C62   C     C_R   0.310432 0.025989 0.239732 -0.149393
C63   C     C_R   0.929083 0.176506 0.255997 -0.141785
C64   C     C_R   0.751443 0.801934 0.219039 0.000338
C65   C     C_R   0.230224 0.935975 0.213244 0.002515
C66   C     C_R   0.017825 0.189280 0.227445 0.007875
C67   C     C_3   0.533229 0.825892 0.740621 0.238613
C68   C     C_3   0.158370 0.712949 0.742005 0.248595
C69   C     C_3   0.277387 0.448506 0.742919 0.233280
C70   C     C_R   0.704096 0.860462 0.239703 0.049417
C71   C     C_R   0.152166 0.839929 0.237157 0.042018
C72   C     C_R   0.124916 0.235099 0.248001 0.050232
C73   C     C_R   0.767707 0.806642 0.169424 -0.153462
C74   C     C_R   0.225024 0.942747 0.163180 -0.145881
C75   C     C_R   0.001549 0.160845 0.178186 -0.165600
C76   C     C_R   0.617402 0.810410 0.387014 0.013614
C77   C     C_R   0.189940 0.811468 0.387060 0.010137
C78   C     C_R   0.183973 0.371791 0.388920 0.008861
C79   C     C_3   0.739114 0.919887 0.728294 -0.134827
C80   C     C_3   0.076065 0.832733 0.720320 -0.127722
C81   C     C_3   0.172185 0.246854 0.721517 -0.133698
C82   C     C_3   0.750860 0.937177 0.784249 0.258389
C83   C     C_3   0.052648 0.832647 0.775253 0.254354
C84   C     C_3   0.171070 0.225156 0.776771 0.254920
C85   C     C_1   0.721044 0.867514 0.905374 0.017896
C86   C     C_1   0.114186 0.883668 0.897377 0.030232
C87   C     C_1   0.112739 0.229669 0.897304 0.032730
C88   C     C_3   0.628169 0.815267 0.715523 0.032695
C89   C     C_3   0.177738 0.817179 0.712783 0.029913
C90   C     C_3   0.177935 0.358632 0.712643 0.058380
C91   C     C_3   0.546088 0.828842 0.797507 -0.163562
C92   C     C_3   0.151932 0.730775 0.798066 -0.157882
C93   C     C_3   0.257626 0.424220 0.798828 -0.156893
C94   C     C_3   0.658196 0.836448 0.811484 0.053505
C95   C     C_3   0.149413 0.839274 0.806552 0.052385
C96   C     C_3   0.153758 0.309347 0.806530 0.060774
Cr1   Cr    Cr6+3 0.164410 0.584450 0.499910 1.091183
Cr2   Cr    Cr6+3 0.415550 0.579960 0.499910 1.080917
Cr3   Cr    Cr6+3 0.420040 0.835590 0.499910 1.086109
Cr4   Cr    Cr6+3 0.155170 0.075460 0.019960 1.058865
Cr5   Cr    Cr6+3 0.924540 0.079710 0.019960 1.050315
Cr6   Cr    Cr6+3 0.920290 0.844830 0.019960 1.021386
H1    H     H_    0.540958 0.899609 0.812831 0.218751
H2    H     H_    0.077424 0.659507 0.813915 0.223465
H3    H     H_    0.332010 0.428181 0.816323 0.222153
H4    H     H_    0.451296 0.755067 0.730218 0.089377
H5    H     H_    0.227593 0.696344 0.735332 0.085735
H6    H     H_    0.287295 0.530958 0.735230 0.085193
H7    H     H_    0.476425 0.753208 0.813485 0.027160
H8    H     H_    0.225121 0.735098 0.816995 0.027853
H9    H     H_    0.245353 0.488701 0.816576 0.031687
H10   H     H_    0.554690 0.922833 0.374581 0.167965
H11   H     H_    0.052330 0.645598 0.379362 0.162762
H12   H     H_    0.354212 0.414274 0.377073 0.158160
H13   H     H_    0.601523 0.031637 0.210925 0.111022
H14   H     H_    0.932140 0.582784 0.215661 0.151922
H15   H     H_    0.392190 0.304546 0.220968 0.102751
H16   H     H_    0.563803 0.012729 0.297851 0.130826
H17   H     H_    0.949090 0.569022 0.303682 0.130916
H18   H     H_    0.421170 0.367656 0.304621 0.127347
H19   H     H_    0.805129 0.761387 0.154422 0.133798
H20   H     H_    0.286606 0.016917 0.145340 0.133838
H21   H     H_    0.919356 0.126895 0.162296 0.125422
H22   H     H_    0.819184 0.694386 0.232051 0.122605
H23   H     H_    0.369979 0.100539 0.221405 0.098015
H24   H     H_    0.846759 0.141795 0.240479 0.124152
H25   H     H_    0.784664 0.678917 0.319442 0.181164
H26   H     H_    0.377137 0.091642 0.309909 0.177841
H27   H     H_    0.876935 0.205363 0.324855 0.182493
H28   H     H_    0.810889 0.914696 0.714076 0.025830
H29   H     H_    0.089207 0.910524 0.703579 0.027821
H30   H     H_    0.097220 0.178950 0.703971 0.038191
H31   H     H_    0.742741 0.993054 0.710415 0.213645
H32   H     H_    0.001947 0.765633 0.701691 0.216689
H33   H     H_    0.244402 0.246295 0.704534 0.211809
H34   H     H_    0.834320 0.953255 0.796083 0.106618
H35   H     H_    0.038049 0.902154 0.783529 0.094451
H36   H     H_    0.105298 0.139436 0.784744 0.094279
H37   H     H_    0.539726 0.642031 0.734128 0.197773
H38   H     H_    0.349235 0.892540 0.736188 0.195220
H39   H     H_    0.085933 0.440453 0.731297 0.190350
H40   H     H_    0.583715 0.658352 0.813437 0.158335
H41   H     H_    0.329181 0.936027 0.812266 0.153818
H42   H     H_    0.045693 0.380240 0.808346 0.158967
O1    O     O_R   0.137150 0.468200 0.553200 -0.484086
O2    O     O_R   0.531800 0.668950 0.553200 -0.495837
O3    O     O_R   0.331050 0.862850 0.553200 -0.496579
O4    O     O_R   0.179100 0.982980 0.967000 -0.498235
O5    O     O_R   0.017020 0.196120 0.967000 -0.480751
O6    O     O_R   0.803880 0.820900 0.967000 -0.500133
O7    O     O_R   0.173970 0.688730 0.549930 -0.490825
O8    O     O_R   0.311270 0.485240 0.549930 -0.498060
O9    O     O_R   0.514760 0.826030 0.549930 -0.488735
O10   O     O_R   0.140110 0.470540 0.446010 -0.435199
O11   O     O_R   0.529460 0.669570 0.446010 -0.440121
O12   O     O_R   0.330430 0.859890 0.446010 -0.433915
O13   O     O_R   0.176710 0.690910 0.450560 -0.520393
O14   O     O_R   0.309090 0.485800 0.450560 -0.519773
O15   O     O_R   0.514200 0.823290 0.450560 -0.519996
O16   O     O_3   0.333333 0.666667 0.499990 -0.310259
O17   O     O_R   0.176750 0.985260 0.074180 -0.514872
O18   O     O_R   0.014740 0.191490 0.074180 -0.496235
O19   O     O_R   0.808510 0.823250 0.074180 -0.535970
O20   O     O_R   0.146100 0.172630 0.068980 -0.433546
O21   O     O_R   0.827370 0.973470 0.068980 -0.489867
O22   O     O_R   0.026530 0.853900 0.068980 -0.500527
O23   O     O_3   0.000000 0.000000 0.020040 -0.293155
O24   O     O_R   0.148270 0.170520 0.969620 -0.487330
O25   O     O_R   0.829480 0.977750 0.969620 -0.506204
O26   O     O_R   0.022250 0.851730 0.969620 -0.481527
N1    N     N_3   0.754634 0.727161 0.807383 -0.575305
H43   H     H_    0.819651 0.785289 0.786393 0.276317
H44   H     H_    0.744261 0.649491 0.799769 0.329756
N2    N     N_3   0.267700 0.041428 0.796491 -0.564642
H45   H     H_    0.216511 0.049499 0.770728 0.264496
H46   H     H_    0.349040 0.104285 0.790681 0.330223
N3    N     N_3   0.948929 0.212561 0.795185 -0.586468
H47   H     H_    0.945411 0.150761 0.772825 0.240341
H48   H     H_    0.881712 0.223988 0.787230 0.309859
N4    N     N_3   0.670234 0.999147 0.127656 -0.625497
H49   H     H_    0.713956 0.080425 0.139982 0.222857
H50   H     H_    0.585358 0.971479 0.129482 0.232182
N5    N     N_3   0.974758 0.671501 0.132117 -0.650961
H51   H     H_    0.916916 0.693200 0.119913 0.247880
H52   H     H_    0.010658 0.656167 0.101916 0.244404
N6    N     N_3   0.289643 0.240934 0.138671 -0.591816
H53   H     H_    0.326712 0.197283 0.152373 0.207732
H54   H     H_    0.347527 0.324898 0.139335 0.232283
F1    F     F_    0.535341 0.920962 0.724749 -0.628612
F2    F     F_    0.061419 0.621493 0.726395 -0.613881
F3    F     F_    0.374686 0.451277 0.729536 -0.625438
F4    F     F_    0.699797 0.696289 0.395317 -0.620494
F5    F     F_    0.330157 0.002181 0.390024 -0.621675
F6    F     F_    0.989477 0.308289 0.396850 -0.618364
F7    F     F_    0.742908 0.029046 0.796065 -0.632293
F8    F     F_    0.957036 0.735831 0.786443 -0.638035
F9    F     F_    0.272079 0.235708 0.790365 -0.628610
N7    N     N_3   0.696563 0.677287 0.711450 -0.578744
H55   H     H_    0.658683 0.641399 0.678157 0.263906
H56   H     H_    0.773699 0.744723 0.703509 0.238502
N8    N     N_3   0.329069 0.017450 0.705115 -0.585140
H57   H     H_    0.370441 0.009250 0.675080 0.273687
H58   H     H_    0.265736 0.029619 0.691413 0.231337
N9    N     N_3   0.974970 0.291318 0.699207 -0.602294
H59   H     H_    0.907694 0.298645 0.711129 0.276272
H60   H     H_    0.952067 0.208325 0.698088 0.234844

loop_
_geom_bond_atom_site_label_1
_geom_bond_atom_site_label_2
_ccdc_geom_bond_type
Cr6   O26   S    
C15   C18   T    
C40   H16   S    
N1    H43   S    
C10   C85   T    
Cr6   O23   S    
C82   C94   S    
C4    N1    S    
Cr3   O15   S    
C26   C29   A    
C2    C18   S    
C33   C45   A    
N8    H57   S    
C14   C17   T    
C35   O10   A    
C27   C78   A    
C92   H8    S    
C69   F3    S    
C6    C9    S    
C53   C59   A    
C49   F4    S    
Cr2   O8    S    
C55   C70   A    
C25   C28   A    
C20   O21   A    
N1    H44   S    
C67   C88   S    
C33   C39   A    
C31   C43   A    
C60   C63   A    
C75   H21   S    
Cr5   O18   S    
C37   C40   A    
C69   C93   S    
C80   C83   S    
C34   C77   S    
C4    H40   S    
C50   F5    S    
C45   N6    S    
C53   C56   A    
C28   C40   A    
C11   C86   T    
C30   C57   A    
C3    O9    A    
C80   H32   S    
C84   C96   S    
C80   C89   S    
Cr5   O23   S    
C22   O5    A    
N2    H45   S    
C36   C76   S    
C33   C72   A    
C93   H3    S    
C28   C55   A    
C31   C70   A    
C66   C72   A    
Cr2   O14   S    
Cr6   O19   S    
N3    H48   S    
C64   C73   A    
Cr5   O25   S    
N7    H55   S    
C68   H5    S    
C32   C38   A    
C39   C42   A    
C24   O26   A    
C36   O15   A    
C52   C55   A    
C22   O24   A    
C56   C71   A    
C58   C61   A    
C63   C66   A    
C84   H36   S    
C58   H25   S    
Cr6   O22   S    
C80   H29   S    
Cr3   O16   S    
C27   C30   A    
N8    H58   S    
C48   C75   A    
C4    C7    S    
C79   C88   S    
C5    C95   S    
C69   H6    S    
N4    H50   S    
C81   H33   S    
C32   C71   A    
C2    O8    A    
C79   H31   S    
C43   N4    S    
C50   C53   A    
C21   O17   A    
C26   C77   A    
Cr1   O16   S    
C38   C41   A    
C24   O4    A    
C91   H1    S    
C21   C47   S    
C9    H39   S    
C19   C48   S    
C81   H30   S    
C54   C60   A    
Cr2   O2    S    
C59   H26   S    
C39   H15   S    
C20   O19   A    
C92   C95   S    
C21   O22   A    
C31   C37   A    
C2    O1    A    
C19   O18   A    
Cr1   O13   S    
C9    C90   S    
C61   C64   A    
N5    H51   S    
C34   O13   A    
C14   C89   S    
C9    N9    S    
C62   H23   S    
C38   H14   S    
C92   H2    S    
C7    C88   S    
C23   O25   A    
C6    H42   S    
C68   F2    S    
C67   F1    S    
C49   C52   A    
C83   C95   S    
Cr3   O12   S    
C67   C91   S    
C68   C89   S    
Cr1   O7    S    
C49   C76   A    
Cr4   O20   S    
C22   C87   S    
C41   H17   S    
Cr5   O21   S    
C44   N5    S    
C82   F7    S    
Cr4   O17   S    
C52   C58   A    
Cr6   O6    S    
C4    C94   S    
C81   C90   S    
C74   H20   S    
C23   O6    A    
Cr2   O16   S    
C93   C96   S    
C6    C96   S    
Cr4   O23   S    
C6    N3    S    
C1    O3    A    
C5    C8    S    
N6    H54   S    
C69   C90   S    
C50   C77   A    
C83   H35   S    
C81   C84   S    
N4    H49   S    
C45   C48   A    
C11   C95   S    
Cr3   O3    S    
Cr2   O11   S    
C8    N8    S    
C59   C62   A    
C62   C65   A    
C29   C41   A    
C83   F8    S    
Cr1   O1    S    
C30   C42   A    
C47   C74   A    
N9    H60   S    
C51   F6    S    
Cr1   O10   S    
C60   H27   S    
C79   C82   S    
C44   C47   A    
C67   H4    S    
C37   H13   S    
C29   C56   A    
C34   O12   A    
C84   F9    S    
C35   C78   S    
C1    C17   S    
C8    H38   S    
Cr4   O24   S    
C51   C54   A    
C91   H7    S    
C7    N7    S    
N5    H52   S    
C51   C78   A    
C12   C87   T    
C65   C71   A    
C25   C76   A    
C15   C90   S    
C7    H37   S    
C79   H28   S    
C42   H18   S    
C25   H10   S    
Cr4   O4    S    
C66   C75   A    
Cr3   O9    S    
C13   C88   S    
Cr5   O5    S    
C68   C92   S    
C61   H22   S    
C1    O7    A    
C19   O20   A    
C46   C73   A    
C57   C72   A    
C82   H34   S    
C43   C46   A    
N2    H46   S    
C35   O14   A    
C63   H24   S    
C5    H41   S    
C65   C74   A    
C5    N2    S    
C27   H12   S    
N9    H59   S    
C32   C44   A    
C3    O2    A    
N3    H47   S    
C23   C85   S    
C13   C16   T    
C10   C94   S    
C12   C96   S    
N7    H56   S    
C8    C89   S    
C26   H11   S    
N6    H53   S    
C24   C86   S    
C93   H9    S    
C64   C70   A    
C20   C46   S    
C3    C16   S    
C36   O11   A    
C73   H19   S    
C91   C94   S    
C54   C57   A    
