data_mof_unit_21190.cif
_audit_creation_date              2013-03-05T16:14:56-0500
_audit_creation_method            fapswitch 2.2
_symmetry_space_group_name_H-M    P1
_symmetry_Int_Tables_number       1
_space_group_crystal_system       triclinic
_cell_length_a                    19.528129
_cell_length_b                    10.869756
_cell_length_c                    9.646026
_cell_angle_alpha                 88.865235
_cell_angle_beta                  90.500308
_cell_angle_gamma                 92.424675
_cell_volume                      2045.2251194

loop_
_atom_site_label
_atom_site_type_symbol
_atom_site_description
_atom_site_fract_x
_atom_site_fract_y
_atom_site_fract_z
_atom_type_partial_charge
O1    O     O_R   0.500030 0.316850 0.620870 -0.527146
O2    O     O_R   0.499970 0.683150 0.379130 -0.527193
O3    O     O_R   0.500000 0.316860 0.379090 -0.524850
O4    O     O_R   0.500000 0.683140 0.620910 -0.524844
C1    C     C_R   0.498702 0.260272 0.500070 0.884562
C2    C     C_R   0.501311 0.739726 0.499932 0.884410
O5    O     O_R   0.400160 0.499980 0.620930 -0.524734
O6    O     O_R   0.599840 0.500020 0.379070 -0.524690
O7    O     O_R   0.400130 0.499990 0.379150 -0.520469
O8    O     O_R   0.599870 0.500010 0.620850 -0.520391
C3    C     C_R   0.367249 0.496121 0.499620 0.877887
C4    C     C_R   0.632748 0.503950 0.500389 0.878010
Cu1   Cu    Cu3+1 0.500020 0.499990 0.643150 1.158443
Cu2   Cu    Cu3+1 0.499980 0.500010 0.356850 1.158400
C5    C     C_R   0.250671 0.443354 0.614156 0.202767
C6    C     C_R   0.749362 0.556666 0.385918 0.202708
C7    C     C_R   0.178338 0.447931 0.611992 0.246247
C8    C     C_R   0.821694 0.551944 0.388171 0.246222
C9    C     C_R   0.144490 0.505325 0.501245 -0.163502
C10   C     C_R   0.855480 0.494581 0.499029 -0.163468
C11   C     C_R   0.181593 0.551546 0.385925 -0.000464
C12   C     C_R   0.818329 0.448611 0.614389 -0.000333
C13   C     C_R   0.252997 0.536159 0.381322 0.308675
C14   C     C_R   0.746958 0.464264 0.618939 0.308747
C15   C     C_R   0.289601 0.491358 0.498753 -0.304032
C16   C     C_R   0.710392 0.508795 0.501333 -0.304006
N1    N     N_R   0.035269 0.608878 0.507212 -0.201646
N2    N     N_R   0.964694 0.390958 0.493217 -0.201374
N3    N     N_R   0.967100 0.605838 0.506679 -0.165913
N4    N     N_R   0.032865 0.394001 0.493744 -0.165912
C17   C     C_R   0.930770 0.496877 0.499794 0.486798
C18   C     C_R   0.069196 0.502970 0.500604 0.486905
C19   C     C_3   0.549731 0.046422 0.579767 0.273903
C20   C     C_3   0.450295 0.953574 0.420241 0.273672
C21   C     C_3   0.561240 0.966046 0.452770 -0.120213
C22   C     C_3   0.438782 0.033946 0.547238 -0.120289
C23   C     C_3   0.501858 0.876409 0.502374 -0.300144
C24   C     C_3   0.498164 0.123588 0.497633 -0.300140
C25   C     C_3   0.491183 0.958329 0.629795 0.255364
C26   C     C_3   0.508841 0.041665 0.370213 0.255393
C27   C     C_3   0.493636 0.608546 0.046185 0.191211
C28   C     C_3   0.506366 0.391450 0.953816 0.191303
C29   C     C_3   0.444040 0.540542 0.947708 0.221661
C30   C     C_3   0.555959 0.459452 0.052292 0.221739
N5    N     N_3   0.500050 0.499970 0.858290 -0.322049
N6    N     N_3   0.499950 0.500030 0.141710 -0.322127
C31   C     C_3   0.549996 0.568461 0.950780 0.205241
C32   C     C_3   0.450006 0.431534 0.049224 0.205068
N7    N     N_R   0.282787 0.382433 0.729947 0.183961
O9    O     O_R   0.332703 0.310278 0.709618 -0.369783
O10   O     O_R   0.254660 0.380304 0.851741 -0.175691
N8    N     N_R   0.717302 0.617699 0.270124 0.184018
O11   O     O_R   0.667297 0.689667 0.290411 -0.369916
O12   O     O_R   0.745528 0.620109 0.148417 -0.175455
N9    N     N_R   0.605396 0.653035 0.903230 0.228855
O13   O     O_R   0.643615 0.710591 0.993917 -0.168109
O14   O     O_R   0.611376 0.685692 0.773793 -0.278884
N10   N     N_R   0.394639 0.346896 0.096794 0.228907
O15   O     O_R   0.356408 0.289338 0.006132 -0.168153
O16   O     O_R   0.388690 0.314221 0.226232 -0.278693
N11   N     N_R   0.138241 0.388885 0.720420 0.171870
O17   O     O_R   0.099016 0.453096 0.796882 -0.304654
O18   O     O_R   0.136866 0.269573 0.735420 -0.270857
N12   N     N_R   0.861860 0.610806 0.279733 0.171874
O19   O     O_R   0.863456 0.730133 0.264823 -0.270998
O20   O     O_R   0.901005 0.546404 0.203309 -0.304703
C33   C     C_3   0.145121 0.612592 0.263745 -0.307192
C34   C     C_3   0.148015 0.752375 0.277727 -0.650648
H1    H     H_    0.122303 0.778645 0.374306 0.256522
H2    H     H_    0.201954 0.788911 0.280314 0.288408
H3    H     H_    0.121454 0.795145 0.187884 0.264044
H4    H     H_    0.167849 0.588990 0.163278 0.274649
H5    H     H_    0.090758 0.579634 0.254760 0.223360
C35   C     C_3   0.854679 0.387318 0.736555 -0.307652
C36   C     C_3   0.851281 0.247512 0.722746 -0.651028
H6    H     H_    0.797211 0.211543 0.721037 0.288893
H7    H     H_    0.876542 0.220872 0.625765 0.256363
H8    H     H_    0.878032 0.204563 0.812247 0.264030
H9    H     H_    0.909156 0.419656 0.745334 0.223485
H10   H     H_    0.832104 0.411284 0.837052 0.274648
N13   N     N_R   0.285112 0.545717 0.249297 0.150415
O21   O     O_R   0.303153 0.653606 0.198466 -0.237101
O22   O     O_R   0.273385 0.455488 0.164813 -0.247806
N14   N     N_R   0.714864 0.455283 0.751014 0.150152
O23   O     O_R   0.727187 0.545150 0.835742 -0.247771
O24   O     O_R   0.695747 0.347752 0.801422 -0.237073
C37   C     C_3   0.631298 0.927409 0.403904 -0.261438
C38   C     C_3   0.684903 0.033661 0.392692 -0.602462
H11   H     H_    0.662027 0.118887 0.351797 0.286865
H12   H     H_    0.708943 0.051720 0.495215 0.262151
H13   H     H_    0.726186 0.008265 0.321541 0.261773
H14   H     H_    0.650438 0.855603 0.476203 0.227757
H15   H     H_    0.624097 0.888505 0.299998 0.307357
C39   C     C_3   0.368709 0.072517 0.596092 -0.261359
C40   C     C_3   0.315138 0.966206 0.607287 -0.602608
H16   H     H_    0.291122 0.948095 0.504755 0.262150
H17   H     H_    0.338038 0.881015 0.648214 0.286813
H18   H     H_    0.273832 0.991564 0.678405 0.261854
H19   H     H_    0.375889 0.111422 0.700001 0.307381
H20   H     H_    0.349549 0.144305 0.523792 0.227828
N15   N     N_R   0.605832 0.098221 0.663008 0.186008
O25   O     O_R   0.640449 0.026347 0.744089 -0.225734
O26   O     O_R   0.633601 0.203968 0.624739 -0.362852
N16   N     N_R   0.394204 0.901775 0.336977 0.186095
O27   O     O_R   0.359509 0.973673 0.256069 -0.225555
O28   O     O_R   0.366555 0.795864 0.374996 -0.362420
N17   N     N_R   0.483458 0.918650 0.774404 0.205011
O29   O     O_R   0.428523 0.942148 0.842380 -0.220934
O30   O     O_R   0.535351 0.876137 0.841863 -0.196094
N18   N     N_R   0.516566 0.081325 0.225599 0.204995
O31   O     O_R   0.571513 0.057847 0.157651 -0.221011
O32   O     O_R   0.464657 0.123723 0.158094 -0.196009
N19   N     N_R   0.384177 0.597486 0.887513 0.200017
O33   O     O_R   0.324001 0.573554 0.939070 -0.211257
O34   O     O_R   0.392374 0.690403 0.801769 -0.300731
N20   N     N_R   0.615831 0.402550 0.112500 0.200085
O35   O     O_R   0.676056 0.426924 0.061363 -0.211578
O36   O     O_R   0.607668 0.309532 0.198115 -0.300631
N21   N     N_R   0.484597 0.732016 0.096609 0.207631
O37   O     O_R   0.425624 0.782077 0.083322 -0.171915
O38   O     O_R   0.537215 0.798309 0.138811 -0.260263
N22   N     N_R   0.515376 0.267967 0.903395 0.207690
O39   O     O_R   0.574313 0.217801 0.916820 -0.171968
O40   O     O_R   0.462749 0.201750 0.861098 -0.260333

loop_
_geom_bond_atom_site_label_1
_geom_bond_atom_site_label_2
_geom_bond_distance
_ccdc_geom_bond_type
Cu1   N5    2.075238 S    
N9    O13   1.297842 A    
N15   O25   1.300110 A    
N1    N3    1.330181 A    
C20   C23   1.541526 S    
C27   C29   1.529032 S    
C40   H16   1.108460 S    
O7    Cu2   1.963569 S    
N16   O28   1.298264 A    
N13   O21   1.298114 A    
C40   H18   1.110493 S    
Cu2   N6    2.075236 S    
C5    N7    1.439776 S    
C25   N17   1.459062 S    
C19   C25   1.534827 S    
C19   N15   1.453380 S    
C9    C11   1.405673 A    
N14   O24   1.298359 A    
C19   C21   1.542179 S    
C5    C15   1.430941 A    
C3    C15   1.514967 S    
N10   O16   1.296153 A    
N20   O35   1.294313 A    
C33   H4    1.108583 S    
O4    Cu1   1.998109 S    
N11   O18   1.301255 A    
N18   O31   1.299286 A    
C7    N11   1.436709 S    
C21   C37   1.529036 S    
C30   N6    1.485653 S    
C34   H1    1.110129 S    
N7    O10   1.300604 A    
C27   N6    1.490921 S    
C33   H5    1.109191 S    
C29   C32   1.529753 S    
C8    C10   1.401299 A    
C30   C31   1.529743 S    
N5    C31   1.500389 S    
N15   O26   1.298272 A    
C24   C26   1.552628 S    
C35   H10   1.108654 S    
Cu1   Cu2   2.761646 S    
C11   C33   1.526735 S    
N17   O30   1.296179 A    
O2    C2    1.327854 A    
C28   C30   1.528983 S    
C9    C18   1.469456 S    
N16   O27   1.300113 A    
N13   O22   1.299176 A    
N8    O12   1.300618 A    
N21   O38   1.297086 A    
C6    C16   1.430971 A    
C23   C25   1.552605 S    
N6    C32   1.500376 S    
C35   C36   1.526702 S    
C33   C34   1.526655 S    
N14   O23   1.299370 A    
O4    C2    1.308253 A    
C26   N18   1.459056 S    
N10   O15   1.297839 A    
C20   N16   1.453357 S    
C4    C16   1.514874 S    
C28   N5    1.490960 S    
N12   O20   1.301298 A    
O5    C3    1.330645 A    
C36   H6    1.110426 S    
N2    C17   1.355209 A    
O7    C3    1.331631 A    
C38   H13   1.110493 S    
C39   H20   1.110783 S    
O6    C4    1.330714 A    
C27   C31   1.523888 S    
C2    C23   1.485948 S    
C39   C40   1.528450 S    
C28   C32   1.523900 S    
C27   N21   1.454762 S    
C29   N5    1.485646 S    
O3    Cu2   1.998109 S    
O8    C4    1.331527 A    
C34   H2    1.110121 S    
C38   H12   1.108469 S    
C35   H9    1.109260 S    
N9    O14   1.296150 A    
C12   C14   1.412370 A    
O1    Cu1   2.006489 S    
C12   C35   1.526676 S    
N17   O29   1.299288 A    
N22   O40   1.297083 A    
C22   C24   1.555223 S    
O1    C1    1.327846 A    
C37   H14   1.110785 S    
N8    O11   1.295322 A    
C28   N22   1.454793 S    
C31   N9    1.460736 S    
N19   O33   1.294269 A    
C5    C7    1.415474 A    
O6    Cu2   1.959957 S    
C13   N13   1.424475 S    
C21   C23   1.555195 S    
N1    C18   1.355157 A    
C22   C25   1.545280 S    
C6    N8    1.439889 S    
C10   C12   1.405592 A    
O3    C1    1.308273 A    
O8    Cu1   1.963569 S    
N21   O37   1.298650 A    
C40   H17   1.109417 S    
C32   N10   1.460733 S    
C19   C24   1.541588 S    
N12   O19   1.301262 A    
C11   C13   1.412583 A    
C21   C26   1.545266 S    
C14   N14   1.424518 S    
N3    C17   1.357089 A    
C29   N19   1.456698 S    
N4    C18   1.357148 A    
C14   C16   1.422849 A    
C8    N12   1.436683 S    
C39   H19   1.101109 S    
C34   H3    1.110313 S    
C37   H15   1.101117 S    
N2    N4    1.330243 A    
C7    C9    1.401233 A    
N20   O36   1.298203 A    
C20   C22   1.542164 S    
C13   C15   1.422904 A    
N11   O17   1.301297 A    
O2    Cu2   2.006491 S    
C36   H8    1.110400 S    
N18   O32   1.296183 A    
C22   C39   1.529046 S    
O5    Cu1   1.959957 S    
C38   H11   1.109423 S    
C30   N20   1.456686 S    
C37   C38   1.528426 S    
C6    C8    1.415571 A    
N7    O9    1.295322 A    
C36   H7    1.110497 S    
C20   C26   1.534790 S    
N22   O39   1.298641 A    
C1    C24   1.485967 S    
N19   O34   1.298196 A    
C10   C17   1.469374 S    
