data_mof_unit_57756.cif
_audit_creation_date              2013-03-05T15:42:32-0500
_audit_creation_method            fapswitch 2.2
_symmetry_space_group_name_H-M    P1
_symmetry_Int_Tables_number       1
_space_group_crystal_system       triclinic
_cell_length_a                    7.075162
_cell_length_b                    14.905699
_cell_length_c                    16.25752
_cell_angle_alpha                 90.426237
_cell_angle_beta                  89.703815
_cell_angle_gamma                 89.426788
_cell_volume                      1714.36506597

loop_
_atom_site_label
_atom_site_type_symbol
_atom_site_description
_atom_site_fract_x
_atom_site_fract_y
_atom_site_fract_z
_atom_type_partial_charge
O1    O     O_R   0.494490 0.416160 0.413410 -0.557204
O2    O     O_R   0.823830 0.407240 0.585990 -0.537239
O3    O     O_R   0.994160 0.583840 0.586590 -0.560073
C1    C     C_R   0.654406 0.386370 0.613782 0.819326
O4    O     O_R   0.824200 0.405280 0.414020 -0.548008
O5    O     O_R   0.994530 0.581860 0.413390 -0.546085
C2    C     C_R   0.655798 0.382499 0.386983 0.878113
O6    O     O_R   0.494110 0.418140 0.586610 -0.550790
O7    O     O_3   0.660810 0.557940 0.500000 -0.272352
V1    V     V_3+5 0.935650 0.489250 0.500000 1.256127
O8    O     O_R   0.324250 0.592760 0.414010 -0.507735
C3    C     C_R   0.154012 0.613194 0.386165 0.872736
O9    O     O_R   0.323880 0.594720 0.585980 -0.556242
C4    C     C_R   0.153778 0.614210 0.616298 0.909465
V2    V     V_3+5 0.435660 0.510750 0.500000 1.271925
O10   O     O_3   0.160630 0.442060 0.500000 -0.275358
C5    C     C_3   0.938848 0.680967 0.734290 0.282847
C6    C     C_3   0.949863 0.748542 0.811316 0.124508
H1    H     H_    0.836552 0.798171 0.804326 0.078782
C7    C     C_3   0.174320 0.783735 0.650042 0.320984
C8    C     C_3   0.277011 0.660817 0.760670 -0.009605
C9    C     C_3   0.137881 0.684243 0.687146 -0.265830
H2    H     H_    0.211598 0.610139 0.800706 0.204402
C10   C     C_3   0.131744 0.809355 0.809641 -0.234566
C11   C     C_3   0.135606 0.859563 0.721318 0.291409
C12   C     C_3   0.307575 0.743338 0.819837 0.208261
C13   C     C_2   0.031100 0.673476 0.254034 0.317647
C14   C     C_2   0.134653 0.684039 0.323746 -0.202616
H3    H     H_    0.198555 0.747746 0.338779 0.111921
C15   C     C_2   0.999024 0.747829 0.192776 0.196411
C16   C     C_2   0.133907 0.808742 0.172371 0.072335
C17   C     C_2   0.766617 0.197820 0.770065 0.320244
C18   C     C_2   0.624058 0.185724 0.825060 -0.152720
H4    H     H_    0.515411 0.236566 0.833019 0.134835
C19   C     C_2   0.780443 0.279583 0.717811 -0.010359
C20   C     C_2   0.633806 0.314719 0.675854 0.223214
C21   C     C_2   0.755205 0.192922 0.225365 0.042466
C22   C     C_2   0.619719 0.189986 0.165451 0.183490
C23   C     C_2   0.784535 0.274011 0.279679 0.158344
C24   C     C_2   0.640328 0.308145 0.325662 -0.115726
H5    H     H_    0.501403 0.278472 0.319045 0.069546
O11   O     O_R   0.770850 0.076180 0.907410 -0.548310
O12   O     O_R   0.440600 0.088970 0.079950 -0.532864
O13   O     O_R   0.270430 0.912340 0.080550 -0.530045
C25   C     C_R   0.608879 0.112051 0.106950 0.807620
O14   O     O_R   0.441120 0.087010 0.907980 -0.503655
O15   O     O_R   0.270950 0.910370 0.907350 -0.554633
C26   C     C_R   0.610865 0.109212 0.881592 0.875815
O16   O     O_R   0.770320 0.078150 0.080620 -0.555114
O17   O     O_3   0.604200 0.936340 0.994000 -0.264994
V3    V     V_3+5 0.329300 0.004970 0.993950 1.318958
O18   O     O_R   0.941240 0.899420 0.907920 -0.555335
C27   C     C_R   0.112701 0.877955 0.879980 0.884266
O19   O     O_R   0.940720 0.901380 0.079890 -0.517505
C28   C     C_R   0.110672 0.879015 0.107242 0.823169
V4    V     V_3+5 0.829310 0.983370 0.993880 1.296863
O20   O     O_3   0.104280 0.052120 0.993920 -0.252770
N1    N     N_3   0.785042 0.711275 0.681319 -0.495663
H6    H     H_    0.786890 0.778788 0.670555 0.260243
H7    H     H_    0.773748 0.679299 0.624811 0.238752
N2    N     N_3   0.483559 0.786975 0.798232 -0.404385
H8    H     H_    0.520251 0.834490 0.842479 0.238625
H9    H     H_    0.584263 0.737309 0.806135 0.235142
N3    N     N_R   0.367903 0.787011 0.613047 0.098383
O21   O     O_R   0.396416 0.754684 0.539326 -0.353808
O22   O     O_R   0.499704 0.837780 0.641931 -0.299115
N4    N     N_R   0.269961 0.935253 0.713227 0.164477
O23   O     O_R   0.269059 0.982011 0.645805 -0.242783
O24   O     O_R   0.383667 0.960641 0.770957 -0.319640
N5    N     N_R   0.944318 0.588674 0.237613 0.102929
O25   O     O_R   0.780291 0.570920 0.269809 -0.291840
O26   O     O_R   0.010314 0.538009 0.178429 -0.261180
N6    N     N_R   0.819001 0.751193 0.153158 0.122632
O27   O     O_R   0.707249 0.819365 0.166682 -0.265595
O28   O     O_R   0.758995 0.683078 0.110574 -0.176179
N7    N     N_R   0.318460 0.800613 0.207372 0.083261
O29   O     O_R   0.410064 0.724499 0.203297 -0.258150
O30   O     O_R   0.389900 0.868126 0.247318 -0.321869
N8    N     N_R   0.916264 0.133005 0.760175 0.076341
O31   O     O_R   0.952816 0.103583 0.686261 -0.322657
O32   O     O_R   0.050805 0.130227 0.814377 -0.299324
N9    N     N_3   0.961845 0.319170 0.709605 -0.396734
H10   H     H_    0.009871 0.331634 0.769233 0.276099
H11   H     H_    0.050417 0.272489 0.680324 0.293441
N10   N     N_R   0.891195 0.588206 0.761721 0.124784
O33   O     O_R   0.751436 0.574867 0.812185 -0.277036
O34   O     O_R   0.985981 0.517626 0.737042 -0.362374
N11   N     N_R   0.446363 0.286513 0.693157 0.047277
O35   O     O_R   0.340527 0.338126 0.739107 -0.371446
O36   O     O_R   0.388470 0.207638 0.670255 -0.301533
N12   N     N_3   0.877080 0.116031 0.237413 -0.470390
H12   H     H_    0.971389 0.128472 0.285363 0.203140
H13   H     H_    0.792523 0.063158 0.257257 0.186835
N13   N     N_R   0.497145 0.266168 0.150870 0.063858
O37   O     O_R   0.566178 0.346733 0.148360 -0.280155
O38   O     O_R   0.324128 0.254059 0.126791 -0.329394
N14   N     N_3   0.970486 0.311828 0.285565 -0.453457
H14   H     H_    0.064396 0.275957 0.247620 0.234010
H15   H     H_    0.963279 0.376495 0.261214 0.257128
N15   N     N_R   0.913773 0.707471 0.892841 0.122477
O39   O     O_R   0.778171 0.739371 0.939219 -0.319869
O40   O     O_R   0.001330 0.635337 0.917280 -0.245623
N16   N     N_3   0.042472 0.801184 0.581410 -0.502462
H16   H     H_    0.082263 0.859943 0.551347 0.243503
H17   H     H_    0.048685 0.750671 0.536628 0.182064
N17   N     N_3   0.947687 0.902234 0.710554 -0.506091
H18   H     H_    0.923197 0.949656 0.757075 0.230043
H19   H     H_    0.937767 0.937068 0.655263 0.275232
N18   N     N_3   0.450742 0.615514 0.736464 -0.430421
H20   H     H_    0.501572 0.646645 0.685072 0.256841
H21   H     H_    0.425357 0.548003 0.722517 0.235564
N19   N     N_3   0.322992 0.710869 0.905433 -0.423426
H22   H     H_    0.370773 0.760885 0.945265 0.218235
H23   H     H_    0.423205 0.658869 0.908185 0.272990

loop_
_geom_bond_atom_site_label_1
_geom_bond_atom_site_label_2
_geom_bond_distance
_ccdc_geom_bond_type
C8    C12   1.573185 S    
C1    C20   1.482526 S    
N6    O27   1.298011 A    
C19   C20   1.348225 D    
C11   N4    1.488674 S    
C1    O6    1.305054 A    
N19   H23   1.046575 S    
N14   H14   1.044822 S    
C7    N16   1.480892 S    
N10   O33   1.299364 A    
C20   N11   1.422576 S    
C3    C14   1.475849 S    
C6    C10   1.581684 S    
C14   H3    1.082659 S    
C12   N2    1.453209 S    
C10   C12   1.588546 S    
N18   H21   1.047343 S    
O5    C3    1.302195 A    
C15   C16   1.365175 D    
C23   N14   1.439834 S    
N17   H18   1.043992 S    
N1    H7    1.035638 S    
V2    O10   2.207858 S    
V4    O20   2.207904 S    
C6    H1    1.092338 S    
N2    H9    1.031518 S    
C22   C25   1.498672 S    
O11   V4    2.021041 S    
O8    V2    2.021763 S    
C2    C24   1.490406 S    
N5    O25   1.301052 A    
V3    O20   1.733838 S    
O7    V1    2.188538 S    
C5    N1    1.461361 S    
O15   C27   1.302998 A    
C8    C9    1.590973 S    
C13   C15   1.511727 S    
N6    O28   1.300613 A    
N13   O37   1.301763 A    
C6    N15   1.486052 S    
N19   H22   1.043821 S    
N14   H15   1.045639 S    
C19   N9    1.423999 S    
C11   N17   1.479876 S    
C5    C6    1.603923 S    
O19   V4    2.021809 S    
N10   O34   1.301668 A    
O14   C26   1.319336 A    
C21   N12   1.442502 S    
N4    O23   1.303310 A    
C17   C19   1.494484 S    
C10   C11   1.624397 S    
C23   C24   1.354536 D    
N8    O32   1.301060 A    
C15   N6    1.430856 S    
O15   V3    2.032008 S    
N1    H6    1.022910 S    
O14   V3    2.026848 S    
O17   V4    1.746543 S    
N4    O24   1.296108 A    
N3    O22   1.294648 A    
C7    N3    1.494403 S    
O2    C1    1.319761 A    
C21   C22   1.370931 D    
N12   H13   1.046095 S    
C25   O16   1.312797 A    
C22   N13   1.443657 S    
N15   O40   1.301247 A    
O17   V3    2.188510 S    
N16   H17   1.043905 S    
O11   C26   1.302564 A    
N7    O29   1.302055 A    
N13   O38   1.301006 A    
O12   C25   1.319064 A    
C13   N5    1.434662 S    
O1    V2    2.023748 S    
O13   V3    2.023960 S    
C24   H5    1.087385 S    
N11   O36   1.301281 A    
O6    V2    2.020576 S    
N9    H11   1.042461 S    
C8    H2    1.104375 S    
C5    N10   1.497079 S    
C7    C9    1.627572 S    
O2    V1    2.026798 S    
C12   N19   1.480925 S    
N12   H12   1.045473 S    
O18   C27   1.328425 A    
O4    C2    1.318867 A    
O19   C28   1.324558 A    
O1    C2    1.311149 A    
N7    O30   1.301452 A    
O5    V1    2.023882 S    
C8    N18   1.447811 S    
O8    C3    1.322415 A    
O3    C4    1.313844 A    
O16   V4    2.027599 S    
C5    C9    1.601125 S    
C17   C18   1.358650 D    
C4    C9    1.551593 S    
O9    V2    2.022049 S    
C10   C27   1.532858 S    
O4    V1    2.036511 S    
C21   C23   1.508219 S    
O3    V1    2.032036 S    
V1    O10   1.733812 S    
N18   H20   1.024084 S    
N3    O21   1.302428 A    
C17   N8    1.433768 S    
O13   C28   1.312261 A    
O12   V3    2.036587 S    
C16   N7    1.431433 S    
N17   H19   1.043745 S    
N15   O39   1.301203 A    
C18   H4    1.080648 S    
O7    V2    1.747785 S    
N2    H8    1.041399 S    
N8    O31   1.299949 A    
N11   O35   1.297988 A    
N9    H10   1.044848 S    
C7    C11   1.632897 S    
N16   H16   1.046477 S    
C18   C26   1.473400 S    
N5    O26   1.300628 A    
C16   C28   1.503390 S    
O9    C4    1.326833 A    
O18   V4    2.022051 S    
C13   C14   1.361720 D    
