data_mof_unit_23108.cif
_audit_creation_date              2012-12-10T17:03:41-0500
_audit_creation_method            fapswitch 2.2
_symmetry_space_group_name_H-M    P1
_symmetry_Int_Tables_number       1
_space_group_crystal_system       triclinic
_cell_length_a                    10.029378
_cell_length_b                    10.674145
_cell_length_c                    13.314363
_cell_angle_alpha                 89.794532
_cell_angle_beta                  71.153881
_cell_angle_gamma                 90.26699
_cell_volume                      1348.92072901

loop_
_atom_site_label
_atom_site_type_symbol
_atom_type_description
_atom_site_fract_x
_atom_site_fract_y
_atom_site_fract_z
_atom_type_partial_charge
C1    C     C_R   0.500649 0.737614 0.499638 0.945674
C2    C     C_R   0.443104 0.477398 0.979196 0.027804
C3    C     C_R   0.485738 0.453936 0.869387 -0.015673
C4    C     C_R   0.550262 0.488312 0.026989 0.150603
C5    C     C_R   0.693673 0.500205 0.964166 0.127186
C6    C     C_R   0.733396 0.468332 0.858131 -0.239343
C7    C     C_R   0.630955 0.432357 0.815115 -0.127911
C8    C     C_R   0.520650 0.475031 0.135243 -0.166282
C9    C     C_R   0.759382 0.534622 0.120980 -0.145599
C10   C     C_R   0.382610 0.455708 0.817092 -0.245168
C11   C     C_2   0.575673 0.064064 0.565141 0.019539
C12   C     C_R   0.424152 0.485054 0.702468 0.921102
C13   C     C_2   0.481564 0.131860 0.535392 -0.430617
C14   C     C_2   0.564931 0.927960 0.563525 -0.111779
C15   C     C_2   0.502299 0.870280 0.501644 -0.350392
C16   C     C_2   0.105780 0.445743 0.427314 -0.095223
C17   C     C_2   0.957316 0.452548 0.423962 -0.125493
C18   C     C_R   0.495339 0.263009 0.510475 0.910694
C19   C     C_R   0.577129 0.500726 0.297201 0.890449
C20   C     C_R   0.796225 0.530346 0.010954 -0.136297
C21   C     C_R   0.622063 0.502261 0.182761 -0.090427
C22   C     C_R   0.240509 0.433905 0.876609 0.432633
C23   C     C_R   0.198487 0.442556 0.988086 0.291565
C24   C     C_R   0.295921 0.487787 0.035923 -0.187492
H1    H     H_    0.838064 0.558984 0.157453 0.179527
H2    H     H_    0.386764 0.088972 0.528302 0.179255
H3    H     H_    0.614122 0.873460 0.611101 0.192307
H4    H     H_    0.454074 0.918299 0.450455 0.157612
H5    H     H_    0.181963 0.394935 0.364196 0.148679
H6    H     H_    0.078595 0.552529 0.555397 0.172748
H7    H     H_    0.937321 0.414301 0.354777 0.153705
H8    H     H_    0.869159 0.528298 0.567089 0.169844
H9    H     H_    0.843653 0.461754 0.810818 0.162192
H10   H     H_    0.904239 0.548284 0.962646 0.186309
H11   H     H_    0.418473 0.440170 0.183193 0.147869
H12   H     H_    0.668778 0.386767 0.739268 0.167019
N1    N     N_2   0.148270 0.498670 0.498870 -0.177202
N2    N     N_2   0.852610 0.498640 0.498840 -0.191927
O1    O     O_R   0.386950 0.680940 0.500020 -0.599062
O2    O     O_R   0.613110 0.680900 0.499980 -0.596319
O3    O     O_R   0.330780 0.500000 0.653640 -0.549757
O4    O     O_R   0.556930 0.499960 0.653610 -0.649683
O5    O     O_R   0.386890 0.319100 0.500020 -0.596522
O6    O     O_R   0.613050 0.319060 0.499980 -0.629808
O7    O     O_R   0.443070 0.500040 0.346390 -0.609510
O8    O     O_R   0.669220 0.500000 0.346360 -0.619037
Zn1   Zn    Zn3+2 0.349000 0.500030 0.500020 1.000473
Zn2   Zn    Zn3+2 0.651000 0.499970 0.499980 0.946393
O9    O     O_3   0.146205 0.404702 0.823816 -0.756748
H13   H     H_    0.054268 0.379972 0.875328 0.369745
C25   C     C_2   0.240095 0.565954 0.133018 0.405598
H14   H     H_    0.135782 0.549640 0.188994 0.060741
O10   O     O_2   0.307473 0.655262 0.148345 -0.540210
O11   O     O_3   0.060591 0.416031 0.046924 -0.815049
H15   H     H_    0.057165 0.391199 0.119478 0.321823
C26   C     C_2   0.687585 0.119331 0.602566 0.461402
H16   H     H_    0.678577 0.213515 0.633454 0.064862
O12   O     O_2   0.790348 0.057920 0.601770 -0.566820

loop_
_geom_bond_atom_site_label_1
_geom_bond_atom_site_label_2
_ccdc_geom_bond_type
C2    C4    A    
C23   C24   A    
C19   O7    A    
C6    C7    A    
C1    C15   S    
H8    N2    S    
C14   H3    S    
N1    Zn1   S    
C7    H12   S    
C9    C20   A    
N2    Zn2   S    
C6    H9    S    
C16   N1    D    
C4    C8    A    
C20   H10   S    
C24   C25   S    
C2    C3    A    
O3    Zn1   S    
C19   O8    A    
C9    H1    S    
C5    C20   A    
O4    Zn2   S    
C18   O5    A    
C10   C22   A    
C11   C13   D    
C9    C21   A    
C15   H4    S    
C12   O3    A    
C10   C12   S    
C13   C18   S    
C22   O9    S    
C19   C21   S    
C26   O12   D    
C8    C21   A    
C3    C7    A    
C17   N2    D    
O7    Zn1   S    
C2    C24   A    
C5    C6    A    
C17   H7    S    
C11   C14   S    
O8    Zn2   S    
C13   H2    S    
C1    O1    A    
C25   H14   S    
C18   O6    A    
C26   H16   S    
C23   O11   S    
O1    Zn1   S    
O9    H13   S    
C3    C10   A    
O2    Zn2   S    
O11   H15   S    
C16   C17   S    
C12   O4    A    
C1    O2    A    
C16   H5    S    
C14   C15   D    
O5    Zn1   S    
C22   C23   A    
C11   C26   S    
O6    Zn2   S    
H6    N1    S    
C4    C5    A    
C25   O10   D    
C8    H11   S    
