data_mof_unit_66585.cif
_audit_creation_date              2012-12-10T17:21:40-0500
_audit_creation_method            fapswitch 2.2
_symmetry_space_group_name_H-M    P1
_symmetry_Int_Tables_number       1
_space_group_crystal_system       triclinic
_cell_length_a                    10.733427
_cell_length_b                    10.845794
_cell_length_c                    9.603906
_cell_angle_alpha                 90.869698
_cell_angle_beta                  91.941808
_cell_angle_gamma                 92.680719
_cell_volume                      1115.99292781

loop_
_atom_site_label
_atom_site_type_symbol
_atom_type_description
_atom_site_fract_x
_atom_site_fract_y
_atom_site_fract_z
_atom_type_partial_charge
C1    C     C_R   0.505796 0.262215 0.501229 0.825440
C2    C     C_3   0.878831 0.509486 0.496324 0.073709
C3    C     C_3   0.939217 0.612376 0.595435 0.324913
C4    C     C_3   0.926057 0.527284 0.345668 -0.374822
C5    C     C_R   0.577554 0.112022 0.763927 0.399968
C6    C     C_R   0.553569 0.051792 0.891749 0.411286
C7    C     C_R   0.478222 0.942979 0.888975 -0.325400
C8    C     C_R   0.445223 0.884040 0.763203 -0.230051
C9    C     C_R   0.478850 0.936862 0.635841 0.062671
C10   C     C_R   0.521655 0.061752 0.635564 -0.063517
C11   C     C_R   0.503791 0.127020 0.507335 -0.100779
C12   C     C_R   0.260269 0.500845 0.497955 0.763622
C13   C     C_R   0.461043 0.061665 0.386184 -0.236014
C14   C     C_R   0.453478 0.933923 0.383972 -0.240619
C15   C     C_R   0.468869 0.869973 0.507705 -0.076216
C16   C     C_R   0.667965 0.661894 0.152327 -0.234888
C17   C     C_R   0.757081 0.733214 0.085642 -0.392779
C18   C     C_R   0.763846 0.728102 0.941482 0.460018
C19   C     C_R   0.672113 0.658387 0.864927 -0.214435
C20   C     C_R   0.583499 0.578956 0.929539 0.114603
C21   C     C_R   0.582812 0.579387 0.078917 0.230931
C22   C     C_R   0.421421 0.424057 0.069603 -0.046717
C23   C     C_R   0.487299 0.736543 0.501383 0.791294
C24   C     C_R   0.421310 0.424233 0.921732 -0.005115
C25   C     C_R   0.740226 0.505877 0.500397 0.802921
C26   C     C_3   0.066447 0.379941 0.545150 -0.411569
C27   C     C_3   0.923217 0.382952 0.542642 -0.482480
C28   C     C_3   0.084234 0.609516 0.594234 -0.466615
C29   C     C_3   0.069423 0.527061 0.345515 -0.391251
C30   C     C_3   0.122889 0.504589 0.494932 0.138185
Cu1   Cu    Cu3+1 0.499990 0.499990 0.640660 0.949585
Cu2   Cu    Cu3+1 0.500010 0.500010 0.359340 0.925239
H1    H     H_    0.101558 0.361111 0.652808 0.168599
H2    H     H_    0.388535 0.799133 0.766799 0.184553
H3    H     H_    0.435463 0.885335 0.285433 0.165053
H4    H     H_    0.094674 0.303171 0.476517 0.170902
H5    H     H_    0.672250 0.674588 0.261997 0.226263
H6    H     H_    0.821504 0.793083 0.147386 0.151013
H7    H     H_    0.675836 0.667934 0.755288 0.237042
H8    H     H_    0.890069 0.366066 0.646694 0.197948
H9    H     H_    0.914274 0.584149 0.702110 0.115012
H10   H     H_    0.108426 0.615821 0.305206 0.154088
N1    N     N_R   0.501200 0.501210 0.147910 -0.193076
N2    N     N_R   0.501250 0.501290 0.852040 -0.185514
O1    O     O_R   0.499990 0.319640 0.618810 -0.531992
O2    O     O_R   0.500000 0.319660 0.381240 -0.589817
O3    O     O_R   0.317680 0.499970 0.618790 -0.600602
O4    O     O_R   0.317700 0.499990 0.381210 -0.592311
O5    O     O_R   0.500000 0.680340 0.618760 -0.603174
O6    O     O_R   0.500010 0.680360 0.381190 -0.605745
O7    O     O_R   0.682300 0.500010 0.618790 -0.593856
O8    O     O_R   0.682320 0.500030 0.381210 -0.603979
H11   H     H_    0.892903 0.613267 0.299885 0.158867
H12   H     H_    0.131948 0.697658 0.565755 0.159141
O9    O     O_3   0.884870 0.729557 0.579438 -0.602054
C31   C     C_3   0.940956 0.810641 0.482870 0.084421
H13   H     H_    0.864580 0.849919 0.419722 0.138901
H14   H     H_    0.000044 0.765412 0.407478 0.134145
C32   C     C_3   0.014914 0.916888 0.560432 -0.328078
H15   H     H_    0.950747 0.989990 0.589036 0.202803
H16   H     H_    0.057872 0.882440 0.657791 0.231813
C33   C     C_3   0.120349 0.972210 0.474522 -0.953344
H17   H     H_    0.189414 0.901632 0.454061 0.261643
H18   H     H_    0.168573 0.050657 0.533183 0.261652
H19   H     H_    0.084223 0.006108 0.373540 0.268732
H20   H     H_    0.441806 0.108884 0.289745 0.190942
O10   O     O_3   0.663108 0.212332 0.763835 -0.559481
C34   C     C_3   0.785527 0.174382 0.798253 0.101247
H21   H     H_    0.844239 0.184460 0.706737 0.116851
H22   H     H_    0.790540 0.074231 0.821324 0.094122
C35   C     C_3   0.844181 0.248157 0.924676 -0.329885
H23   H     H_    0.784945 0.233386 0.014417 0.274466
H24   H     H_    0.937373 0.212451 0.950421 0.152203
C36   C     C_3   0.858324 0.387755 0.908650 -0.829006
H25   H     H_    0.948615 0.413776 0.861747 0.211922
H26   H     H_    0.859676 0.433690 0.012880 0.226373
H27   H     H_    0.779167 0.422334 0.846401 0.304210
O11   O     O_3   0.594427 0.106864 0.018202 -0.606964
C37   C     C_3   0.669117 0.025869 0.096536 0.034026
H28   H     H_    0.746999 0.994686 0.033579 0.170748
H29   H     H_    0.613096 0.942606 0.126973 0.138571
C38   C     C_3   0.721561 0.090019 0.232448 -0.344673
H30   H     H_    0.693949 0.187437 0.239002 0.255544
H31   H     H_    0.683777 0.040330 0.322438 0.220240
C39   C     C_3   0.862639 0.085945 0.252847 -0.991047
H32   H     H_    0.890803 0.989432 0.245087 0.249251
H33   H     H_    0.890875 0.121580 0.358584 0.260336
H34   H     H_    0.912724 0.142819 0.176214 0.257288
H35   H     H_    0.448380 0.901059 0.984483 0.160056
H36   H     H_    0.357021 0.361764 0.121289 0.125829
O12   O     O_3   0.852873 0.798107 0.871566 -0.596889
C40   C     C_3   0.975526 0.781373 0.926533 0.067367
H37   H     H_    0.031586 0.743958 0.842657 0.150826
H38   H     H_    0.981527 0.713165 0.012160 0.126559
C41   C     C_3   0.036774 0.905845 0.973804 -0.370826
H39   H     H_    0.054924 0.964200 0.882062 0.208558
H40   H     H_    0.972613 0.955164 0.039707 0.220352
C42   C     C_3   0.159150 0.889727 0.055663 -0.936533
H41   H     H_    0.141338 0.839573 0.153593 0.250582
H42   H     H_    0.204105 0.981636 0.082904 0.262055
H43   H     H_    0.223613 0.837063 0.992106 0.254262
H44   H     H_    0.356834 0.361965 0.863109 0.121530
H45   H     H_    0.881297 0.308329 0.473045 0.182460
H46   H     H_    0.119652 0.591438 0.701964 0.138564
H47   H     H_    0.097034 0.452804 0.273024 0.177794
H48   H     H_    0.887353 0.450654 0.276176 0.190006

loop_
_geom_bond_atom_site_label_1
_geom_bond_atom_site_label_2
_ccdc_geom_bond_type
C8    C9    A    
O9    C31   S    
C16   C21   A    
C29   H10   S    
C41   H39   S    
C1    C11   S    
C5    O10   S    
C41   C42   S    
C7    C8    A    
C39   H32   S    
C26   C27   S    
C29   C30   S    
C36   H26   S    
C18   O12   S    
C3    C28   S    
C5    C6    A    
C4    H11   S    
C1    O2    A    
C23   O5    A    
C7    H35   S    
C31   H13   S    
C18   C19   A    
Cu2   O8    S    
C33   H18   S    
C21   N1    A    
C3    O9    S    
C19   C20   A    
C16   C17   A    
C36   H27   S    
C2    C27   S    
C9    C10   A    
C4    C29   S    
C12   O4    A    
C16   H5    S    
C15   C23   S    
C32   H15   S    
Cu1   O3    S    
C13   C14   A    
Cu2   O4    S    
C29   H47   S    
Cu1   O5    S    
C12   O3    A    
C20   N2    A    
C13   H20   S    
C39   H33   S    
C32   H16   S    
C36   H25   S    
O10   C34   S    
Cu1   N2    S    
C14   H3    S    
C35   H24   S    
C28   H12   S    
O11   C37   S    
C34   H21   S    
C23   O6    A    
C4    H48   S    
C38   H30   S    
C40   C41   S    
C2    C4    S    
C25   O7    A    
C33   H17   S    
C35   C36   S    
C28   H46   S    
C26   H1    S    
Cu1   Cu2   S    
C27   H8    S    
C40   H38   S    
C17   C18   A    
C22   H36   S    
C8    H2    S    
Cu2   O6    S    
C19   H7    S    
C26   H4    S    
C26   C30   S    
C42   H42   S    
C24   N2    A    
C22   C24   A    
C42   H43   S    
O12   C40   S    
C37   H29   S    
C39   H34   S    
C3    H9    S    
C32   C33   S    
C33   H19   S    
C12   C30   S    
Cu2   O2    S    
Cu1   O7    S    
C37   C38   S    
C41   H40   S    
C6    C7    A    
C38   C39   S    
C38   H31   S    
C31   C32   S    
C28   C30   S    
C2    C3    S    
C9    C15   A    
C25   O8    A    
C5    C10   A    
C11   C13   A    
C1    O1    A    
C34   C35   S    
C27   H45   S    
C40   H37   S    
Cu2   N1    S    
C31   H14   S    
C2    C25   S    
C24   H44   S    
C17   H6    S    
C6    O11   S    
C10   C11   A    
C37   H28   S    
C35   H23   S    
C20   C21   A    
C34   H22   S    
C42   H41   S    
Cu1   O1    S    
C14   C15   A    
C22   N1    A    
