data_mof_unit_13527.cif
_audit_creation_date              2012-12-11T16:08:29-0500
_audit_creation_method            fapswitch 2.2
_symmetry_space_group_name_H-M    P1
_symmetry_Int_Tables_number       1
_space_group_crystal_system       triclinic
_cell_length_a                    12.952434
_cell_length_b                    13.262653
_cell_length_c                    27.738362
_cell_angle_alpha                 94.578003
_cell_angle_beta                  90.539078
_cell_angle_gamma                 118.99241
_cell_volume                      4148.2432796

loop_
_atom_site_label
_atom_site_type_symbol
_atom_type_description
_atom_site_fract_x
_atom_site_fract_y
_atom_site_fract_z
_atom_type_partial_charge
C1    C     C_R   0.626932 0.896308 0.426795 0.563362
C2    C     C_R   0.093264 0.717901 0.311014 0.008944
C3    C     C_3   0.400274 0.601720 0.687587 -0.095378
C4    C     C_R   0.033915 0.681375 0.211563 0.022722
C5    C     C_R   0.600596 0.221695 0.440418 0.544638
C6    C     C_R   0.015514 0.588222 0.237477 -0.116996
C7    C     C_R   0.044954 0.606297 0.286983 -0.120906
C8    C     C_R   0.011358 0.664801 0.161583 -0.138138
C9    C     C_R   0.033964 0.758864 0.135625 -0.019024
C10   C     C_R   0.193477 0.943190 0.358730 0.258512
C11   C     C_R   0.156044 0.924163 0.309703 -0.024044
C12   C     C_R   0.107389 0.811568 0.285694 0.004922
C13   C     C_R   0.600624 0.363395 0.230387 -0.082973
C14   C     C_R   0.174313 0.017331 0.283575 -0.094841
C15   C     C_R   0.146834 0.000384 0.233840 0.255266
C16   C     C_R   0.100056 0.888429 0.209672 0.017165
C17   C     C_R   0.267439 0.876270 0.426146 0.547921
C18   C     C_R   0.078677 0.793541 0.235772 0.020958
C19   C     C_R   0.076766 0.869845 0.159697 -0.106739
C20   C     C_R   0.193824 0.851950 0.381754 -0.001809
C21   C     C_R   0.733008 0.952856 0.353033 -0.181757
C22   C     C_R   0.732178 0.942368 0.303158 0.003316
C23   C     C_R   0.727145 0.925554 0.202184 0.037891
C24   C     C_R   0.592533 0.349993 0.279912 -0.081792
C25   C     C_R   0.796405 0.032769 0.229029 -0.130077
C26   C     C_R   0.802070 0.040152 0.279166 -0.141278
C27   C     C_R   0.731669 0.914815 0.151776 0.252765
C28   C     C_R   0.677333 0.803245 0.126786 0.003635
C29   C     C_R   0.626861 0.899260 0.565239 0.542974
C30   C     C_R   0.570625 0.754779 0.351727 0.274777
C31   C     C_R   0.582099 0.737258 0.301408 0.033482
C32   C     C_R   0.657132 0.834918 0.277011 -0.022562
C33   C     C_R   0.516716 0.627003 0.274726 0.284265
C34   C     C_R   0.523621 0.618887 0.223999 -0.128772
C35   C     C_R   0.666416 0.317776 0.303553 0.035491
C36   C     C_R   0.590960 0.717349 0.200055 -0.045313
C37   C     C_R   0.657616 0.825974 0.226395 0.010600
C38   C     C_R   0.600538 0.706733 0.150305 -0.178415
C39   C     C_R   0.647752 0.863378 0.377484 -0.010326
C40   C     C_R   0.735943 0.285307 0.651652 -0.185791
C41   C     C_R   0.604293 0.228492 0.577965 0.556803
C42   C     C_R   0.752117 0.313444 0.701585 -0.008132
C43   C     C_R   0.765560 0.347054 0.803144 0.014793
C44   C     C_R   0.840367 0.313368 0.779208 -0.122786
C45   C     C_R   0.832976 0.295680 0.728702 -0.119072
C46   C     C_R   0.681519 0.343199 0.203946 0.038039
C47   C     C_R   0.770676 0.363611 0.853792 -0.131423
C48   C     C_R   0.693684 0.395669 0.876866 0.001976
C49   C     C_R   0.589028 0.349816 0.647725 0.260100
C50   C     C_R   0.599693 0.372145 0.698159 0.023077
C51   C     C_R   0.679970 0.351923 0.725149 0.012189
C52   C     C_R   0.526888 0.408335 0.722249 -0.126701
C53   C     C_R   0.272370 0.879576 0.563565 0.540349
C54   C     C_R   0.530706 0.420974 0.772467 -0.172237
C55   C     C_R   0.608246 0.398677 0.799257 -0.008936
C56   C     C_R   0.685067 0.366387 0.775858 0.060219
C57   C     C_1   0.693912 0.365650 0.153754 -0.069017
C58   C     C_R   0.610698 0.409616 0.849257 -0.135617
C59   C     C_R   0.648295 0.294855 0.625329 -0.005874
C60   C     C_1   0.225057 0.863102 0.610643 -0.000683
C61   C     C_R   0.089226 0.744064 0.719366 -0.124236
C62   C     C_R   0.075851 0.734502 0.768946 -0.179545
C63   C     C_R   0.238285 0.931315 0.787086 0.272963
C64   C     C_R   0.252979 0.938734 0.736711 -0.100615
C65   C     C_1   0.632137 0.268533 0.394557 0.002741
C66   C     C_R   0.177791 0.846066 0.703129 0.001610
C67   C     C_R   0.150378 0.826986 0.802777 0.018628
C68   C     C_1   0.651243 0.295572 0.353736 -0.045449
C69   C     C_1   0.129992 0.814951 0.853567 -0.027083
C70   C     C_1   0.198426 0.853592 0.652249 -0.039454
C71   C     C_1   0.103437 0.798211 0.894878 -0.005620
C72   C     C_1   0.640174 0.868597 0.612309 -0.005117
C73   C     C_R   0.754895 0.895955 0.731908 -0.162924
C74   C     C_R   0.759479 0.887794 0.781854 0.235329
C75   C     C_R   0.545546 0.763204 0.778065 0.240425
C76   C     C_R   0.542197 0.768794 0.727466 0.286151
C77   C     C_R   0.747569 0.297594 0.277180 -0.106014
C78   C     C_R   0.647607 0.835479 0.704640 -0.045004
C79   C     C_1   0.703976 0.393564 0.112985 -0.029473
C80   C     C_R   0.654766 0.820748 0.804909 0.011829
C81   C     C_1   0.662813 0.805891 0.855511 0.029924
C82   C     C_1   0.645140 0.850424 0.653883 -0.018001
C83   C     C_1   0.680362 0.793134 0.896748 0.008063
C84   C     C_R   0.007255 0.739133 0.083559 0.560388
C85   C     C_R   0.717263 0.441069 0.067268 0.538276
C86   C     C_R   0.719441 0.782838 0.080394 0.550472
C87   C     C_R   0.056820 0.766366 0.941347 0.555108
C88   C     C_R   0.711269 0.437446 0.928199 0.549491
C89   C     C_R   0.754771 0.309742 0.227412 -0.115709
C90   C     C_R   0.136301 0.738821 0.358943 -0.195007
C91   C     C_R   0.715678 0.776735 0.943290 0.536911
C92   C     C_3   0.087181 0.123903 0.209722 -0.139232
C93   C     C_3   0.153154 0.067647 0.404425 -0.106429
C94   C     C_3   0.729177 0.051949 0.109024 -0.119310
C95   C     C_3   0.351921 0.443109 0.275610 -0.138226
C96   C     C_3   0.373360 0.668262 0.363568 -0.051265
C97   C     C_3   0.574423 0.473361 0.599918 -0.125124
C98   C     C_3   0.340091 0.129741 0.808713 -0.117367
C99   C     C_3   0.938080 0.903556 0.800721 -0.107242
C100  C     C_3   0.389363 0.765338 0.813104 -0.077163
Cr1   Cr    Cr6+3 0.416430 0.829200 0.492370 1.036131
Cr2   Cr    Cr6+3 0.674630 0.087020 0.504170 1.008356
Cr3   Cr    Cr6+3 0.408920 0.083740 0.503490 1.066011
Cr4   Cr    Cr6+3 0.914010 0.832750 0.013970 1.054236
Cr5   Cr    Cr6+3 0.922310 0.578600 0.003000 1.020946
Cr6   Cr    Cr6+3 0.656280 0.574630 0.003870 1.019041
H1    H     H_    0.792094 0.036620 0.372212 0.142166
H2    H     H_    0.031604 0.671382 0.693761 0.125869
H3    H     H_    0.544064 0.389797 0.212637 0.115283
H4    H     H_    0.006803 0.654765 0.780996 0.127311
H5    H     H_    0.323914 0.015212 0.723420 0.114886
H6    H     H_    0.835075 0.951167 0.714555 0.132599
H7    H     H_    0.982186 0.502268 0.219122 0.103750
H8    H     H_    0.804589 0.271931 0.295034 0.096842
H9    H     H_    0.004891 0.052452 0.190959 0.162911
H10   H     H_    0.113611 0.201821 0.190140 0.144521
H11   H     H_    0.070795 0.145079 0.247556 0.097398
H12   H     H_    0.556295 0.621138 0.130750 0.146108
H13   H     H_    0.214734 0.104893 0.301059 0.163162
H14   H     H_    0.192717 0.156116 0.423421 0.142815
H15   H     H_    0.111697 0.004992 0.431988 0.117596
H16   H     H_    0.084548 0.058648 0.377307 0.095918
H17   H     H_    0.685512 0.077321 0.138275 0.116991
H18   H     H_    0.661880 0.986383 0.081659 0.123973
H19   H     H_    0.785156 0.130337 0.090551 0.145723
H20   H     H_    0.849914 0.110441 0.211488 0.133619
H21   H     H_    0.859567 0.123008 0.299253 0.090143
H22   H     H_    0.368171 0.386814 0.248541 0.127701
H23   H     H_    0.478730 0.535443 0.202943 0.100459
H24   H     H_    0.301941 0.480672 0.258347 0.092798
H25   H     H_    0.294959 0.386989 0.302705 0.145046
H26   H     H_    0.383897 0.756816 0.364141 0.125841
H27   H     H_    0.308481 0.621146 0.390444 0.144022
H28   H     H_    0.335093 0.622143 0.327411 0.117593
H29   H     H_    0.888925 0.266115 0.710889 0.115908
H30   H     H_    0.551885 0.436314 0.866526 0.144092
H31   H     H_    0.625159 0.547594 0.627804 0.099408
H32   H     H_    0.511212 0.491528 0.580233 0.145630
H33   H     H_    0.634783 0.466684 0.573135 0.120447
H34   H     H_    0.818098 0.294408 0.207439 0.092939
H35   H     H_    0.261696 0.131087 0.792580 0.109010
H36   H     H_    0.413617 0.160759 0.783784 0.136630
H37   H     H_    0.371041 0.191511 0.841825 0.155511
H38   H     H_    0.965970 0.909283 0.762779 0.114852
H39   H     H_    0.894377 0.811976 0.809646 0.119473
H40   H     H_    0.019182 0.952986 0.824823 0.164085
H41   H     H_    0.363709 0.792926 0.780301 0.173465
H42   H     H_    0.448125 0.842295 0.838509 0.128822
H43   H     H_    0.307443 0.712677 0.831738 0.146089
H44   H     H_    0.382107 0.552045 0.719824 0.146943
H45   H     H_    0.835771 0.354424 0.875061 0.126031
H46   H     H_    0.467633 0.592950 0.665748 0.105276
H47   H     H_    0.317050 0.563077 0.664612 0.144610
H48   H     H_    0.528112 0.363721 0.299737 0.165138
H49   H     H_    0.976475 0.578858 0.142763 0.125490
H50   H     H_    0.132234 0.668044 0.377426 0.119499
H51   H     H_    0.033781 0.533807 0.306114 0.098273
H52   H     H_    0.093355 0.942170 0.139371 0.185789
H53   H     H_    0.784564 0.246607 0.634117 0.143384
H54   H     H_    0.902933 0.298705 0.799535 0.126782
H55   H     H_    0.472126 0.447032 0.790354 0.132412
H56   H     H_    0.463863 0.422907 0.702410 0.145903
O1    O     O_R   0.296680 0.802170 0.437540 -0.554514
O2    O     O_R   0.637200 0.461990 0.052510 -0.502150
O3    O     O_R   0.664790 0.681920 0.057970 -0.520599
O4    O     O_R   0.525380 0.838530 0.443500 -0.464499
O5    O     O_R   0.815840 0.852920 0.961840 -0.497676
O6    O     O_R   0.012100 0.822630 0.963670 -0.484419
O7    O     O_R   0.037010 0.668460 0.953040 -0.505882
O8    O     O_R   0.813390 0.478970 0.949660 -0.499031
O9    O     O_R   0.632250 0.456930 0.945520 -0.516474
O10   O     O_R   0.660200 0.677230 0.958780 -0.498108
O11   O     O_3   0.830870 0.661990 0.006950 -0.275075
O12   O     O_R   0.662610 0.183990 0.557860 -0.519190
O13   O     O_R   0.702130 0.995190 0.446810 -0.533235
O14   O     O_R   0.661770 0.181390 0.458760 -0.507387
O15   O     O_R   0.499820 0.198480 0.455280 -0.479162
O16   O     O_R   0.311660 0.976250 0.449080 -0.448481
O17   O     O_R   0.297580 0.804960 0.544440 -0.505160
O18   O     O_R   0.526220 0.841130 0.542590 -0.486338
O19   O     O_R   0.703030 0.997990 0.553710 -0.514431
O20   O     O_3   0.178874 0.095718 0.208323 -0.580356
O21   O     O_3   0.243498 0.054076 0.381983 -0.548071
O22   O     O_3   0.801965 0.011341 0.128066 -0.570873
O23   O     O_R   0.500730 0.201280 0.562180 -0.456107
O24   O     O_3   0.459346 0.528688 0.299694 -0.534505
O25   O     O_3   0.480688 0.669639 0.375348 -0.510763
O26   O     O_3   0.509959 0.368887 0.621294 -0.558710
O27   O     O_3   0.312675 0.019283 0.821972 -0.568006
O28   O     O_3   0.864698 0.953378 0.809139 -0.556756
O29   O     O_3   0.442792 0.696807 0.800761 -0.577591
O30   O     O_3   0.434898 0.718765 0.701191 -0.549046
O31   O     O_R   0.312500 0.978850 0.548170 -0.500058
O32   O     O_3   0.499990 0.999990 0.500010 -0.256635
O33   O     O_R   0.820790 0.857990 0.068830 -0.466439
O34   O     O_R   0.016700 0.827330 0.062850 -0.502929
O35   O     O_R   0.041970 0.673520 0.060040 -0.504493
O36   O     O_R   0.817980 0.483660 0.048840 -0.517950

loop_
_geom_bond_atom_site_label_1
_geom_bond_atom_site_label_2
_ccdc_geom_bond_type
C17   O16   A    
C97   O26   S    
C41   O12   A    
C75   C76   A    
C98   H37   S    
C53   O31   A    
C73   C74   A    
C57   C79   T    
C40   H53   S    
C2    C7    A    
Cr3   O23   S    
C4    C8    A    
C43   C56   A    
C2    C12   A    
C46   C89   A    
Cr1   O32   S    
C77   C89   A    
C3    H46   S    
Cr5   O7    S    
C91   O10   A    
Cr1   O17   S    
C35   C68   S    
C91   O5    A    
C36   C37   A    
C76   C78   A    
C25   H20   S    
C30   C31   A    
C11   C14   A    
C61   C66   A    
C100  H41   S    
Cr2   O14   S    
C15   C16   A    
C87   O7    A    
C15   O20   S    
Cr2   O32   S    
C3    H47   S    
C17   C20   S    
C2    C90   A    
C51   C56   A    
Cr6   O9    S    
C69   C71   T    
C8    H49   S    
C27   O22   S    
C13   H3    S    
C61   H2    S    
C74   O28   S    
C95   H22   S    
C9    C19   A    
C31   C32   A    
C34   H23   S    
C10   C20   A    
C8    C9    A    
C29   O18   A    
C21   C39   A    
C30   C39   A    
C95   H24   S    
C50   C52   A    
C73   C78   A    
C31   C33   A    
C33   O24   S    
C93   H14   S    
Cr6   O2    S    
C17   O1    A    
C75   C80   A    
C22   C32   A    
Cr6   O11   S    
C42   C51   A    
C96   H26   S    
C29   C72   S    
C4    C18   A    
C94   H17   S    
C89   H34   S    
Cr5   O35   S    
C99   H39   S    
Cr4   O11   S    
C40   C59   A    
C74   C80   A    
C21   C22   A    
C98   H36   S    
C95   H25   S    
C10   O21   S    
Cr2   O19   S    
C96   O25   S    
Cr1   O4    S    
C86   O3    A    
C94   O22   S    
C98   O27   S    
C53   O17   A    
C97   H31   S    
C81   C83   T    
C53   C60   S    
C24   H48   S    
C50   C51   A    
C63   C67   A    
C45   H29   S    
C24   C35   A    
C88   O8    A    
Cr5   O8    S    
Cr6   O3    S    
C99   H38   S    
Cr1   O1    S    
C93   H16   S    
C41   C59   S    
C4    C6    A    
C64   H5    S    
C96   H28   S    
C58   H30   S    
C25   C26   A    
C63   O27   S    
C20   C90   A    
C35   C77   A    
C100  H42   S    
C13   C24   A    
C67   C69   S    
C42   C45   A    
C64   C66   A    
C75   O29   S    
C43   C44   A    
C6    H7    S    
C76   O30   S    
C86   O33   A    
Cr4   O6    S    
C78   C82   S    
C47   C48   A    
C62   H4    S    
C60   C70   T    
C65   C68   T    
C55   C56   A    
C48   C88   S    
C33   C34   A    
Cr4   O34   S    
C41   O23   A    
C21   H1    S    
C32   C37   A    
C92   H10   S    
C5    O15   A    
C96   H27   S    
C29   O19   A    
C92   H11   S    
C71   C87   S    
C62   C67   A    
C5    C65   S    
Cr5   O36   S    
Cr3   O32   S    
C99   H40   S    
C47   H45   S    
C14   H13   S    
C23   C27   A    
C98   H35   S    
C28   C86   S    
C100  H43   S    
C5    O14   A    
C100  O29   S    
C90   H50   S    
C77   H8    S    
C97   H32   S    
C79   C85   S    
C44   C45   A    
C73   H6    S    
Cr5   O11   S    
C94   H19   S    
C54   C55   A    
C1    O13   A    
C3    H44   S    
C14   C15   A    
C19   H52   S    
Cr6   O10   S    
C93   H15   S    
C80   C81   S    
C87   O6    A    
C99   O28   S    
C11   C12   A    
C48   C58   A    
C6    C7    A    
C7    H51   S    
C84   O35   A    
Cr2   O12   S    
C83   C91   S    
C49   C59   A    
Cr3   O16   S    
C30   O25   S    
C36   C38   A    
Cr2   O13   S    
C46   C57   S    
Cr1   O18   S    
C23   C37   A    
C3    O30   S    
Cr4   O5    S    
C93   O21   S    
C66   C70   S    
C49   O26   S    
C1    O4    A    
C84   O34   A    
C16   C19   A    
C44   H54   S    
C40   C42   A    
Cr4   O33   S    
C52   C54   A    
C34   C36   A    
C26   H21   S    
C23   C25   A    
C54   H55   S    
C61   C62   A    
C92   H9    S    
C10   C11   A    
C1    C39   S    
C9    C84   S    
C63   C64   A    
C38   H12   S    
C85   O36   A    
C16   C18   A    
C49   C50   A    
C22   C26   A    
C55   C58   A    
C12   C18   A    
C27   C28   A    
C88   O9    A    
C85   O2    A    
C13   C46   A    
C92   O20   S    
Cr3   O31   S    
Cr3   O15   S    
C28   C38   A    
C43   C47   A    
C97   H33   S    
C72   C82   T    
C95   O24   S    
C52   H56   S    
C94   H18   S    
