data_mof_unit_66875.cif
_audit_creation_date              2013-03-05T15:57:23-0500
_audit_creation_method            fapswitch 2.2
_symmetry_space_group_name_H-M    P1
_symmetry_Int_Tables_number       1
_space_group_crystal_system       triclinic
_cell_length_a                    17.252944
_cell_length_b                    19.069434
_cell_length_c                    8.560936
_cell_angle_alpha                 90.080157
_cell_angle_beta                  102.373472
_cell_angle_gamma                 89.884488
_cell_volume                      2751.14951115

loop_
_atom_site_label
_atom_site_type_symbol
_atom_site_description
_atom_site_fract_x
_atom_site_fract_y
_atom_site_fract_z
_atom_type_partial_charge
P1    P     P_3+3 0.834140 0.419320 0.003900 0.469672
P2    P     P_3+3 0.834140 0.580680 0.503900 0.468299
P3    P     P_3+3 0.334140 0.919320 0.003900 0.465645
P4    P     P_3+3 0.334140 0.080680 0.503900 0.469526
O1    O     O_2   0.841960 0.394640 0.833410 -0.344698
O2    O     O_2   0.841960 0.605360 0.333410 -0.336327
O3    O     O_2   0.341960 0.894640 0.833410 -0.340692
O4    O     O_2   0.341960 0.105360 0.333410 -0.344556
O5    O     O_3   0.907950 0.463080 0.102990 -0.416717
O6    O     O_3   0.907950 0.536920 0.602990 -0.418962
O7    O     O_3   0.407950 0.963080 0.102990 -0.416721
O8    O     O_3   0.407950 0.036920 0.602990 -0.418300
O9    O     O_3   0.972780 0.329600 0.629720 -0.423738
O10   O     O_3   0.972780 0.670400 0.129720 -0.413790
O11   O     O_3   0.472780 0.829600 0.629720 -0.414110
O12   O     O_3   0.472780 0.170400 0.129720 -0.400583
O13   O     O_2   0.838143 0.276658 0.679647 -0.281511
O14   O     O_2   0.835234 0.718813 0.179713 -0.265706
O15   O     O_2   0.334666 0.782105 0.678935 -0.271561
O16   O     O_2   0.328685 0.206736 0.161498 -0.273639
O17   O     O_3   0.749702 0.470949 0.952656 -0.625759
O18   O     O_3   0.749641 0.529830 0.451119 -0.636691
O19   O     O_3   0.250044 0.970644 0.953365 -0.643499
O20   O     O_3   0.249317 0.030338 0.449554 -0.629995
O21   O     O_3   0.940283 0.186452 0.621854 -0.507035
O22   O     O_3   0.934995 0.812335 0.132151 -0.508645
O23   O     O_3   0.434152 0.687848 0.631886 -0.505800
O24   O     O_3   0.420983 0.309551 0.156100 -0.470156
H1    H     H_    0.055380 0.214187 0.725475 0.139014
H2    H     H_    0.056718 0.801823 0.190061 0.134291
H3    H     H_    0.555703 0.699926 0.689933 0.131237
H4    H     H_    0.451322 0.330066 0.935145 0.071796
C1    C     C_3   0.052158 0.116934 0.597556 -0.448728
C2    C     C_3   0.020675 0.893529 0.044120 -0.439866
C3    C     C_3   0.521910 0.605933 0.550649 -0.441442
C4    C     C_3   0.553934 0.332129 0.129534 -0.281908
H5    H     H_    0.535014 0.574711 0.662286 0.199568
H6    H     H_    0.569294 0.276347 0.115284 0.213796
H7    H     H_    0.117465 0.119974 0.609696 0.187335
H8    H     H_    0.031038 0.926650 0.153043 0.197709
H9    H     H_    0.036500 0.082542 0.690436 0.212721
H10   H     H_    0.966218 0.912848 0.962715 0.245535
H11   H     H_    0.467324 0.584124 0.474420 0.245039
H12   H     H_    0.567254 0.344590 0.258719 0.257905
P5    P     P_3+3 0.165830 0.418670 0.685610 0.570583
P6    P     P_3+3 0.165830 0.581330 0.185610 0.569160
P7    P     P_3+3 0.665830 0.918670 0.685610 0.560674
P8    P     P_3+3 0.665830 0.081330 0.185610 0.557965
P9    P     P_3+3 0.098251 0.263430 0.108656 0.508171
P10   P     P_3+3 0.099620 0.735225 0.608112 0.519328
P11   P     P_3+3 0.599410 0.764264 0.107527 0.509988
P12   P     P_3+3 0.600648 0.234788 0.607977 0.519732
O25   O     O_2   0.157990 0.394030 0.856030 -0.330454
O26   O     O_2   0.157990 0.605970 0.356030 -0.336669
O27   O     O_2   0.657990 0.894030 0.856030 -0.337986
O28   O     O_2   0.657990 0.105970 0.356030 -0.342309
O29   O     O_3   0.027110 0.329490 0.059550 -0.333887
O30   O     O_3   0.027110 0.670510 0.559550 -0.337217
O31   O     O_3   0.527110 0.829490 0.059550 -0.337526
O32   O     O_3   0.527110 0.170510 0.559550 -0.342642
O33   O     O_2   0.156388 0.275565 0.996945 -0.284824
O34   O     O_2   0.156658 0.723466 0.493905 -0.284559
O35   O     O_2   0.656531 0.776351 0.993785 -0.284821
O36   O     O_2   0.655902 0.224431 0.489674 -0.286583
O37   O     O_3   0.251041 0.470378 0.732509 -0.528343
O38   O     O_3   0.250600 0.528681 0.230300 -0.532268
O39   O     O_3   0.750385 0.970879 0.733965 -0.541270
O40   O     O_3   0.750682 0.029059 0.232683 -0.544827
O41   O     O_3   0.049880 0.184499 0.042324 -0.607823
O42   O     O_3   0.051460 0.814297 0.544690 -0.600053
O43   O     O_3   0.550961 0.685430 0.042174 -0.609191
O44   O     O_3   0.553445 0.315425 0.554200 -0.608299
C5    C     C_3   0.968752 0.187740 0.049798 1.240203
C6    C     C_3   0.971465 0.811806 0.559617 1.298006
C7    C     C_3   0.471356 0.688404 0.059023 1.321432
C8    C     C_3   0.474424 0.312692 0.574655 1.368882
H13   H     H_    0.961469 0.193093 0.175070 -0.178439
H14   H     H_    0.967156 0.802146 0.685564 -0.222965
H15   H     H_    0.467690 0.699254 0.184930 -0.244745
H16   H     H_    0.472009 0.295457 0.697112 -0.292034
C9    C     C_3   0.925919 0.123009 0.969478 -0.433422
C10   C     C_3   0.929948 0.880223 0.498103 -0.461320
C11   C     C_3   0.429769 0.619653 0.001484 -0.454165
C12   C     C_3   0.435441 0.384826 0.540711 -0.460267
H17   H     H_    0.366251 0.631700 0.954313 0.255612
H18   H     H_    0.370290 0.377640 0.503026 0.251333
H19   H     H_    0.864258 0.139205 0.916437 0.258775
H20   H     H_    0.866885 0.867980 0.447117 0.260453
H21   H     H_    0.955240 0.105201 0.873256 0.208298
H22   H     H_    0.957250 0.901839 0.402176 0.200129
H23   H     H_    0.455660 0.597489 0.904003 0.199958
H24   H     H_    0.457209 0.409725 0.441095 0.192248
C13   C     C_3   0.231914 0.458012 0.246059 1.106119
C14   C     C_3   0.232996 0.541451 0.745092 1.094593
C15   C     C_3   0.732975 0.957754 0.239319 1.082001
C16   C     C_3   0.731836 0.042197 0.737952 1.076416
H25   H     H_    0.171990 0.442002 0.181260 0.010341
H26   H     H_    0.171731 0.557096 0.687898 0.004456
H27   H     H_    0.672453 0.942176 0.177174 0.018175
H28   H     H_    0.670495 0.057224 0.680083 0.017668
C17   C     C_3   0.290542 0.415393 0.178558 -0.795152
C18   C     C_3   0.287897 0.582124 0.663797 -0.759024
C19   C     C_3   0.790430 0.919186 0.160164 -0.773297
C20   C     C_3   0.786265 0.080085 0.651047 -0.763601
H29   H     H_    0.351422 0.426654 0.244552 0.212405
H30   H     H_    0.350137 0.570376 0.718998 0.211942
H31   H     H_    0.852103 0.933479 0.215888 0.220790
H32   H     H_    0.848534 0.067158 0.703288 0.218972
H33   H     H_    0.277545 0.358573 0.184257 0.265698
H34   H     H_    0.276359 0.639270 0.668941 0.255550
H35   H     H_    0.781567 0.861688 0.165798 0.265167
H36   H     H_    0.776111 0.137525 0.653054 0.260017
H37   H     H_    0.287124 0.432539 0.054153 0.290168
H38   H     H_    0.279240 0.563431 0.539449 0.300669
H39   H     H_    0.781013 0.937711 0.035733 0.294573
H40   H     H_    0.775887 0.059618 0.528232 0.299814
Ba1   Ba    Ba6+2 0.000000 0.447380 0.844850 1.586413
Ba2   Ba    Ba6+2 1.000000 0.552620 0.344850 1.590458
Ba3   Ba    Ba6+2 0.500000 0.947380 0.844850 1.588214
Ba4   Ba    Ba6+2 0.500000 0.052620 0.344850 1.591961
C21   C     C_3   0.770134 0.541522 0.949269 0.186841
C22   C     C_3   0.768661 0.458883 0.455987 0.193203
C23   C     C_3   0.269268 0.041447 0.960092 0.199906
C24   C     C_3   0.267709 0.959296 0.447604 0.192116
H41   H     H_    0.793559 0.551297 0.840690 0.034611
H42   H     H_    0.790654 0.445602 0.347371 0.042229
H43   H     H_    0.294296 0.054671 0.855184 0.043811
H44   H     H_    0.289185 0.947766 0.337465 0.034279
H45   H     H_    0.813926 0.557822 0.057596 0.156757
H46   H     H_    0.812679 0.443717 0.564737 0.156023
H47   H     H_    0.310848 0.056223 0.072018 0.154917
H48   H     H_    0.312055 0.942550 0.554862 0.152918
C25   C     C_3   0.695044 0.584199 0.941691 0.625676
C26   C     C_3   0.692414 0.419546 0.454253 0.600874
C27   C     C_3   0.191993 0.080258 0.950102 0.633671
C28   C     C_3   0.191155 0.919800 0.444229 0.631676
H49   H     H_    0.655788 0.576352 0.823125 0.042471
H50   H     H_    0.650243 0.433636 0.342225 0.054552
H51   H     H_    0.153349 0.063313 0.837870 0.025189
H52   H     H_    0.149153 0.931010 0.330205 0.044808
O45   O     O_3   0.092100 0.536880 0.086720 -0.451295
O46   O     O_3   0.092100 0.463120 0.586720 -0.448310
O47   O     O_3   0.592100 0.036880 0.086720 -0.451282
O48   O     O_3   0.592100 0.963120 0.586720 -0.452454
P13   P     P_3+3 0.895084 0.730295 0.072040 0.569947
P14   P     P_3+3 0.897378 0.268217 0.569398 0.554673
P15   P     P_3+3 0.392642 0.228047 0.070922 0.572624
P16   P     P_3+3 0.394728 0.770149 0.571879 0.568038
C29   C     C_3   0.020768 0.190239 0.613789 0.448140
C30   C     C_3   0.008600 0.817827 0.087809 0.421691
C31   C     C_3   0.508029 0.682155 0.588713 0.421609
C32   C     C_3   0.466205 0.344563 0.063084 0.292814
H53   H     H_    0.030372 0.221085 0.509337 0.019131
H54   H     H_    0.012661 0.784840 0.982289 0.029105
H55   H     H_    0.511408 0.713826 0.481031 0.031236
H56   H     H_    0.453210 0.401339 0.069730 0.095889
C33   C     C_R   0.134255 0.680513 0.925190 -0.138015
C34   C     C_R   0.133017 0.318972 0.425604 -0.145732
C35   C     C_R   0.635823 0.179822 0.924428 -0.118782
C36   C     C_R   0.634060 0.819118 0.425216 -0.127058
C37   C     C_R   0.854110 0.327804 0.264554 -0.599613
C38   C     C_R   0.854062 0.671941 0.765016 -0.594352
C39   C     C_R   0.353528 0.828230 0.265080 -0.593179
C40   C     C_R   0.354602 0.172267 0.763021 -0.567209
C41   C     C_R   0.796043 0.214198 0.291108 0.713618
C42   C     C_R   0.794848 0.785081 0.792002 0.717127
C43   C     C_R   0.294458 0.715182 0.292445 0.719127
C44   C     C_R   0.293220 0.284213 0.792631 0.708665
C45   C     C_R   0.845262 0.269892 0.356965 0.161374
C46   C     C_R   0.844548 0.729633 0.857962 0.152103
C47   C     C_R   0.344013 0.770703 0.358114 0.142079
C48   C     C_R   0.344522 0.229501 0.856298 0.111273
C49   C     C_R   0.815406 0.332981 0.104689 0.374735
C50   C     C_R   0.814325 0.666207 0.605830 0.374094
C51   C     C_R   0.314098 0.833758 0.105671 0.376109
C52   C     C_R   0.314019 0.166226 0.604973 0.376728
C53   C     C_R   0.760241 0.277074 0.038755 -0.101613
C54   C     C_R   0.757758 0.721085 0.540661 -0.112434
C55   C     C_R   0.257677 0.778725 0.040536 -0.115008
C56   C     C_R   0.256501 0.220603 0.541104 -0.113638
C57   C     C_R   0.245346 0.719224 0.137761 -0.293661
C58   C     C_R   0.244190 0.280218 0.638081 -0.290956
C59   C     C_R   0.747090 0.218166 0.136637 -0.287500
C60   C     C_R   0.745498 0.780765 0.637587 -0.293446
C61   C     C_R   0.183115 0.667777 0.078314 0.406241
C62   C     C_R   0.182156 0.331830 0.578553 0.397341
C63   C     C_R   0.684287 0.167202 0.077830 0.409384
C64   C     C_R   0.683148 0.832128 0.578164 0.408968
C65   C     C_R   0.154385 0.731808 0.822643 0.140455
C66   C     C_R   0.152426 0.266733 0.323811 0.146765
C67   C     C_R   0.657133 0.229992 0.820883 0.152339
C68   C     C_R   0.654126 0.767543 0.322573 0.139651
C69   C     C_R   0.214389 0.780380 0.881553 -0.171293
C70   C     C_R   0.212719 0.218363 0.383090 -0.186033
C71   C     C_R   0.718198 0.277713 0.879022 -0.172933
C72   C     C_R   0.714375 0.719008 0.381795 -0.177683
H57   H     H_    0.731018 0.316464 0.799033 0.209007
H58   H     H_    0.725902 0.678649 0.303293 0.209033
H59   H     H_    0.225266 0.820480 0.802291 0.207808
H60   H     H_    0.225976 0.179337 0.304258 0.206290
H61   H     H_    0.891024 0.370546 0.319768 0.168764
H62   H     H_    0.891845 0.629561 0.819666 0.167581
H63   H     H_    0.391107 0.870673 0.319836 0.167479
H64   H     H_    0.392898 0.130092 0.817111 0.164986
F1    F     F_    0.714061 0.654191 0.956391 -0.689899
F2    F     F_    0.707270 0.348631 0.455275 -0.685973
F3    F     F_    0.203717 0.151363 0.943640 -0.687982
F4    F     F_    0.206284 0.848897 0.451971 -0.685170
C73   C     C_3   0.650758 0.562127 0.071215 -0.824656
H65   H     H_    0.675920 0.514732 0.137724 0.224134
H66   H     H_    0.653181 0.603065 0.161902 0.269789
H67   H     H_    0.587752 0.552118 0.015244 0.206424
C74   C     C_3   0.654618 0.440158 0.594370 -0.834629
H68   H     H_    0.675930 0.491318 0.646658 0.223726
H69   H     H_    0.589696 0.444142 0.551684 0.227102
H70   H     H_    0.666312 0.401759 0.691347 0.268649
C75   C     C_3   0.150745 0.060891 0.085793 -0.841418
H71   H     H_    0.171247 0.010080 0.141440 0.221624
H72   H     H_    0.159802 0.099908 0.181179 0.265502
H73   H     H_    0.086285 0.057107 0.037085 0.222769
C76   C     C_3   0.153255 0.942665 0.582243 -0.882469
H74   H     H_    0.158026 0.999643 0.604974 0.224404
H75   H     H_    0.089612 0.931141 0.552728 0.242898
H76   H     H_    0.181148 0.916171 0.693626 0.276668
C77   C     C_3   0.589719 0.600174 0.463525 -0.993493
H77   H     H_    0.592103 0.546879 0.414879 0.286895
H78   H     H_    0.580275 0.636319 0.360198 0.259362
H79   H     H_    0.646581 0.612768 0.546509 0.279590
C78   C     C_3   0.602271 0.378331 0.042050 -1.064884
H80   H     H_    0.597049 0.359310 0.917993 0.273099
H81   H     H_    0.579933 0.432750 0.037379 0.268776
H82   H     H_    0.665130 0.378144 0.105522 0.291611
C79   C     C_3   0.016462 0.086347 0.435477 -0.899302
H83   H     H_    0.950906 0.089415 0.414081 0.314105
H84   H     H_    0.039337 0.115642 0.343229 0.253174
H85   H     H_    0.033316 0.030692 0.429175 0.258207
C80   C     C_3   0.090052 0.899115 0.961413 -1.000511
H86   H     H_    0.082481 0.862398 0.859139 0.264646
H87   H     H_    0.092271 0.952059 0.911320 0.287707
H88   H     H_    0.146265 0.887559 0.047771 0.281830
C81   C     C_3   0.433040 0.564842 0.130883 -0.973113
H89   H     H_    0.401829 0.584638 0.222429 0.308623
H90   H     H_    0.401779 0.517185 0.076419 0.298670
H91   H     H_    0.495003 0.550389 0.184493 0.259585
C82   C     C_3   0.450313 0.434279 0.683749 -1.011559
H92   H     H_    0.412909 0.419542 0.768531 0.298613
H93   H     H_    0.513641 0.435023 0.744799 0.264272
H94   H     H_    0.432650 0.487862 0.641100 0.287920
C83   C     C_3   0.919895 0.061441 0.078025 -0.993418
H95   H     H_    0.883401 0.076226 0.164643 0.321611
H96   H     H_    0.889927 0.017455 0.004419 0.313532
H97   H     H_    0.979048 0.042673 0.138743 0.257037
C84   C     C_3   0.930528 0.935854 0.625129 -0.974315
H98   H     H_    0.894398 0.918231 0.710180 0.310377
H99   H     H_    0.991499 0.948279 0.688625 0.261967
H100  H     H_    0.903747 0.984296 0.565477 0.309966
F5    F     F_    0.297182 0.656941 0.380705 -0.698943
F6    F     F_    0.293202 0.341099 0.884206 -0.708335
F7    F     F_    0.799447 0.155551 0.378071 -0.699626
F8    F     F_    0.797816 0.843571 0.879505 -0.703331
C85   C     C_3   0.057612 0.642368 0.866616 -0.729112
H101  H     H_    0.029361 0.621516 0.955058 0.258460
H102  H     H_    0.011771 0.681136 0.814733 0.184310
H103  H     H_    0.065008 0.598553 0.785961 0.252402
C86   C     C_3   0.056883 0.357986 0.366385 -0.713603
H104  H     H_    0.028304 0.379209 0.454365 0.256703
H105  H     H_    0.065103 0.401585 0.286092 0.252816
H106  H     H_    0.010855 0.319584 0.313861 0.182920
C87   C     C_3   0.558288 0.143026 0.867132 -0.739195
H107  H     H_    0.530494 0.122319 0.956240 0.258861
H108  H     H_    0.513080 0.182637 0.817053 0.192862
H109  H     H_    0.564419 0.099123 0.785714 0.252933
C88   C     C_3   0.557566 0.857653 0.366577 -0.724887
H110  H     H_    0.529192 0.878583 0.455082 0.257675
H111  H     H_    0.565387 0.901430 0.286353 0.253663
H112  H     H_    0.511617 0.819134 0.314338 0.184359
F9    F     F_    0.931047 0.243351 0.961538 -0.669090
F10   F     F_    0.930614 0.759930 0.462822 -0.666354
F11   F     F_    0.430144 0.739741 0.960963 -0.666776
F12   F     F_    0.430418 0.266734 0.465338 -0.666667
F13   F     F_    0.240975 0.442744 0.405564 -0.765683
F14   F     F_    0.247360 0.559200 0.904295 -0.765714
F15   F     F_    0.744964 0.937920 0.396978 -0.769524
F16   F     F_    0.746355 0.063733 0.894727 -0.771746

loop_
_geom_bond_atom_site_label_1
_geom_bond_atom_site_label_2
_geom_bond_distance
_ccdc_geom_bond_type
C65   C69   1.400997 A    
C35   C87   1.498002 S    
C33   C85   1.499249 S    
P1    O17   1.733658 S    
O5    Ba2   2.883851 S    
C25   C73   1.534995 S    
P3    O19   1.725291 S    
C2    H10   1.105822 S    
O20   C24   1.391660 S    
C25   H49   1.103068 S    
P4    O4    1.567346 D    
Ba2   O45   2.999910 S    
C39   C51   1.392304 A    
C8    C12   1.530549 S    
C13   F13   1.372322 S    
P2    Ba2   3.462739 S    
C56   C70   1.401568 A    
P8    Ba4   3.467530 S    
O27   Ba3   2.889879 S    
C74   H68   1.103193 S    
P15   C48   1.847241 S    
C75   H73   1.103366 S    
C27   H51   1.094330 S    
O10   P13   1.748427 S    
C39   H63   1.079793 S    
C83   H95   1.106619 S    
C16   F16   1.373876 S    
C26   C74   1.533452 S    
P11   O43   1.753278 S    
P12   O32   1.750276 S    
C38   H62   1.079445 S    
O12   P15   1.752309 S    
P1    O1    1.565955 D    
C33   C61   1.419333 A    
C68   C72   1.402056 A    
C37   H61   1.079525 S    
C3    H5    1.107898 S    
C40   C52   1.388566 A    
C12   H18   1.109691 S    
P6    O38   1.746065 S    
C78   H82   1.104018 S    
P3    O3    1.565955 D    
C34   C66   1.408975 A    
C85   H101  1.062427 S    
P4    O20   1.729839 S    
C15   H27   1.106501 S    
P5    C62   1.940654 S    
C26   F2    1.375561 S    
C14   H26   1.106042 S    
C25   F1    1.374241 S    
C27   C75   1.532583 S    
O30   Ba2   2.876683 S    
C73   H67   1.106812 S    
P9    O29   1.744775 S    
C24   H48   1.108716 S    
C19   H35   1.109903 S    
C81   H89   1.107207 S    
C58   C62   1.461938 A    
C35   C63   1.418169 A    
C38   C46   1.386788 A    
C2    C80   1.519643 S    
P10   C65   1.877884 S    
C29   H53   1.112850 S    
O42   C6    1.413947 S    
C22   C26   1.512938 S    
C44   F6    1.337559 S    
C40   H64   1.079619 S    
C88   H111  1.108395 S    
C20   H40   1.099231 S    
C70   H60   1.060984 S    
C28   C76   1.530433 S    
C32   H56   1.109079 S    
C56   C58   1.448693 A    
O23   P16   1.742953 S    
O10   Ba2   2.879865 S    
Ba4   O48   2.883430 S    
P2    O18   1.729726 S    
O23   C31   1.405063 S    
C8    H16   1.108393 S    
C10   C84   1.516650 S    
O41   C5    1.416014 S    
O21   P14   1.742294 S    
C31   H55   1.114771 S    
P4    O8    1.603856 S    
C3    H11   1.105985 S    
C79   H83   1.107789 S    
C50   C54   1.457063 A    
C87   H107  1.061219 S    
C19   H31   1.103331 S    
C4    H12   1.105871 S    
C28   H52   1.104760 S    
C14   F14   1.373986 S    
C9    H21   1.107662 S    
O14   P13   1.540547 D    
P7    Ba3   3.465105 S    
C26   H50   1.105558 S    
P7    O27   1.566643 D    
P5    O25   1.566643 D    
C34   C86   1.499204 S    
P9    O41   1.756137 S    
C82   H92   1.106464 S    
P11   C68   1.881331 S    
C17   H29   1.102179 S    
Ba3   O48   3.001169 S    
O28   Ba4   2.893650 S    
C7    H15   1.112286 S    
P2    O2    1.567346 D    
Ba4   O47   2.999910 S    
C3    C31   1.518856 S    
O9    P14   1.745210 S    
C6    C10   1.526143 S    
O7    Ba4   2.883851 S    
C34   C62   1.420398 A    
P7    O39   1.742596 S    
C86   H106  1.103384 S    
C15   C19   1.505402 S    
O18   C22   1.390088 S    
P6    O45   1.610639 S    
C33   C65   1.408043 A    
C74   H69   1.103741 S    
C41   C45   1.401317 A    
Ba3   O47   2.883792 S    
C83   H96   1.108420 S    
O40   C15   1.398152 S    
P9    O33   1.544953 D    
C8    F12   1.384280 S    
P4    C52   1.911249 S    
P10   O30   1.744336 S    
O3    Ba3   2.889993 S    
C7    F11   1.382888 S    
O22   C30   1.405348 S    
C42   C60   1.413098 A    
C36   C68   1.409205 A    
P8    C63   1.940756 S    
C73   H65   1.106076 S    
P12   O36   1.544663 D    
C13   C17   1.504493 S    
C85   H102  1.103334 S    
C87   H108  1.103604 S    
C57   C61   1.463864 A    
C4    C78   1.518268 S    
C24   C28   1.516621 S    
C43   C47   1.401437 A    
C39   C47   1.387052 A    
C5    F9    1.381119 S    
C75   H71   1.103898 S    
C69   H59   1.066304 S    
C54   C72   1.405423 A    
P7    O48   1.609185 S    
C41   F7    1.338564 S    
P8    O47   1.610639 S    
O1    Ba1   2.889993 S    
C12   C82   1.522401 S    
C81   H90   1.107793 S    
P12   C67   1.875926 S    
C41   C59   1.410392 A    
C22   H42   1.105853 S    
O22   P13   1.742608 S    
C28   F4    1.375521 S    
C71   H57   1.063440 S    
C21   H41   1.106309 S    
C78   H80   1.107097 S    
C18   H38   1.101641 S    
C73   H66   1.094742 S    
C35   C67   1.407021 A    
C85   H103  1.107641 S    
O8    Ba3   2.883489 S    
C37   C49   1.391813 A    
C52   C56   1.457356 A    
C23   H43   1.106315 S    
C88   H112  1.103410 S    
H4    C32   1.104944 S    
C49   C53   1.460559 A    
H2    C30   1.112156 S    
P1    C49   1.919734 S    
P12   O44   1.753836 S    
P6    O26   1.565255 D    
O15   P16   1.539885 D    
C77   H77   1.101797 S    
O16   P15   1.534081 D    
P1    O5    1.605291 S    
O44   C8    1.412341 S    
C1    H7    1.110739 S    
P8    O40   1.743990 S    
C79   H84   1.107800 S    
P1    Ba1   3.465110 S    
C9    H19   1.106946 S    
P3    Ba3   3.465110 S    
C5    C9    1.525173 S    
O38   C13   1.399677 S    
C38   C50   1.392346 A    
C72   H58   1.067121 S    
O37   C14   1.399168 S    
C11   H17   1.107432 S    
O43   C7    1.412410 S    
C42   C46   1.400951 A    
P10   O42   1.750077 S    
C15   F15   1.374418 S    
C82   H93   1.105642 S    
C87   H109  1.107949 S    
C30   H54   1.114455 S    
O39   C16   1.398558 S    
P10   O34   1.544489 D    
C2    H8    1.108049 S    
C80   H88   1.108166 S    
P6    Ba2   3.467530 S    
P14   C45   1.848280 S    
C36   C64   1.420546 A    
O29   Ba1   2.879228 S    
C77   H79   1.107527 S    
P2    O6    1.603856 S    
O26   Ba2   2.893650 S    
C13   H25   1.106714 S    
C20   H32   1.099219 S    
C1    C79   1.509222 S    
Ba1   O45   2.883792 S    
O4    Ba4   2.886260 S    
C16   C20   1.503665 S    
C20   H36   1.109611 S    
C55   C69   1.405560 A    
C74   H70   1.093379 S    
P3    C51   1.917337 S    
P8    O28   1.565255 D    
C40   C48   1.383991 A    
O19   C23   1.389129 S    
P13   C46   1.853197 S    
C6    F10   1.382838 S    
O24   P15   1.741710 S    
O31   Ba3   2.879228 S    
C53   C71   1.403977 A    
O12   Ba4   2.879865 S    
C23   H47   1.103463 S    
C3    C77   1.519948 S    
C4    C32   1.516804 S    
C84   H99   1.101709 S    
O21   C29   1.407028 S    
C9    C83   1.515820 S    
Ba2   O46   2.883430 S    
H3    C31   1.112261 S    
C76   H74   1.103692 S    
C84   H100  1.107294 S    
C51   C55   1.459360 A    
Ba3   Ba4   4.730111 S    
O24   C32   1.399450 S    
O11   P16   1.750052 S    
P9    C66   1.879462 S    
C43   C57   1.413034 A    
C76   H76   1.095356 S    
C11   H23   1.110234 S    
C11   C81   1.516252 S    
P11   O35   1.544445 D    
C44   C58   1.411474 A    
C19   H39   1.101185 S    
C10   H22   1.110727 S    
C24   H44   1.106123 S    
C81   H91   1.103781 S    
C1    H9    1.108860 S    
C80   H87   1.101410 S    
Ba1   O46   3.001169 S    
C84   H98   1.108021 S    
C21   H45   1.107858 S    
C37   C45   1.386964 A    
C78   H81   1.104049 S    
C86   H105  1.108019 S    
C53   C59   1.449390 A    
Ba1   Ba2   4.730111 S    
P2    C50   1.913100 S    
P5    O37   1.745444 S    
C7    C11   1.525383 S    
P5    O46   1.609185 S    
C43   F5    1.339208 S    
C86   H104  1.063818 S    
P16   C47   1.851616 S    
O2    Ba2   2.886260 S    
C18   H34   1.109878 S    
C10   H20   1.107252 S    
C16   H28   1.105470 S    
C4    H6    1.108578 S    
C77   H78   1.106167 S    
O11   Ba3   2.877322 S    
C18   H30   1.099298 S    
O25   Ba1   2.889879 S    
C2    C30   1.517690 S    
P6    C61   1.942636 S    
O17   C21   1.393787 S    
C75   H72   1.090371 S    
C17   H37   1.103915 S    
C79   H85   1.104148 S    
C67   C71   1.401318 A    
P5    Ba1   3.465105 S    
C83   H97   1.100688 S    
H1    C29   1.111092 S    
P3    O7    1.605291 S    
C66   C70   1.400567 A    
O32   Ba4   2.876683 S    
O13   P14   1.540602 D    
C60   C64   1.462165 A    
C44   C48   1.400058 A    
P11   O31   1.745681 S    
C27   F3    1.374273 S    
C14   C18   1.506700 S    
C76   H75   1.095308 S    
C6    H14   1.112202 S    
C82   H94   1.105611 S    
C23   C27   1.509925 S    
O9    Ba1   2.877322 S    
O6    Ba1   2.883489 S    
C5    H13   1.110742 S    
P4    Ba4   3.462739 S    
C1    C29   1.515037 S    
C36   C88   1.498986 S    
C12   H24   1.110354 S    
C21   C25   1.518143 S    
P7    C64   1.941763 S    
C80   H86   1.106134 S    
C17   H33   1.110179 S    
C22   H46   1.106348 S    
C54   C60   1.449172 A    
C59   C63   1.463240 A    
C42   F8    1.337638 S    
C55   C57   1.450859 A    
C88   H110  1.063174 S    
