data_mof_unit_63884.cif
_audit_creation_date              2012-12-10T18:05:25-0500
_audit_creation_method            fapswitch 2.2
_symmetry_space_group_name_H-M    P1
_symmetry_Int_Tables_number       1
_space_group_crystal_system       triclinic
_cell_length_a                    30.823629
_cell_length_b                    30.609624
_cell_length_c                    23.655423
_cell_angle_alpha                 89.999868
_cell_angle_beta                  131.076351
_cell_angle_gamma                 90.000016
_cell_volume                      16824.7486415

loop_
_atom_site_label
_atom_site_type_symbol
_atom_type_description
_atom_site_fract_x
_atom_site_fract_y
_atom_site_fract_z
_atom_type_partial_charge
C1    C     C_R   0.809504 0.809505 0.500564 0.796339
C2    C     C_R   0.190496 0.809505 0.499436 0.796339
C3    C     C_R   0.309505 0.309505 0.500564 0.796339
C4    C     C_R   0.690495 0.309505 0.499436 0.796340
C5    C     C_R   0.442451 0.759131 0.885991 0.092169
C6    C     C_R   0.557548 0.759130 0.114009 0.092176
C7    C     C_R   0.942453 0.259126 0.885991 0.092180
C8    C     C_R   0.057546 0.259127 0.114009 0.092176
C9    C     C_1   0.483118 0.762038 0.966288 -0.057528
C10   C     C_1   0.516883 0.762038 0.033713 -0.057527
C11   C     C_1   0.983117 0.262034 0.966287 -0.057527
C12   C     C_1   0.016882 0.262035 0.033712 -0.057528
C13   C     C_R   0.845018 0.844296 0.443752 0.108368
C14   C     C_R   0.154982 0.844296 0.556248 0.108368
C15   C     C_R   0.345019 0.344295 0.443753 0.108369
C16   C     C_R   0.654982 0.344296 0.556248 0.108370
C17   C     C_R   0.841443 0.843570 0.499502 -0.081089
C18   C     C_R   0.158557 0.843570 0.500498 -0.081088
C19   C     C_R   0.341443 0.343570 0.499502 -0.081090
C20   C     C_R   0.658556 0.343570 0.500498 -0.081091
C21   C     C_R   0.864185 0.878778 0.549874 -0.211980
C22   C     C_R   0.135816 0.878779 0.450127 -0.211979
C23   C     C_R   0.364184 0.378779 0.549873 -0.211980
C24   C     C_R   0.635815 0.378778 0.450126 -0.211981
C25   C     C_R   0.896744 0.910866 0.550207 -0.208668
C26   C     C_R   0.103257 0.910866 0.449794 -0.208669
C27   C     C_R   0.396743 0.410866 0.550206 -0.208670
C28   C     C_R   0.603257 0.410866 0.449794 -0.208668
C29   C     C_R   0.904933 0.908609 0.498424 -0.088604
C30   C     C_R   0.095068 0.908609 0.501576 -0.088604
C31   C     C_R   0.404933 0.408609 0.498424 -0.088602
C32   C     C_R   0.595068 0.408609 0.501576 -0.088604
C33   C     C_R   0.875651 0.876653 0.442604 0.139029
C34   C     C_R   0.124349 0.876653 0.557396 0.139030
C35   C     C_R   0.375652 0.376653 0.442605 0.139032
C36   C     C_R   0.624349 0.376653 0.557396 0.139030
C37   C     C_3   0.898162 0.845460 0.418651 -0.485624
C38   C     C_3   0.101839 0.845460 0.581350 -0.485623
C39   C     C_3   0.398164 0.345459 0.418654 -0.485628
C40   C     C_3   0.601839 0.345460 0.581350 -0.485627
C41   C     C_3   0.864535 0.809874 0.420129 -0.464197
C42   C     C_3   0.135466 0.809874 0.579872 -0.464201
C43   C     C_3   0.364537 0.309874 0.420132 -0.464193
C44   C     C_3   0.635466 0.309874 0.579872 -0.464195
C45   C     C_R   0.677701 0.750001 0.355171 0.778248
C46   C     C_R   0.322298 0.750001 0.644829 0.778265
C47   C     C_R   0.177700 0.250000 0.355171 0.778246
C48   C     C_R   0.822300 0.250000 0.644829 0.778240
C49   C     C_R   0.035710 0.749016 0.152204 -0.143338
C50   C     C_R   0.964290 0.749022 0.847795 -0.143341
C51   C     C_R   0.535710 0.249024 0.152205 -0.143344
C52   C     C_R   0.464291 0.249022 0.847795 -0.143343
C53   C     C_R   0.073720 0.749082 0.231405 0.131545
C54   C     C_R   0.926280 0.749088 0.768593 0.131544
C55   C     C_R   0.573721 0.249090 0.231407 0.131544
C56   C     C_R   0.426280 0.249089 0.768593 0.131545
C57   C     C_R   0.134011 0.751520 0.272497 -0.083573
C58   C     C_R   0.865989 0.751519 0.727502 -0.083563
C59   C     C_R   0.634012 0.251519 0.272498 -0.083559
C60   C     C_R   0.365989 0.251519 0.727502 -0.083561
C61   C     C_R   0.153938 0.755435 0.233690 -0.219554
C62   C     C_R   0.846060 0.755426 0.766310 -0.219544
C63   C     C_R   0.653941 0.255421 0.233690 -0.219538
C64   C     C_R   0.346060 0.255424 0.766310 -0.219542
C65   C     C_R   0.115530 0.755653 0.155487 -0.161546
C66   C     C_R   0.884470 0.755644 0.844513 -0.161527
C67   C     C_R   0.615532 0.255639 0.155487 -0.161519
C68   C     C_R   0.384470 0.255641 0.844513 -0.161526
C69   C     C_R   0.056466 0.752229 0.114655 0.092299
C70   C     C_R   0.943534 0.752228 0.885344 0.092294
C71   C     C_R   0.556467 0.252225 0.114656 0.092292
C72   C     C_R   0.443534 0.252226 0.885344 0.092294
C73   C     C_1   0.016731 0.752257 0.033831 -0.056552
C74   C     C_1   0.983269 0.752257 0.966168 -0.056553
C75   C     C_1   0.516732 0.252254 0.033832 -0.056553
C76   C     C_1   0.483270 0.252254 0.966169 -0.056553
C77   C     C_R   0.611267 0.639912 0.438075 -0.000640
C78   C     C_R   0.388703 0.639883 0.561921 -0.000647
C79   C     C_R   0.111264 0.139915 0.438076 -0.000636
C80   C     C_R   0.888747 0.139926 0.561925 -0.000634
C81   C     C_R   0.660241 0.657599 0.503890 -0.102546
C82   C     C_R   0.339758 0.657599 0.496110 -0.102529
C83   C     C_R   0.160241 0.157600 0.503889 -0.102544
C84   C     C_R   0.839758 0.157599 0.496110 -0.102552
C85   C     C_R   0.677750 0.642130 0.572727 0.143465
C86   C     C_R   0.322281 0.642161 0.427275 0.143486
C87   C     C_R   0.177752 0.142127 0.572727 0.143465
C88   C     C_R   0.822235 0.142116 0.427271 0.143456
C89   C     C_R   0.691207 0.690743 0.500567 0.813111
C90   C     C_R   0.308793 0.690743 0.499433 0.813125
C91   C     C_R   0.191207 0.190743 0.500566 0.813105
C92   C     C_R   0.808793 0.190743 0.499433 0.813103
C93   C     C_R   0.644548 0.609398 0.571133 -0.236321
C94   C     C_R   0.355484 0.609429 0.428868 -0.236333
C95   C     C_R   0.144551 0.109395 0.571133 -0.236330
C96   C     C_R   0.855436 0.109383 0.428866 -0.236324
C97   C     C_R   0.594400 0.592441 0.502202 -0.126148
C98   C     C_R   0.405602 0.592444 0.497798 -0.126142
C99   C     C_R   0.094400 0.092441 0.502202 -0.126147
C100  C     C_R   0.905598 0.092440 0.497798 -0.126150
C101  C     C_R   0.579791 0.608884 0.437020 0.084783
C102  C     C_R   0.420182 0.608859 0.562976 0.084777
C103  C     C_R   0.079788 0.108888 0.437021 0.084780
C104  C     C_R   0.920222 0.108897 0.562980 0.084785
C105  C     C_3   0.535674 0.607624 0.353384 -0.437028
C106  C     C_3   0.464264 0.607561 0.646613 -0.437015
C107  C     C_3   0.035668 0.107630 0.353386 -0.437030
C108  C     C_3   0.964356 0.107653 0.646616 -0.437036
C109  C     C_3   0.571605 0.643715 0.354911 -0.068081
C110  C     C_3   0.428331 0.643650 0.645087 -0.068089
C111  C     C_3   0.071599 0.143722 0.354913 -0.068079
C112  C     C_3   0.928426 0.143747 0.645088 -0.068078
C113  C     C_R   0.440150 0.559452 0.499610 0.821092
C114  C     C_R   0.559850 0.559451 0.500390 0.821090
C115  C     C_R   0.940149 0.059450 0.499610 0.821093
C116  C     C_R   0.059850 0.059451 0.500390 0.821095
C117  C     C_R   0.940334 0.940499 0.499755 0.800272
C118  C     C_R   0.059666 0.940499 0.500246 0.800274
C119  C     C_R   0.440334 0.440499 0.499755 0.800275
C120  C     C_R   0.559666 0.440499 0.500246 0.800273
C121  C     C_R   0.823027 0.750593 0.644432 0.775980
C122  C     C_R   0.176973 0.750593 0.355568 0.775997
C123  C     C_R   0.323027 0.250593 0.644432 0.775976
C124  C     C_R   0.676974 0.250592 0.355568 0.775970
C125  C     C_R   0.446589 0.786647 0.842930 -0.167307
C126  C     C_R   0.553422 0.786655 0.157071 -0.167317
C127  C     C_R   0.946573 0.286658 0.842929 -0.167321
C128  C     C_R   0.053424 0.286656 0.157070 -0.167316
C129  C     C_R   0.407483 0.782684 0.765142 -0.219176
C130  C     C_R   0.592527 0.782692 0.234859 -0.219184
C131  C     C_R   0.907468 0.282696 0.765141 -0.219186
C132  C     C_R   0.092529 0.282694 0.234859 -0.219185
C133  C     C_R   0.363289 0.751083 0.728560 -0.102096
C134  C     C_R   0.636709 0.751081 0.271440 -0.102072
C135  C     C_R   0.863293 0.251079 0.728559 -0.102062
C136  C     C_R   0.136708 0.251080 0.271440 -0.102069
C137  C     C_R   0.359362 0.722342 0.772971 0.137949
C138  C     C_R   0.640623 0.722329 0.227028 0.137956
C139  C     C_R   0.859386 0.222321 0.772972 0.137961
C140  C     C_R   0.140619 0.222325 0.227029 0.137960
C141  C     C_R   0.399648 0.727309 0.851634 -0.144767
C142  C     C_R   0.600339 0.727297 0.148365 -0.144770
C143  C     C_R   0.899670 0.227287 0.851635 -0.144772
C144  C     C_R   0.100334 0.227291 0.148366 -0.144770
Cu1   Cu    Cu3+1 0.780910 0.719080 0.500000 0.908742
Cu2   Cu    Cu3+1 0.219090 0.719080 0.500000 0.908735
Cu3   Cu    Cu3+1 0.280910 0.219080 0.500000 0.908744
Cu4   Cu    Cu3+1 0.719090 0.219080 0.500000 0.908746
Cu5   Cu    Cu3+1 0.719070 0.780890 0.500010 0.937792
Cu6   Cu    Cu3+1 0.280930 0.780890 0.499990 0.937789
Cu7   Cu    Cu3+1 0.219070 0.280890 0.500010 0.937793
Cu8   Cu    Cu3+1 0.780930 0.280890 0.499990 0.937795
Cu9   Cu    Cu3+1 0.462710 0.500000 0.425470 0.934608
Cu10  Cu    Cu3+1 0.537290 0.500000 0.574530 0.934605
Cu11  Cu    Cu3+1 0.962710 0.000000 0.425470 0.934604
Cu12  Cu    Cu3+1 0.037290 1.000000 0.574530 0.934604
H1    H     H_    0.480107 0.811201 0.869467 0.139499
H2    H     H_    0.519913 0.811218 0.130534 0.139500
H3    H     H_    0.980076 0.311225 0.869465 0.139502
H4    H     H_    0.019917 0.311220 0.130534 0.139501
H5    H     H_    0.892498 0.784896 0.464348 0.210211
H6    H     H_    0.107503 0.784896 0.535653 0.210212
H7    H     H_    0.392500 0.284896 0.464352 0.210210
H8    H     H_    0.607503 0.284896 0.535653 0.210211
H9    H     H_    0.199613 0.757726 0.264118 0.148908
H10   H     H_    0.800386 0.757711 0.735882 0.148885
H11   H     H_    0.699616 0.257704 0.264119 0.148873
H12   H     H_    0.300385 0.257708 0.735882 0.148881
H13   H     H_    0.131967 0.758329 0.126837 0.136408
H14   H     H_    0.868032 0.758315 0.873163 0.136405
H15   H     H_    0.631969 0.258306 0.126837 0.136402
H16   H     H_    0.368032 0.258310 0.873163 0.136403
H17   H     H_    0.657807 0.597556 0.623634 0.166198
H18   H     H_    0.342249 0.597610 0.376370 0.166189
H19   H     H_    0.157812 0.097550 0.623633 0.166201
H20   H     H_    0.842166 0.097531 0.376364 0.166202
H21   H     H_    0.535150 0.575654 0.330616 0.195500
H22   H     H_    0.464753 0.575580 0.669324 0.195487
H23   H     H_    0.035142 0.075661 0.330615 0.195502
H24   H     H_    0.964896 0.075689 0.669410 0.195506
H25   H     H_    0.492963 0.619273 0.331650 0.177785
H26   H     H_    0.506992 0.619203 0.668401 0.177800
H27   H     H_    0.992959 0.119279 0.331659 0.177791
H28   H     H_    0.007058 0.119305 0.668322 0.177784
H29   H     H_    0.411861 0.804862 0.733492 0.166403
H30   H     H_    0.588159 0.804879 0.266510 0.166404
H31   H     H_    0.911830 0.304888 0.733489 0.166404
H32   H     H_    0.088164 0.304883 0.266510 0.166405
H33   H     H_    0.550018 0.676150 0.335065 0.162676
H34   H     H_    0.449935 0.676078 0.664988 0.162662
H35   H     H_    0.050014 0.176158 0.335074 0.162679
H36   H     H_    0.950004 0.176185 0.664906 0.162685
H37   H     H_    0.398549 0.706567 0.887656 0.147438
H38   H     H_    0.601429 0.706548 0.112344 0.147434
H39   H     H_    0.898584 0.206534 0.887657 0.147431
H40   H     H_    0.101422 0.206540 0.112344 0.147432
H41   H     H_    0.859196 0.880248 0.591098 0.150201
H42   H     H_    0.140806 0.880250 0.408903 0.150201
H43   H     H_    0.359194 0.380249 0.591097 0.150201
H44   H     H_    0.640805 0.380249 0.408902 0.150201
H45   H     H_    0.881369 0.852721 0.361291 0.203726
H46   H     H_    0.118632 0.852721 0.638710 0.203726
H47   H     H_    0.381372 0.352720 0.361294 0.203727
H48   H     H_    0.618632 0.352721 0.638710 0.203726
H49   H     H_    0.945593 0.841099 0.461872 0.186056
H50   H     H_    0.054408 0.841099 0.538129 0.186056
H51   H     H_    0.445595 0.341099 0.461876 0.186056
H52   H     H_    0.554408 0.341099 0.538130 0.186056
H53   H     H_    0.828379 0.796613 0.363631 0.194499
H54   H     H_    0.171622 0.796613 0.636370 0.194496
H55   H     H_    0.328382 0.296612 0.363633 0.194499
H56   H     H_    0.671622 0.296613 0.636370 0.194500
O1    O     O_R   0.821190 0.768980 0.500000 -0.589923
O2    O     O_R   0.178810 0.768980 0.500000 -0.589925
O3    O     O_R   0.321190 0.268980 0.500000 -0.589923
O4    O     O_R   0.678810 0.268980 0.500000 -0.589921
O5    O     O_R   0.486270 0.545120 0.562900 -0.588373
O6    O     O_R   0.513730 0.545120 0.437100 -0.588375
O7    O     O_R   0.986270 0.045120 0.562900 -0.588371
O8    O     O_R   0.013730 0.045120 0.437100 -0.588371
O9    O     O_R   0.923420 0.954920 0.437060 -0.582713
O10   O     O_R   0.076580 0.954920 0.562940 -0.582712
O11   O     O_R   0.423420 0.454920 0.437060 -0.582707
O12   O     O_R   0.576580 0.454920 0.562940 -0.582711
O13   O     O_R   0.986330 0.954940 0.562940 -0.589448
O14   O     O_R   0.013670 0.954940 0.437060 -0.589449
O15   O     O_R   0.486330 0.454940 0.562940 -0.589450
O16   O     O_R   0.513670 0.454940 0.437060 -0.589449
O17   O     O_R   0.768960 0.821170 0.500020 -0.580018
O18   O     O_R   0.231040 0.821170 0.499980 -0.580018
O19   O     O_R   0.268960 0.321170 0.500020 -0.580018
O20   O     O_R   0.731040 0.321170 0.499980 -0.580018
O21   O     O_R   0.721730 0.723890 0.391250 -0.607542
O22   O     O_R   0.278270 0.723890 0.608750 -0.607550
O23   O     O_R   0.221730 0.223890 0.391250 -0.607541
O24   O     O_R   0.778270 0.223890 0.608750 -0.607538
O25   O     O_R   0.669500 0.776090 0.391270 -0.580037
O26   O     O_R   0.330500 0.776090 0.608730 -0.580037
O27   O     O_R   0.169500 0.276090 0.391270 -0.580037
O28   O     O_R   0.830500 0.276090 0.608730 -0.580037
O29   O     O_R   0.731010 0.678810 0.499990 -0.589782
O30   O     O_R   0.268990 0.678810 0.500010 -0.589795
O31   O     O_R   0.231010 0.178810 0.499990 -0.589780
O32   O     O_R   0.768990 0.178810 0.500010 -0.589776
O33   O     O_R   0.678790 0.731000 0.500010 -0.590131
O34   O     O_R   0.321210 0.731000 0.499990 -0.590132
O35   O     O_R   0.178790 0.231000 0.500010 -0.590131
O36   O     O_R   0.821210 0.231000 0.499990 -0.590129
O37   O     O_R   0.830470 0.723890 0.608750 -0.596012
O38   O     O_R   0.169530 0.723890 0.391250 -0.596026
O39   O     O_R   0.330470 0.223890 0.608750 -0.596008
O40   O     O_R   0.669530 0.223890 0.391250 -0.596004
O41   O     O_R   0.778250 0.776080 0.608760 -0.581826
O42   O     O_R   0.221750 0.776080 0.391240 -0.581825
O43   O     O_R   0.278250 0.276080 0.608760 -0.581826
O44   O     O_R   0.721750 0.276080 0.391240 -0.581825
O45   O     O_R   0.423360 0.545090 0.437020 -0.594973
O46   O     O_R   0.576640 0.545090 0.562980 -0.594975
O47   O     O_R   0.923360 0.045090 0.437020 -0.594978
O48   O     O_R   0.076640 0.045090 0.562980 -0.594978
H57   H     H_    0.989685 0.746556 0.118733 0.143646
H58   H     H_    0.010315 0.746568 0.881265 0.143646
H59   H     H_    0.489685 0.246572 0.118735 0.143646
H60   H     H_    0.510315 0.246569 0.881265 0.143646
C145  C     C_3   0.051184 0.747622 0.272673 -0.370533
C146  C     C_3   0.986626 0.755717 0.224713 -0.880544
H61   H     H_    0.974005 0.787106 0.193856 0.256377
H62   H     H_    0.961369 0.728370 0.184753 0.248419
H63   H     H_    0.976283 0.757632 0.261628 0.249168
H64   H     H_    0.061400 0.715226 0.300029 0.222547
H65   H     H_    0.073754 0.773109 0.317119 0.201360
C147  C     C_3   0.948815 0.747636 0.727324 -0.370536
C148  C     C_3   0.013371 0.755736 0.775283 -0.880540
H66   H     H_    0.025988 0.787125 0.806140 0.256377
H67   H     H_    0.038632 0.728390 0.815242 0.248419
H68   H     H_    0.023714 0.757656 0.738367 0.249168
H69   H     H_    0.938602 0.715241 0.699966 0.222546
H70   H     H_    0.926241 0.773124 0.682879 0.201353
C149  C     C_3   0.551186 0.247643 0.272676 -0.370539
C150  C     C_3   0.486630 0.255747 0.224717 -0.880535
H71   H     H_    0.474016 0.287135 0.193859 0.256377
H72   H     H_    0.461366 0.228401 0.184758 0.248418
H73   H     H_    0.476287 0.257669 0.261632 0.249168
H74   H     H_    0.561395 0.215248 0.300034 0.222545
H75   H     H_    0.573762 0.273130 0.317121 0.201349
C151  C     C_3   0.448815 0.247639 0.727323 -0.370538
C152  C     C_3   0.513371 0.255742 0.775282 -0.880538
H76   H     H_    0.525986 0.287130 0.806140 0.256377
H77   H     H_    0.538633 0.228396 0.815242 0.248418
H78   H     H_    0.523713 0.257663 0.738367 0.249168
H79   H     H_    0.438604 0.215244 0.699966 0.222545
H80   H     H_    0.426239 0.273127 0.682879 0.201351
C153  C     C_3   0.730046 0.660326 0.647453 -0.421094
C154  C     C_3   0.784992 0.637625 0.674950 -0.808815
H81   H     H_    0.791792 0.642546 0.634800 0.268294
H82   H     H_    0.822461 0.651485 0.730002 0.242159
H83   H     H_    0.782518 0.602058 0.681840 0.250097
H84   H     H_    0.733639 0.696044 0.643127 0.197000
H85   H     H_    0.725770 0.655861 0.690246 0.198309
C155  C     C_3   0.270013 0.660383 0.352553 -0.421144
C156  C     C_3   0.215041 0.637702 0.325004 -0.808871
H86   H     H_    0.208219 0.642621 0.365131 0.268279
H87   H     H_    0.177594 0.651577 0.269951 0.242175
H88   H     H_    0.217496 0.602134 0.318095 0.250120
H89   H     H_    0.266443 0.696101 0.356906 0.197045
H90   H     H_    0.274307 0.655922 0.309777 0.198313
C157  C     C_3   0.230053 0.160319 0.647451 -0.421091
C158  C     C_3   0.284993 0.137613 0.674941 -0.808804
H91   H     H_    0.291792 0.142532 0.634789 0.268294
H92   H     H_    0.322466 0.151469 0.729994 0.242157
H93   H     H_    0.282515 0.102046 0.681828 0.250095
H94   H     H_    0.233651 0.196036 0.643129 0.196995
H95   H     H_    0.225778 0.155855 0.690246 0.198307
C159  C     C_3   0.769924 0.160299 0.352544 -0.421071
C160  C     C_3   0.714992 0.137587 0.325075 -0.808785
H96   H     H_    0.708203 0.142508 0.365236 0.268302
H97   H     H_    0.677512 0.151438 0.270022 0.242151
H98   H     H_    0.717476 0.102020 0.318196 0.250086
H99   H     H_    0.766320 0.196016 0.356856 0.196978
H100  H     H_    0.774190 0.155831 0.309742 0.198306
C161  C     C_3   0.600378 0.630135 0.323837 -0.352442
C162  C     C_3   0.558181 0.632922 0.238467 -0.843980
H101  H     H_    0.521053 0.610765 0.213894 0.255937
H102  H     H_    0.542352 0.666961 0.219942 0.255509
H103  H     H_    0.580159 0.623063 0.217606 0.244580
H104  H     H_    0.636849 0.652613 0.346540 0.201431
H105  H     H_    0.617838 0.596373 0.341721 0.213225
C163  C     C_3   0.399509 0.630052 0.676087 -0.352438
C164  C     C_3   0.441673 0.632799 0.761459 -0.844048
H106  H     H_    0.478793 0.610633 0.786031 0.255954
H107  H     H_    0.457518 0.666830 0.780039 0.255515
H108  H     H_    0.419661 0.622926 0.782268 0.244574
H109  H     H_    0.363046 0.652538 0.653385 0.201484
H110  H     H_    0.382032 0.596297 0.658148 0.213233
C165  C     C_3   0.100369 0.130144 0.323835 -0.352460
C166  C     C_3   0.058169 0.132934 0.238466 -0.843987
H111  H     H_    0.021041 0.110777 0.213895 0.255940
H112  H     H_    0.042341 0.166974 0.219946 0.255514
H113  H     H_    0.080144 0.123077 0.217601 0.244587
H114  H     H_    0.136839 0.152621 0.346537 0.201429
H115  H     H_    0.117826 0.096381 0.341713 0.213230
C167  C     C_3   0.899676 0.130175 0.676196 -0.352455
C168  C     C_3   0.941888 0.132982 0.761564 -0.843958
H116  H     H_    0.979021 0.110831 0.786139 0.255932
H117  H     H_    0.957707 0.167026 0.780062 0.255510
H118  H     H_    0.919927 0.123129 0.782452 0.244588
H119  H     H_    0.863201 0.152649 0.653492 0.201407
H120  H     H_    0.882226 0.096409 0.658342 0.213225
C169  C     C_3   0.312869 0.687129 0.737083 -0.366202
C170  C     C_3   0.315481 0.656587 0.790511 -0.901840
H121  H     H_    0.357213 0.638898 0.827376 0.252920
H122  H     H_    0.308945 0.675183 0.824721 0.254168
H123  H     H_    0.280531 0.631966 0.757313 0.249899
H124  H     H_    0.270051 0.703275 0.701319 0.222001
H125  H     H_    0.315696 0.665940 0.701546 0.219960
C171  C     C_3   0.687101 0.687104 0.262916 -0.366217
C172  C     C_3   0.684469 0.656547 0.209487 -0.901829
H126  H     H_    0.642727 0.638870 0.172626 0.252916
H127  H     H_    0.691011 0.675129 0.175272 0.254165
H128  H     H_    0.719406 0.631917 0.242684 0.249902
H129  H     H_    0.729925 0.703239 0.298672 0.222010
H130  H     H_    0.684270 0.665927 0.298461 0.219942
C173  C     C_3   0.812917 0.187088 0.737084 -0.366225
C174  C     C_3   0.815560 0.156523 0.790513 -0.901825
H131  H     H_    0.857306 0.138853 0.827371 0.252914
H132  H     H_    0.809014 0.175097 0.824731 0.254163
H133  H     H_    0.780628 0.131888 0.757316 0.249904
H134  H     H_    0.770089 0.203219 0.701333 0.222015
H135  H     H_    0.815748 0.165919 0.701533 0.219934
C175  C     C_3   0.187093 0.187096 0.262917 -0.366222
C176  C     C_3   0.184455 0.156535 0.209488 -0.901833
H136  H     H_    0.142711 0.138862 0.172630 0.252916
H137  H     H_    0.190998 0.175114 0.175271 0.254165
H138  H     H_    0.219390 0.131904 0.242686 0.249905
H139  H     H_    0.229918 0.203230 0.298669 0.222012
H140  H     H_    0.184262 0.165924 0.298465 0.219941
H141  H     H_    0.916328 0.936772 0.591535 0.154297
H142  H     H_    0.083674 0.936773 0.408467 0.154295
H143  H     H_    0.416326 0.436773 0.591533 0.154290
H144  H     H_    0.583673 0.436773 0.408466 0.154295

loop_
_geom_bond_atom_site_label_1
_geom_bond_atom_site_label_2
_ccdc_geom_bond_type
C162  H102  S    
C40   H52   S    
Cu11  O14   S    
C55   C149  S    
C172  H126  S    
C129  H29   S    
C47   C136  S    
C48   C135  S    
C77   C101  A    
C136  C140  A    
Cu9   O45   S    
C132  H32   S    
Cu2   O22   S    
C156  H86   S    
C133  C137  A    
C151  H79   S    
C4    O20   A    
C55   C59   A    
C167  H119  S    
C95   C99   A    
Cu6   O42   S    
C162  H103  S    
C3    O3    A    
C29   C33   A    
C100  C104  A    
C148  H68   S    
C15   C35   A    
C95   H19   S    
Cu2   Cu6   S    
C147  C148  S    
C70   C74   S    
Cu5   O25   S    
C152  H77   S    
C145  H64   S    
C3    C19   S    
C43   H55   S    
C169  H125  S    
C158  H93   S    
C107  C111  S    
C49   C69   A    
C159  H100  S    
C130  C134  A    
C100  C115  S    
C51   C71   A    
C47   O23   A    
C25   C29   A    
Cu4   O40   S    
C108  H28   S    
C27   C31   A    
C111  H35   S    
C28   C32   A    
C105  H21   S    
C99   C116  S    
Cu8   O44   S    
C62   C66   A    
C167  C168  S    
C26   H142  S    
C159  C160  S    
C98   C102  A    
C110  H34   S    
C17   C21   A    
C19   C23   A    
C75   C76   T    
C122  O42   A    
C163  H109  S    
C52   C72   A    
C112  C167  S    
C78   C82   A    
Cu3   O31   S    
C16   C20   A    
C80   C112  S    
C119  O11   A    
C142  H38   S    
Cu11  O8    S    
C121  O41   A    
Cu2   O2    S    
C129  C133  A    
C2    O2    A    
C172  H128  S    
C140  C175  S    
C155  C156  S    
C156  H88   S    
C59   C124  S    
C147  H70   S    
C107  H23   S    
Cu1   O21   S    
C84   C88   A    
C21   H41   S    
C166  H111  S    
C57   C61   A    
C83   C91   S    
C59   C63   A    
Cu6   O18   S    
C60   C64   A    
C67   H15   S    
C50   C70   A    
C115  O47   A    
C165  H114  S    
C53   C145  S    
C93   H17   S    
C89   O33   A    
C51   C55   A    
C170  H121  S    
C45   O25   A    
C165  C166  S    
C4    C20   S    
C61   C65   A    
C24   H44   S    
C161  C162  S    
C38   H46   S    
Cu11  Cu12  S    
C126  C130  A    
C56   C151  S    
C44   H56   S    
C161  H104  S    
C131  H31   S    
C155  H89   S    
C169  C170  S    
C4    O4    A    
C118  O10   A    
C173  H134  S    
C7    C143  A    
C175  C176  S    
C92   O36   A    
C66   C70   A    
C118  O14   A    
C109  C161  S    
C171  H129  S    
C64   C68   A    
Cu1   O37   S    
Cu3   O3    S    
C49   C53   A    
Cu5   O41   S    
C174  H131  S    
Cu12  O10   S    
C157  H94   S    
C153  H84   S    
C173  H135  S    
C139  C143  A    
C8    C128  A    
Cu7   O19   S    
C40   H48   S    
C87   C95   A    
C54   C147  S    
C16   C44   S    
C116  O8    A    
C24   C28   A    
C9    C10   T    
Cu10  O46   S    
C8    C12   S    
C63   H11   S    
C120  O12   A    
C164  H107  S    
C79   C103  A    
C39   H47   S    
C114  O6    A    
C166  H113  S    
Cu4   O4    S    
C158  H92   S    
C127  C131  A    
C30   C34   A    
C150  H71   S    
C8    C144  A    
C99   C103  A    
C3    O19   A    
C30   C118  S    
C51   H59   S    
C60   C123  S    
Cu3   Cu7   S    
C5    C9    S    
C153  C154  S    
C125  C129  A    
C122  O38   A    
Cu11  O47   S    
C132  C136  A    
C176  H138  S    
C85   C153  S    
Cu2   O30   S    
C141  H37   S    
Cu10  O5    S    
C77   C109  S    
C146  H62   S    
C47   O27   A    
C62   H10   S    
C26   C30   A    
C90   O30   A    
Cu11  O9    S    
C93   C97   A    
C165  H115  S    
C159  H99   S    
Cu6   O34   S    
C21   C25   A    
C160  H98   S    
C27   H143  S    
C18   C22   A    
C37   H49   S    
Cu4   Cu8   S    
C163  C164  S    
C146  H63   S    
C53   C57   A    
C14   C34   A    
C103  C107  S    
C32   C36   A    
C144  H40   S    
C1    C17   S    
C174  H133  S    
C13   C17   A    
Cu5   O17   S    
C168  H117  S    
C15   C43   S    
C124  O40   A    
C167  H120  S    
C16   C36   A    
C138  C171  S    
C86   C155  S    
C96   C100  A    
C148  H67   S    
C61   H9    S    
C37   C41   S    
C2    O18   A    
C40   C44   S    
C5    C125  A    
Cu4   O32   S    
C84   C92   S    
C105  H25   S    
C97   C114  S    
C169  H124  S    
C106  H22   S    
C81   C85   A    
Cu3   O23   S    
Cu8   O20   S    
Cu12  O13   S    
C58   C62   A    
C83   C87   A    
C88   C96   A    
C41   H5    S    
C78   C102  A    
C73   C74   T    
C150  H73   S    
C80   C84   A    
C13   C41   S    
C15   C19   A    
Cu3   O39   S    
C50   C54   A    
C80   C104  A    
C42   H6    S    
C149  H75   S    
C45   O21   A    
Cu7   O35   S    
C154  H81   S    
C125  H1    S    
C94   C98   A    
C176  H136  S    
C105  C109  S    
C57   C122  S    
C173  C174  S    
C69   C73   S    
C157  H95   S    
C6    C142  A    
C120  O16   A    
C123  O43   A    
C175  H139  S    
C42   H54   S    
C72   C76   S    
C81   C89   S    
C162  H101  S    
C160  H96   S    
C172  H127  S    
C113  O45   A    
C48   O28   A    
C156  H87   S    
C52   H60   S    
C91   O35   A    
C157  C158  S    
C111  C165  S    
C6    C126  A    
C154  H83   S    
C166  H112  S    
C138  C142  A    
C49   H57   S    
C98   C113  S    
C170  H123  S    
C82   C86   A    
C25   H141  S    
C33   C37   S    
C108  C112  S    
C65   H13   S    
C35   C39   S    
C112  H36   S    
C152  H76   S    
C77   C81   A    
C143  H39   S    
C88   C159  S    
C152  H78   S    
C149  H74   S    
C170  H122  S    
C31   C119  S    
Cu1   O1    S    
C1    O1    A    
C31   C35   A    
C46   O22   A    
C104  C108  S    
C50   H58   S    
C155  H90   S    
C137  C141  A    
C58   C121  S    
Cu5   O33   S    
C96   H20   S    
C22   H42   S    
C140  C144  A    
C6    C10   S    
Cu9   O11   S    
C151  H80   S    
Cu7   O27   S    
C135  C139  A    
C171  H130  S    
C82   C90   S    
C145  H65   S    
C149  C150  S    
C64   H12   S    
C161  H105  S    
C46   C133  S    
C79   C83   A    
C68   H16   S    
C65   C69   A    
C90   O34   A    
C174  H132  S    
Cu12  O7    S    
C67   C71   A    
C139  C173  S    
Cu8   O36   S    
C56   C60   A    
C22   C26   A    
C37   H45   S    
C44   H8    S    
Cu1   Cu5   S    
C43   H7    S    
C71   C75   S    
C168  H116  S    
C147  H69   S    
C2    C18   S    
C164  H106  S    
C14   C18   A    
Cu9   O16   S    
C117  O9    A    
C124  O44   A    
C119  O15   A    
C7    C11   S    
C117  O13   A    
C45   C134  S    
Cu2   O38   S    
C150  H72   S    
C38   C42   S    
C131  C135  A    
C151  C152  S    
C87   C157  S    
C23   H43   S    
C108  H24   S    
C106  H26   S    
C86   C94   A    
C20   C24   A    
C109  H33   S    
Cu6   O26   S    
C39   H51   S    
C28   H144  S    
C23   C27   A    
C145  C146  S    
C116  O48   A    
C68   C72   A    
C14   C42   S    
C41   H53   S    
C115  O7    A    
C85   C93   A    
C32   C120  S    
C128  C132  A    
C113  O5    A    
C126  H2    S    
C101  C105  S    
C63   C67   A    
C160  H97   S    
C36   C40   S    
C39   C43   S    
C176  H137  S    
C29   C117  S    
C107  H27   S    
Cu4   O24   S    
C153  H85   S    
C123  O39   A    
C137  C169  S    
C121  O37   A    
Cu8   O28   S    
C148  H66   S    
Cu1   O29   S    
C78   C110  S    
C114  O46   A    
Cu9   O6    S    
C48   O24   A    
C94   H18   S    
C91   O31   A    
C164  H108  S    
C89   O29   A    
C110  C163  S    
C127  H3    S    
C158  H91   S    
C128  H4    S    
Cu7   O43   S    
C54   C58   A    
C38   H50   S    
C34   C38   S    
C66   H14   S    
C5    C141  A    
C134  C138  A    
C11   C12   T    
C130  H30   S    
C79   C111  S    
Cu10  O15   S    
C7    C127  A    
C154  H82   S    
C92   O32   A    
C163  H110  S    
C171  C172  S    
C102  C106  S    
C46   O26   A    
Cu10  O12   S    
C97   C101  A    
C146  H61   S    
C1    O17   A    
C106  C110  S    
C13   C33   A    
C168  H118  S    
Cu9   Cu10  S    
C175  H140  S    
C52   C56   A    
Cu12  O48   S    
