data_mof_unit_48292.cif
_audit_creation_date              2012-12-10T16:59:21-0500
_audit_creation_method            fapswitch 2.2
_symmetry_space_group_name_H-M    P1
_symmetry_Int_Tables_number       1
_space_group_crystal_system       triclinic
_cell_length_a                    7.728716
_cell_length_b                    8.556503
_cell_length_c                    27.70432
_cell_angle_alpha                 90.890543
_cell_angle_beta                  86.147121
_cell_angle_gamma                 93.698588
_cell_volume                      1824.04470009

loop_
_atom_site_label
_atom_site_type_symbol
_atom_type_description
_atom_site_fract_x
_atom_site_fract_y
_atom_site_fract_z
_atom_type_partial_charge
C1    C     C_R   0.545950 0.794894 0.498734 0.964768
C2    C     C_R   0.498776 0.645080 0.128047 -0.028814
C3    C     C_R   0.511296 0.500471 0.646825 -0.164346
C4    C     C_R   0.488704 0.499528 0.353175 -0.164344
C5    C     C_R   0.530549 0.643746 0.025757 0.047352
C6    C     C_R   0.469454 0.356251 0.974243 0.047352
C7    C     C_R   0.449851 0.358916 0.025498 0.047322
C8    C     C_R   0.550153 0.641081 0.974503 0.047323
C9    C     C_R   0.481917 0.502400 0.050908 0.073251
C10   C     C_R   0.518086 0.497598 0.949092 0.073251
C11   C     C_R   0.557029 0.783650 0.053032 -0.224998
C12   C     C_R   0.454050 0.205106 0.501266 0.964767
C13   C     C_R   0.442975 0.216347 0.946968 -0.224998
C14   C     C_R   0.541938 0.783796 0.103120 -0.140629
C15   C     C_R   0.458065 0.216201 0.896880 -0.140629
C16   C     C_R   0.502845 0.500079 0.594067 0.900338
C17   C     C_R   0.497155 0.499920 0.405933 0.900338
C18   C     C_R   0.602073 0.777331 0.947480 -0.226293
C19   C     C_R   0.397930 0.222666 0.052520 -0.226292
C20   C     C_2   0.570276 0.958334 0.497976 -0.373096
C21   C     C_2   0.429724 0.041666 0.502024 -0.373096
C22   C     C_R   0.587129 0.631449 0.821641 0.510898
C23   C     C_R   0.533812 0.495619 0.897810 -0.049778
C24   C     C_R   0.412873 0.368549 0.178359 0.510899
C25   C     C_R   0.509622 0.356994 0.821402 0.521537
C26   C     C_R   0.490380 0.643004 0.178598 0.521537
C27   C     C_R   0.686055 0.484580 0.715924 -0.091396
C28   C     C_R   0.313947 0.515420 0.284077 -0.091395
C29   C     C_R   0.673042 0.485231 0.666227 -0.289139
C30   C     C_R   0.326959 0.514770 0.333773 -0.289139
C31   C     C_R   0.361531 0.517253 0.678280 0.510220
C32   C     C_R   0.638469 0.482743 0.321720 0.510217
C33   C     C_R   0.375980 0.512192 0.728174 -0.206509
C34   C     C_R   0.466192 0.504378 0.102190 -0.049778
C35   C     C_R   0.624020 0.487803 0.271826 -0.206508
C36   C     C_R   0.537464 0.497216 0.746705 0.254700
C37   C     C_R   0.462537 0.502782 0.253296 0.254699
C38   C     C_3   0.150223 0.682616 0.666433 -0.280091
C39   C     C_3   0.849773 0.317381 0.333569 -0.280092
C40   C     C_R   0.580336 0.634656 0.872202 -0.024390
C41   C     C_R   0.419667 0.365342 0.127798 -0.024390
C42   C     C_R   0.615997 0.773915 0.897387 -0.142821
C43   C     C_R   0.384006 0.226082 0.102614 -0.142820
C44   C     C_R   0.501227 0.354918 0.871953 -0.028814
H1    H     H_    0.014289 0.383585 0.463327 0.191506
H2    H     H_    0.811028 0.472964 0.730549 0.163980
H3    H     H_    0.565892 0.893639 0.122272 0.193496
H4    H     H_    0.434112 0.106359 0.877728 0.193496
H5    H     H_    0.590072 0.896303 0.037102 0.139992
H6    H     H_    0.409932 0.103694 0.962898 0.139992
H7    H     H_    0.633719 0.889716 0.963619 0.141667
H8    H     H_    0.366285 0.110281 0.036381 0.141667
H9    H     H_    0.702958 0.009522 0.494089 0.180619
H10   H     H_    0.297042 0.990478 0.505911 0.180619
H11   H     H_    0.250506 0.768059 0.649594 0.165162
H12   H     H_    0.985711 0.616415 0.536673 0.191507
H13   H     H_    0.122526 0.712193 0.705297 0.174410
H14   H     H_    0.028938 0.693960 0.647890 0.185379
H15   H     H_    0.877473 0.287805 0.294705 0.174416
H16   H     H_    0.749486 0.231942 0.350408 0.165165
H17   H     H_    0.971058 0.306037 0.352113 0.185380
H18   H     H_    0.261490 0.519801 0.752686 0.147439
H19   H     H_    0.738510 0.480192 0.247314 0.147439
H20   H     H_    0.654242 0.881815 0.878437 0.192499
H21   H     H_    0.345760 0.118183 0.121563 0.192499
H22   H     H_    0.210033 0.526863 0.356975 0.209085
H23   H     H_    0.789968 0.473140 0.643024 0.209085
H24   H     H_    0.188974 0.527039 0.269451 0.163980
N1    N     N_R   0.549060 0.494457 0.797651 -0.348674
N2    N     N_R   0.450941 0.505541 0.202349 -0.348674
N3    N     N_2   0.950320 0.457960 0.486880 -0.166364
N4    N     N_2   0.049680 0.542040 0.513120 -0.166364
O1    O     O_R   0.389250 0.738570 0.503220 -0.617462
O2    O     O_2   0.371739 0.235750 0.203432 -0.540710
O3    O     O_2   0.523690 0.776417 0.203920 -0.531977
O4    O     O_2   0.476311 0.223581 0.796080 -0.531977
O5    O     O_3   0.199623 0.527272 0.660487 -0.601267
O6    O     O_3   0.800376 0.472722 0.339513 -0.601273
O7    O     O_R   0.610750 0.261430 0.496780 -0.617462
O8    O     O_R   0.678390 0.711630 0.494810 -0.630600
O9    O     O_R   0.321610 0.288370 0.505190 -0.630599
O10   O     O_R   0.355440 0.513440 0.575450 -0.562239
O11   O     O_R   0.644560 0.486560 0.424550 -0.562239
O12   O     O_R   0.644590 0.486500 0.567040 -0.640279
O13   O     O_R   0.355410 0.513500 0.432960 -0.640280
O14   O     O_2   0.628263 0.764248 0.796568 -0.540709
Zn1   Zn    Zn3+2 0.306940 0.517990 0.505620 0.966246
Zn2   Zn    Zn3+2 0.693060 0.482010 0.494380 0.966246

loop_
_geom_bond_atom_site_label_1
_geom_bond_atom_site_label_2
_ccdc_geom_bond_type
H1    N3    S    
C24   N2    A    
C17   O13   A    
C28   H24   S    
C15   C44   A    
C5    C11   A    
C18   C42   A    
C21   H10   S    
C11   C14   A    
C27   C29   A    
C23   C40   A    
C12   O7    A    
C16   O12   A    
C33   C36   A    
C3    C29   A    
O1    Zn1   S    
C10   C23   A    
C29   H23   S    
C14   H3    S    
C19   H8    S    
C38   H11   S    
C33   H18   S    
H12   N4    S    
C31   C33   A    
C22   N1    A    
C2    C34   A    
C40   C42   A    
O11   Zn2   S    
C22   C40   A    
C38   H14   S    
C37   N2    S    
C24   C41   A    
C41   C43   A    
C34   C41   A    
C15   H4    S    
C25   C44   A    
O7    Zn2   S    
C30   H22   S    
C19   C43   A    
C18   H7    S    
C31   O5    S    
O13   Zn1   S    
C39   H17   S    
C32   C35   A    
C12   C21   S    
C8    C18   A    
C23   C44   A    
C13   H6    S    
C17   O11   A    
C39   O6    S    
C5    C9    A    
C11   H5    S    
C38   H13   S    
C43   H21   S    
C39   H15   S    
C16   O10   A    
C26   O3    S    
C2    C26   A    
C4    C32   A    
C3    C31   A    
O9    Zn1   S    
C4    C17   S    
C27   H2    S    
C7    C19   A    
C13   C15   A    
C9    C34   A    
C26   N2    A    
C25   N1    A    
C42   H20   S    
N4    Zn1   S    
C36   N1    S    
C7    C9    A    
C1    C20   S    
C35   C37   A    
O12   Zn2   S    
C20   H9    S    
C6    C10   A    
C5    C8    A    
C6    C7    A    
C38   O5    S    
C27   C36   A    
C25   O4    S    
C1    O1    A    
C28   C30   A    
N3    N4    D    
O8    Zn2   S    
C6    C13   A    
C24   O2    S    
C28   C37   A    
C39   H16   S    
C12   O9    A    
C22   O14   S    
C2    C14   A    
C32   O6    S    
N3    Zn2   S    
C20   C21   D    
C8    C10   A    
C1    O8    A    
C35   H19   S    
C4    C30   A    
C3    C16   S    
O10   Zn1   S    
