data_mof_unit_11670.cif
_audit_creation_date              2012-12-10T17:30:19-0500
_audit_creation_method            fapswitch 2.2
_symmetry_space_group_name_H-M    P1
_symmetry_Int_Tables_number       1
_space_group_crystal_system       triclinic
_cell_length_a                    12.098913
_cell_length_b                    12.827931
_cell_length_c                    14.907545
_cell_angle_alpha                 93.04712
_cell_angle_beta                  88.018299
_cell_angle_gamma                 93.93613
_cell_volume                      2303.87854034

loop_
_atom_site_label
_atom_site_type_symbol
_atom_type_description
_atom_site_fract_x
_atom_site_fract_y
_atom_site_fract_z
_atom_type_partial_charge
C1    C     C_R   0.521384 0.699601 0.492605 0.905606
C2    C     C_R   0.362295 0.135950 0.503898 -0.281391
C3    C     C_R   0.436303 0.862200 0.460380 0.446264
C4    C     C_R   0.554138 0.131428 0.450271 0.443562
C5    C     C_R   0.443281 0.970737 0.470677 -0.066820
C6    C     C_R   0.549541 0.023970 0.459109 -0.057712
C7    C     C_R   0.947164 0.396895 0.417212 -0.333765
C8    C     C_R   0.052805 0.603896 0.582493 -0.329292
C9    C     C_R   0.833523 0.407966 0.424851 -0.018708
C10   C     C_R   0.166667 0.592930 0.574673 0.008715
C11   C     C_R   0.861680 0.545943 0.536551 0.295464
C12   C     C_R   0.477816 0.299612 0.495830 0.908039
C13   C     C_R   0.137927 0.454203 0.463738 0.290731
C14   C     C_R   0.978313 0.538194 0.530201 0.057665
C15   C     C_R   0.021443 0.462301 0.469893 0.053172
C16   C     C_R   0.501688 0.501106 0.672472 0.981842
C17   C     C_R   0.498571 0.499514 0.327263 0.935117
C18   C     C_R   0.437629 0.416055 0.183587 0.091124
C19   C     C_R   0.530585 0.600480 0.815986 0.074253
C20   C     C_R   0.494781 0.499215 0.231466 -0.171836
C21   C     C_R   0.504482 0.505197 0.767998 -0.179673
C22   C     C_R   0.545660 0.585734 0.189314 0.345081
C23   C     C_R   0.553521 0.692942 0.962540 -0.211538
C24   C     C_R   0.468995 0.413853 0.810113 0.380255
C25   C     C_R   0.524596 0.598336 0.098451 -0.028996
C26   C     C_R   0.443057 0.419751 0.902432 -0.018182
C27   C     C_R   0.477800 0.510700 0.047527 -0.049943
C28   C     C_R   0.480673 0.511065 0.953383 -0.052900
C29   C     C_R   0.431212 0.421207 0.090252 0.084128
C30   C     C_R   0.523526 0.601760 0.910319 0.081668
C31   C     C_R   0.550802 0.693623 0.055898 0.189436
C32   C     C_R   0.380909 0.338217 0.945521 0.180735
C33   C     C_3   0.390996 0.318902 0.229826 -0.952421
C34   C     C_R   0.377280 0.339429 0.038709 -0.214345
C35   C     C_3   0.565865 0.699483 0.767588 -0.921329
C36   C     C_3   0.724658 0.659011 0.208140 0.098540
C37   C     C_3   0.792963 0.596061 0.267624 -0.304290
C38   C     C_3   0.916609 0.610760 0.243846 -1.005321
C39   C     C_3   0.543955 0.255792 0.776021 0.042178
C40   C     C_3   0.648460 0.282993 0.718668 -0.328481
C41   C     C_3   0.736267 0.204920 0.728706 -0.967244
C42   C     C_3   0.568283 0.799250 0.105340 -0.895298
C43   C     C_3   0.310721 0.253443 0.895647 -0.832976
C44   C     C_3   0.615407 0.201302 0.317887 0.065577
C45   C     C_R   0.463938 0.187469 0.482531 -0.230214
C46   C     C_3   0.711431 0.179380 0.251735 -0.356769
C47   C     C_3   0.690846 0.218794 0.159282 -0.958002
C48   C     C_3   0.334124 0.762883 0.354953 0.146962
C49   C     C_3   0.300159 0.840126 0.287630 -0.417300
C50   C     C_3   0.272543 0.784301 0.197343 -0.941759
C51   C     C_3   0.763157 0.021337 0.459590 -0.803386
C52   C     C_3   0.237119 0.976900 0.522620 -0.795642
C53   C     C_3   0.182793 0.373748 0.397787 -0.893651
C54   C     C_3   0.816381 0.626339 0.602864 -0.888090
C55   C     C_R   0.532172 0.809153 0.473823 -0.208183
C56   C     C_R   0.647431 0.968524 0.459278 0.210714
C57   C     C_R   0.348757 0.027668 0.494677 0.204980
C58   C     C_R   0.636658 0.861678 0.471167 -0.285235
H1    H     H_    0.975122 0.337150 0.369536 0.166519
H2    H     H_    0.299506 0.311235 0.224807 0.251072
H3    H     H_    0.426562 0.248473 0.197131 0.233034
H4    H     H_    0.564624 0.689600 0.693438 0.230130
H5    H     H_    0.508643 0.761369 0.787357 0.239032
H6    H     H_    0.651769 0.726836 0.785392 0.240946
H7    H     H_    0.758765 0.741687 0.212469 0.163766
H8    H     H_    0.735899 0.630354 0.136664 0.128253
H9    H     H_    0.779031 0.621927 0.339226 0.257739
H10   H     H_    0.766443 0.511655 0.258307 0.221279
H11   H     H_    0.933067 0.584444 0.172741 0.267635
H12   H     H_    0.024808 0.664140 0.629656 0.166205
H13   H     H_    0.963700 0.563733 0.287750 0.279467
H14   H     H_    0.946219 0.694304 0.254149 0.266466
H15   H     H_    0.514246 0.173802 0.757665 0.172187
H16   H     H_    0.564613 0.257860 0.848458 0.137595
H17   H     H_    0.626675 0.281634 0.647085 0.261964
H18   H     H_    0.683737 0.362560 0.739230 0.223798
H19   H     H_    0.760375 0.204726 0.799920 0.263722
H20   H     H_    0.810899 0.227313 0.686757 0.273108
H21   H     H_    0.704257 0.124963 0.705953 0.264639
H22   H     H_    0.536741 0.799656 0.175911 0.279658
H23   H     H_    0.578887 0.765507 0.931569 0.164476
H24   H     H_    0.657393 0.826149 0.102385 0.228226
H25   H     H_    0.521230 0.857553 0.072803 0.228013
H26   H     H_    0.271627 0.285287 0.837568 0.270916
H27   H     H_    0.361308 0.187628 0.873067 0.236047
H28   H     H_    0.241771 0.221379 0.939420 0.210480
H29   H     H_    0.599160 0.285264 0.316981 0.172686
H30   H     H_    0.540444 0.153680 0.293494 0.119366
H31   H     H_    0.789966 0.218214 0.277033 0.217874
H32   H     H_    0.720807 0.093710 0.245145 0.217160
H33   H     H_    0.613984 0.179146 0.131517 0.264010
H34   H     H_    0.332110 0.274689 0.070136 0.161635
H35   H     H_    0.761599 0.201666 0.112659 0.262620
H36   H     H_    0.682794 0.304724 0.163938 0.266344
H37   H     H_    0.272026 0.694882 0.354854 0.185722
H38   H     H_    0.414662 0.731275 0.332545 0.140505
H39   H     H_    0.225948 0.879420 0.314039 0.233415
H40   H     H_    0.368996 0.900758 0.277653 0.213852
H41   H     H_    0.342126 0.738219 0.171335 0.277283
H42   H     H_    0.256667 0.842827 0.147886 0.266079
H43   H     H_    0.197107 0.730618 0.204806 0.266833
H44   H     H_    0.826236 0.966778 0.475767 0.202514
H45   H     H_    0.293189 0.180471 0.527792 0.195763
H46   H     H_    0.786535 0.050221 0.392364 0.252661
H47   H     H_    0.767862 0.086964 0.511311 0.258144
H48   H     H_    0.181121 0.034731 0.553672 0.204444
H49   H     H_    0.194597 0.939316 0.463499 0.251328
H50   H     H_    0.247593 0.918431 0.573471 0.252664
H51   H     H_    0.272191 0.374842 0.395753 0.300403
H52   H     H_    0.150982 0.294057 0.415806 0.216999
H53   H     H_    0.157975 0.388813 0.328885 0.216565
H54   H     H_    0.726716 0.625769 0.606021 0.297999
H55   H     H_    0.841762 0.611644 0.671704 0.218877
H56   H     H_    0.709982 0.819251 0.478670 0.187022
H57   H     H_    0.848008 0.706027 0.584700 0.210381
H58   H     H_    0.222748 0.643674 0.614959 0.150875
H59   H     H_    0.777678 0.358786 0.383726 0.170253
H60   H     H_    0.410838 0.318287 0.301522 0.219937
N1    N     N_R   0.207800 0.519350 0.516680 -0.108498
N2    N     N_R   0.792200 0.480650 0.483320 -0.113341
O1    O     O_R   0.421700 0.658830 0.504450 -0.589453
O2    O     O_3   0.457348 0.320505 0.758537 -0.644239
O3    O     O_3   0.644530 0.180263 0.406156 -0.638320
O4    O     O_3   0.334726 0.808905 0.443599 -0.641304
O5    O     O_R   0.578300 0.341170 0.495550 -0.592155
O6    O     O_R   0.609310 0.646410 0.493750 -0.642626
O7    O     O_R   0.390690 0.353590 0.506250 -0.630503
O8    O     O_R   0.406180 0.506230 0.637500 -0.604977
O9    O     O_R   0.593820 0.493770 0.362500 -0.633278
O10   O     O_R   0.593800 0.493820 0.626800 -0.649540
O11   O     O_R   0.406200 0.506180 0.373200 -0.648470
O12   O     O_3   0.612427 0.657696 0.239794 -0.656177
Zn1   Zn    Zn3+2 0.374730 0.508290 0.507150 0.947405
Zn2   Zn    Zn3+2 0.625270 0.491710 0.492850 0.925770

loop_
_geom_bond_atom_site_label_1
_geom_bond_atom_site_label_2
_ccdc_geom_bond_type
C53   H52   S    
C25   C31   A    
C37   H10   S    
C42   H22   S    
C16   C21   S    
C48   H37   S    
C17   O11   A    
C9    H59   S    
C42   H24   S    
C2    C57   A    
C46   H31   S    
C51   H44   S    
C26   C32   A    
C50   H41   S    
N1    Zn1   S    
C39   O2    S    
C36   C37   S    
C19   C21   A    
C24   C26   A    
C36   O12   S    
C41   H19   S    
C5    C6    A    
C11   C14   A    
C36   H8    S    
C27   C29   A    
C54   H55   S    
C17   C20   S    
C51   C56   S    
C39   H16   S    
C10   N1    A    
C49   H40   S    
C38   H13   S    
C3    C55   A    
C32   C43   S    
C52   H49   S    
C22   C25   A    
C35   H6    S    
C44   H29   S    
C16   O10   A    
C18   C20   A    
C53   H53   S    
C7    C15   A    
C38   H11   S    
C52   H48   S    
C33   H60   S    
C43   H26   S    
O10   Zn2   S    
C47   H33   S    
C11   N2    A    
C7    H1    S    
C13   N1    A    
C44   C46   S    
C13   C53   S    
C4    C45   A    
C2    C45   A    
C38   H14   S    
C17   O9    A    
C43   H27   S    
C23   C30   A    
C1    O6    A    
C4    C6    A    
C41   H20   S    
C12   O7    A    
C36   H7    S    
C12   O5    A    
C3    C5    A    
C51   H46   S    
C29   C34   A    
C40   H18   S    
C4    O3    S    
C32   C34   A    
C48   O4    S    
C37   C38   S    
C51   H47   S    
C54   H57   S    
C24   O2    S    
C47   H35   S    
C54   H54   S    
C18   C29   A    
C16   O8    A    
O6    Zn2   S    
C11   C54   S    
C8    C10   A    
C40   C41   S    
C20   C22   A    
C33   H2    S    
C13   C15   A    
C21   C24   A    
C39   C40   S    
C10   H58   S    
C3    O4    S    
C53   H51   S    
C7    C9    A    
C46   C47   S    
C48   C49   S    
C8    C14   A    
C48   H38   S    
C22   O12   S    
C43   H28   S    
C26   C28   A    
C23   H23   S    
C42   H25   S    
O7    Zn1   S    
C6    C56   A    
C12   C45   S    
O11   Zn1   S    
C41   H21   S    
C46   H32   S    
C25   C27   A    
C44   O3    S    
C8    H12   S    
C40   H17   S    
C5    C57   A    
C28   C30   A    
C1    C55   S    
O5    Zn2   S    
C19   C35   S    
O8    Zn1   S    
C31   C42   S    
C2    H45   S    
C37   H9    S    
C47   H36   S    
C56   C58   A    
C35   H4    S    
N2    Zn2   S    
C39   H15   S    
C18   C33   S    
C1    O1    A    
C50   H42   S    
C52   C57   S    
C49   H39   S    
O9    Zn2   S    
C52   H50   S    
C50   H43   S    
C33   H3    S    
C49   C50   S    
C55   C58   A    
C27   C28   A    
C58   H56   S    
C9    N2    A    
C14   C15   A    
C35   H5    S    
O1    Zn1   S    
C44   H30   S    
C19   C30   A    
C23   C31   A    
C34   H34   S    
