data_mof_unit_34001.cif
_audit_creation_date              2012-12-10T17:20:26-0500
_audit_creation_method            fapswitch 2.2
_symmetry_space_group_name_H-M    P1
_symmetry_Int_Tables_number       1
_space_group_crystal_system       triclinic
_cell_length_a                    11.6821
_cell_length_b                    10.809034
_cell_length_c                    9.675091
_cell_angle_alpha                 89.106851
_cell_angle_beta                  89.508996
_cell_angle_gamma                 93.708715
_cell_volume                      1218.93241408

loop_
_atom_site_label
_atom_site_type_symbol
_atom_type_description
_atom_site_fract_x
_atom_site_fract_y
_atom_site_fract_z
_atom_type_partial_charge
C1    C     C_R   0.495610 0.263189 0.501030 0.790927
C2    C     C_R   0.186373 0.033288 0.584962 0.226397
C3    C     C_R   0.190885 0.904355 0.583154 -0.154202
C4    C     C_R   0.294115 0.850903 0.556520 -0.193976
C5    C     C_R   0.396269 0.925125 0.529913 0.064199
C6    C     C_R   0.392106 0.055479 0.531660 0.050220
C7    C     C_R   0.493131 0.129801 0.502980 -0.106159
C8    C     C_R   0.595154 0.077790 0.470888 -0.216485
C9    C     C_R   0.601595 0.950142 0.467170 0.139440
C10   C     C_R   0.501613 0.872457 0.498185 -0.097167
C11   C     C_R   0.657153 0.659785 0.138286 -0.133562
C12   C     C_R   0.284285 0.498416 0.500505 0.793323
C13   C     C_R   0.735740 0.738176 0.065373 -0.208444
C14   C     C_R   0.735197 0.739577 0.922918 -0.195607
C15   C     C_R   0.656520 0.662130 0.853341 -0.115153
C16   C     C_R   0.577252 0.578979 0.923437 0.172268
C17   C     C_R   0.577268 0.578547 0.071980 0.194786
C18   C     C_R   0.425637 0.425783 0.077870 -0.056772
C19   C     C_R   0.423483 0.425712 0.930784 0.235078
C20   C     C_R   0.505823 0.737776 0.499021 0.780433
C21   C     C_R   0.715620 0.499673 0.499556 0.796198
C22   C     C_1   0.162461 0.498274 0.501377 -0.195285
C23   C     C_1   0.059880 0.498529 0.500993 -0.014123
C24   C     C_1   0.940009 0.499025 0.499771 -0.003036
C25   C     C_1   0.837429 0.499380 0.499002 -0.175886
C26   C     C_R   0.286826 0.108298 0.558772 -0.224280
Cu1   Cu    Cu3+1 0.499990 0.499990 0.640660 0.926495
Cu2   Cu    Cu3+1 0.500010 0.500010 0.359340 0.934075
H1    H     H_    0.670902 0.138504 0.448170 0.138163
H2    H     H_    0.795647 0.801513 0.865907 0.148109
H3    H     H_    0.660076 0.671216 0.744925 0.194106
H4    H     H_    0.281806 0.207925 0.557901 0.106037
H5    H     H_    0.113892 0.844734 0.601185 0.139640
H6    H     H_    0.660853 0.665479 0.246583 0.192624
H7    H     H_    0.796775 0.798861 0.119751 0.147028
N1    N     N_R   0.501070 0.501210 0.147910 -0.216332
N2    N     N_R   0.501110 0.501290 0.852040 -0.215605
O1    O     O_R   0.499990 0.319640 0.618810 -0.593180
O2    O     O_R   0.500000 0.319660 0.381240 -0.571925
O3    O     O_R   0.337190 0.500000 0.618790 -0.580636
O4    O     O_R   0.337200 0.500030 0.381210 -0.566342
O5    O     O_R   0.500000 0.680340 0.618760 -0.589411
O6    O     O_R   0.500010 0.680360 0.381190 -0.590699
O7    O     O_R   0.662800 0.499970 0.618790 -0.589604
O8    O     O_R   0.662810 0.500000 0.381210 -0.587832
C27   C     C_3   0.330755 0.340213 0.868724 -0.368983
C28   C     C_3   0.212135 0.389543 0.889275 -0.842335
H8    H     H_    0.210743 0.485953 0.848239 0.275209
H9    H     H_    0.147169 0.330344 0.833407 0.246137
H10   H     H_    0.188204 0.388247 0.000630 0.241154
H11   H     H_    0.343478 0.324577 0.758888 0.256863
H12   H     H_    0.331753 0.246950 0.918708 0.171694
C29   C     C_3   0.073887 0.090595 0.610977 -0.423255
C30   C     C_3   0.029820 0.063299 0.758034 -0.836922
H13   H     H_    0.950337 0.112070 0.775811 0.246199
H14   H     H_    0.095104 0.096180 0.834230 0.258638
H15   H     H_    0.009423 0.962303 0.774199 0.245611
H16   H     H_    0.083385 0.192892 0.595158 0.203688
H17   H     H_    0.009251 0.053682 0.535989 0.203765
H18   H     H_    0.292405 0.751014 0.555291 0.148057
C31   C     C_3   0.715940 0.903606 0.424189 -0.406824
C32   C     C_3   0.781190 0.850556 0.544360 -0.863777
H19   H     H_    0.774690 0.908633 0.637445 0.261121
H20   H     H_    0.747445 0.754733 0.566426 0.231333
H21   H     H_    0.873147 0.846962 0.515573 0.240948
H22   H     H_    0.703099 0.834782 0.343234 0.187020
H23   H     H_    0.772065 0.979860 0.376170 0.199907
H24   H     H_    0.365351 0.365102 0.136775 0.146908

loop_
_geom_bond_atom_site_label_1
_geom_bond_atom_site_label_2
_ccdc_geom_bond_type
C12   O3    A    
C30   H13   S    
C20   O5    A    
C29   H16   S    
C26   H4    S    
C12   O4    A    
C17   N1    A    
C27   H12   S    
C21   O7    A    
C9    C10   A    
C16   N2    A    
Cu2   O6    S    
C32   H20   S    
C28   H8    S    
C32   H21   S    
Cu1   O3    S    
C23   C24   S    
C4    H18   S    
C32   H19   S    
C31   C32   S    
C2    C3    A    
C29   H17   S    
C19   C27   S    
C5    C10   A    
C2    C26   A    
C6    C26   A    
C13   C14   A    
C15   H3    S    
C11   C13   A    
Cu1   O5    S    
C6    C7    A    
C1    O1    A    
C14   H2    S    
C9    C31   S    
C8    H1    S    
C31   H22   S    
Cu1   N2    S    
C13   H7    S    
C28   H10   S    
C21   O8    A    
C27   H11   S    
C5    C6    A    
C30   H14   S    
Cu2   O8    S    
C1    O2    A    
C15   C16   A    
C3    H5    S    
Cu1   O1    S    
C18   H24   S    
C3    C4    A    
C16   C17   A    
C12   C22   S    
Cu2   O4    S    
C7    C8    A    
C20   O6    A    
C24   C25   T    
Cu2   N1    S    
C28   H9    S    
C18   C19   A    
C27   C28   S    
Cu1   Cu2   S    
C31   H23   S    
C22   C23   T    
C4    C5    A    
C21   C25   S    
C19   N2    A    
Cu2   O2    S    
C1    C7    S    
C18   N1    A    
Cu1   O7    S    
C2    C29   S    
C11   H6    S    
C11   C17   A    
C14   C15   A    
C29   C30   S    
C10   C20   S    
C8    C9    A    
C30   H15   S    
