data_mof_unit_20030.cif
_audit_creation_date              2013-03-05T15:42:08-0500
_audit_creation_method            fapswitch 2.2
_symmetry_space_group_name_H-M    P1
_symmetry_Int_Tables_number       1
_space_group_crystal_system       triclinic
_cell_length_a                    21.978339
_cell_length_b                    7.205034
_cell_length_c                    14.908962
_cell_angle_alpha                 90.00094
_cell_angle_beta                  106.902624
_cell_angle_gamma                 90.002419
_cell_volume                      2258.91348799

loop_
_atom_site_label
_atom_site_type_symbol
_atom_site_description
_atom_site_fract_x
_atom_site_fract_y
_atom_site_fract_z
_atom_type_partial_charge
O1    O     O_R   0.584770 0.505770 0.002090 -0.549625
O2    O     O_R   0.415230 0.005770 0.997910 -0.549581
O3    O     O_R   0.467060 0.173340 0.861950 -0.552114
O4    O     O_R   0.532940 0.673340 0.138050 -0.552130
C1    C     C_R   0.455179 0.344306 0.825960 0.811549
C2    C     C_R   0.544820 0.844313 0.174040 0.811498
O5    O     O_R   0.587510 0.175890 0.993210 -0.560495
O6    O     O_R   0.412490 0.675890 0.006790 -0.560512
O7    O     O_R   0.536540 0.008150 0.130100 -0.552455
O8    O     O_R   0.463460 0.508150 0.869900 -0.552427
C3    C     C_R   0.613212 0.344541 0.999411 0.820718
C4    C     C_R   0.386788 0.844534 0.000589 0.820684
O9    O     O_3   0.483140 0.340040 0.044760 -0.273113
O10   O     O_3   0.516860 0.840040 0.955240 -0.273106
V1    V     V_3+5 0.503130 0.064190 0.991700 1.200213
V2    V     V_3+5 0.496870 0.564190 0.008300 1.200182
C5    C     C_2   0.213406 0.734645 0.998343 -0.113156
C6    C     C_2   0.786610 0.234660 0.001753 -0.113072
C7    C     C_2   0.183654 0.890199 0.015369 0.201924
C8    C     C_2   0.816343 0.390153 0.984599 0.201931
H1    H     H_    0.185555 0.609834 0.975294 0.138016
H2    H     H_    0.814479 0.109935 0.024926 0.137849
C9    C     C_2   0.282921 0.718008 0.009135 -0.021855
C10   C     C_2   0.717096 0.217989 0.990958 -0.021759
C11   C     C_2   0.318415 0.859384 0.992997 -0.143159
C12   C     C_2   0.681585 0.359415 0.006991 -0.143157
H3    H     H_    0.304151 0.581412 0.025344 0.141720
H4    H     H_    0.695883 0.081343 0.974851 0.141627
H5    H     H_    0.296419 0.992792 0.970564 0.131563
H6    H     H_    0.703569 0.492885 0.029330 0.131480
C13   C     C_R   0.927167 0.885119 0.724024 -0.162480
C14   C     C_R   0.072830 0.385141 0.275977 -0.162437
C15   C     C_R   0.573270 0.852442 0.275487 -0.080115
C16   C     C_R   0.426725 0.352387 0.724512 -0.080049
C17   C     C_R   0.938222 0.856757 0.568594 -0.043284
C18   C     C_R   0.061765 0.357010 0.431413 -0.043277
C19   C     C_R   0.965684 0.867484 0.665051 0.613144
C20   C     C_R   0.034307 0.367671 0.334952 0.613144
C21   C     C_R   0.861118 0.888656 0.686805 -0.174533
C22   C     C_R   0.138879 0.388559 0.313198 -0.174604
C23   C     C_R   0.831524 0.873328 0.589003 0.033828
C24   C     C_R   0.168467 0.373265 0.411001 0.033833
C25   C     C_R   0.871557 0.863597 0.529184 -0.108064
C26   C     C_R   0.128432 0.363741 0.470822 -0.108047
C27   C     C_R   0.763793 0.867399 0.549331 -0.004074
C28   C     C_R   0.236196 0.367187 0.450673 -0.004077
C29   C     C_R   0.736863 0.858139 0.450141 -0.023067
C30   C     C_R   0.263126 0.358107 0.549867 -0.023059
C31   C     C_R   0.778499 0.853850 0.393581 -0.101514
C32   C     C_R   0.221489 0.353995 0.606429 -0.101496
C33   C     C_R   0.844416 0.857159 0.431375 0.357590
C34   C     C_R   0.155572 0.357386 0.568633 0.357575
C35   C     C_R   0.722266 0.866236 0.606061 -0.096816
C36   C     C_R   0.277718 0.365650 0.393938 -0.096952
C37   C     C_R   0.656348 0.862383 0.568363 0.334770
C38   C     C_R   0.343634 0.361611 0.431631 0.334809
C39   C     C_R   0.629131 0.862003 0.470498 -0.037105
C40   C     C_R   0.370857 0.361459 0.529495 -0.037022
C41   C     C_R   0.669085 0.855646 0.410435 0.028549
C42   C     C_R   0.330904 0.355538 0.589570 0.028537
C43   C     C_R   0.562469 0.871096 0.431328 -0.003801
C44   C     C_R   0.437523 0.370327 0.568651 -0.003809
C45   C     C_R   0.534945 0.865835 0.334786 -0.056182
C46   C     C_R   0.465052 0.365267 0.665194 -0.056079
C47   C     C_R   0.639327 0.847858 0.312398 -0.081749
C48   C     C_R   0.360664 0.348077 0.687614 -0.081761
H7    H     H_    0.665553 0.837845 0.261878 0.053839
H8    H     H_    0.334438 0.338521 0.738150 0.053853
H9    H     H_    0.483665 0.872028 0.306284 0.126360
H10   H     H_    0.516337 0.371219 0.693683 0.126191
H11   H     H_    0.969819 0.840218 0.525488 0.167494
H12   H     H_    0.030164 0.340614 0.474521 0.167442
H13   H     H_    0.834675 0.904766 0.736788 0.100023
H14   H     H_    0.165330 0.404592 0.263218 0.099973
H15   H     H_    0.761598 0.851398 0.318351 0.110830
H16   H     H_    0.238389 0.351554 0.681658 0.110876
H17   H     H_    0.739364 0.862077 0.681299 0.140393
H18   H     H_    0.260611 0.361270 0.318703 0.140413
H19   H     H_    0.530912 0.884843 0.474672 0.148790
H20   H     H_    0.469085 0.383702 0.525292 0.148616
O11   O     O_R   0.036450 0.233070 0.130130 -0.551758
O12   O     O_R   0.963550 0.733070 0.869870 -0.551703
O13   O     O_R   0.912470 0.560570 0.006790 -0.509767
O14   O     O_R   0.087530 0.060570 0.993210 -0.509768
C49   C     C_R   0.886357 0.392647 0.999346 0.797287
C50   C     C_R   0.113642 0.892655 0.000647 0.797270
O15   O     O_R   0.032920 0.562940 0.138050 -0.554007
O16   O     O_R   0.967080 0.062940 0.861950 -0.554004
O17   O     O_R   0.084790 0.730500 0.002090 -0.577920
O18   O     O_R   0.915210 0.230500 0.997910 -0.577907
C51   C     C_R   0.044807 0.394338 0.174462 0.896385
C52   C     C_R   0.955192 0.894332 0.825538 0.896459
O19   O     O_3   0.016820 0.396170 0.955260 -0.274310
O20   O     O_3   0.983180 0.896170 0.044740 -0.274342
V3    V     V_3+5 0.996880 0.672090 0.008300 1.257858
V4    V     V_3+5 0.003120 0.172090 0.991700 1.257851
F1    F     F_    0.029942 0.860879 0.700934 -0.645073
F2    F     F_    0.970048 0.361168 0.299071 -0.645125
N1    N     N_R   0.219699 0.050110 0.058742 0.070997
O21   O     O_R   0.203282 0.215594 0.025557 -0.352468
O22   O     O_R   0.264942 0.032181 0.137081 -0.335472
N2    N     N_R   0.780277 0.549895 0.941057 0.070998
O23   O     O_R   0.796698 0.715530 0.974024 -0.352494
O24   O     O_R   0.735020 0.531630 0.862757 -0.335436
N3    N     N_R   0.883035 0.858764 0.368327 0.088952
O25   O     O_R   0.923969 0.991670 0.373182 -0.317598
O26   O     O_R   0.869438 0.748464 0.296088 -0.304047
N4    N     N_R   0.116953 0.359160 0.631681 0.088947
O27   O     O_R   0.076048 0.492147 0.626797 -0.317485
O28   O     O_R   0.130526 0.248933 0.703945 -0.304028
N5    N     N_R   0.617823 0.853977 0.631453 0.089292
O29   O     O_R   0.576686 0.720582 0.623754 -0.369911
O30   O     O_R   0.631709 0.957758 0.706116 -0.330786
N6    N     N_R   0.382150 0.352785 0.368539 0.089345
O31   O     O_R   0.423219 0.219193 0.376307 -0.370230
O32   O     O_R   0.368307 0.456377 0.293813 -0.330662

loop_
_geom_bond_atom_site_label_1
_geom_bond_atom_site_label_2
_geom_bond_distance
_ccdc_geom_bond_type
C40   C44   1.412221 A    
C48   H8    1.075721 S    
O16   V4    2.024063 S    
O4    V2    2.024140 S    
O15   C51   1.325232 A    
N5    O29   1.301503 A    
O1    C3    1.325290 A    
C20   F2    1.357813 S    
C7    C50   1.489899 S    
O2    C4    1.325286 A    
C16   C48   1.395407 A    
C2    O7    1.336583 A    
C19   F1    1.357810 S    
N6    O31   1.301501 A    
C15   C47   1.395400 A    
C29   C31   1.413550 A    
O5    C3    1.331834 A    
N3    O26   1.301396 A    
C5    C9    1.493844 S    
C6    C10   1.493837 S    
C44   H20   1.081244 S    
C17   C19   1.390542 A    
O14   C50   1.329819 A    
O14   V4    2.015862 S    
C39   C41   1.425605 A    
C14   C51   1.460245 S    
C8    N2    1.440591 S    
C40   C42   1.425618 A    
O12   C52   1.322891 A    
N4    O27   1.301412 A    
C24   C28   1.433742 A    
C27   C29   1.425738 A    
C39   C43   1.412217 A    
C43   C45   1.390235 A    
C44   C46   1.390234 A    
C45   H9    1.083663 S    
C13   C21   1.395507 A    
C31   C33   1.393658 A    
O15   V3    2.024116 S    
C32   C34   1.393671 A    
C31   H15   1.074245 S    
C14   C20   1.392363 A    
C17   C25   1.412034 A    
O6    C4    1.331825 A    
C26   C34   1.406636 A    
C30   C32   1.413554 A    
C17   H11   1.081188 S    
O6    V2    2.015778 S    
C8    C49   1.489893 S    
C23   C25   1.425041 A    
N2    O23   1.301089 A    
C24   C26   1.425028 A    
C30   C42   1.434244 A    
C28   C30   1.425734 A    
C35   C37   1.393591 A    
C11   H5    1.084207 S    
C36   C38   1.393586 A    
C15   C45   1.390505 A    
O16   C52   1.325230 A    
C21   C23   1.417695 A    
O11   V4    2.027299 S    
C7    N1    1.440573 S    
C3    C12   1.477719 S    
C47   H7    1.075726 S    
C27   C35   1.413265 A    
C5    H1    1.085858 S    
C13   C19   1.392355 A    
O17   V3    2.005669 S    
C35   H17   1.074825 S    
C46   H10   1.083664 S    
C32   H16   1.074241 S    
N1    O21   1.301095 A    
C33   N3    1.438066 S    
O13   V3    2.015802 S    
C1    C16   1.460159 S    
C28   C36   1.413250 A    
C16   C46   1.390507 A    
N5    O30   1.301447 A    
O1    V2    2.005503 S    
N2    O24   1.301629 A    
O2    V1    2.005472 S    
C42   C48   1.418240 A    
O4    C2    1.338682 A    
O13   C49   1.329822 A    
C12   H6    1.084220 S    
O19   V4    1.757144 S    
C9    H3    1.085912 S    
C37   C39   1.406825 A    
C18   C26   1.412036 A    
C14   C22   1.395511 A    
O3    V1    2.024189 S    
C22   H14   1.076294 S    
C38   N6    1.438210 S    
O12   V3    2.027326 S    
C37   N5    1.438215 S    
C6    H2    1.085866 S    
C10   H4    1.085908 S    
C10   C12   1.346522 D    
C22   C24   1.417691 A    
O3    C1    1.338673 A    
C50   O17   1.332459 A    
N6    O32   1.301448 A    
C49   O18   1.332448 A    
N4    O28   1.301395 A    
O18   V4    2.005703 S    
N3    O25   1.301414 A    
C2    C15   1.460147 S    
C4    C11   1.477698 S    
C18   C20   1.390549 A    
O7    V1    2.019617 S    
C1    O8    1.336600 A    
O8    V2    2.019590 S    
C41   C47   1.418232 A    
C25   C33   1.406631 A    
C43   H19   1.081248 S    
O5    V1    2.015711 S    
C5    C7    1.358208 D    
C38   C40   1.406832 A    
C6    C8    1.358205 D    
C21   H13   1.076282 S    
O20   V3    1.757151 S    
C29   C41   1.434233 A    
O11   C51   1.322894 A    
C9    C11   1.346519 D    
C34   N4    1.438070 S    
C13   C52   1.460239 S    
O9    V2    1.757886 S    
C23   C27   1.433755 A    
O10   V1    1.757893 S    
N1    O22   1.301623 A    
C18   H12   1.081185 S    
C36   H18   1.074839 S    
