data_mof_unit_66865.cif
_audit_creation_date              2013-03-05T15:57:21-0500
_audit_creation_method            fapswitch 2.2
_symmetry_space_group_name_H-M    P1
_symmetry_Int_Tables_number       1
_space_group_crystal_system       triclinic
_cell_length_a                    17.086563
_cell_length_b                    18.497837
_cell_length_c                    8.422487
_cell_angle_alpha                 90.269038
_cell_angle_beta                  102.11463
_cell_angle_gamma                 89.823418
_cell_volume                      2602.7294285

loop_
_atom_site_label
_atom_site_type_symbol
_atom_site_description
_atom_site_fract_x
_atom_site_fract_y
_atom_site_fract_z
_atom_type_partial_charge
P1    P     P_3+3 0.834140 0.419320 0.003900 0.454909
P2    P     P_3+3 0.834140 0.580680 0.503900 0.452907
P3    P     P_3+3 0.334140 0.919320 0.003900 0.459546
P4    P     P_3+3 0.334140 0.080680 0.503900 0.454983
O1    O     O_2   0.841960 0.394640 0.833410 -0.368250
O2    O     O_2   0.841960 0.605360 0.333410 -0.370159
O3    O     O_2   0.341960 0.894640 0.833410 -0.374457
O4    O     O_2   0.341960 0.105360 0.333410 -0.361741
O5    O     O_3   0.907950 0.463080 0.102990 -0.393280
O6    O     O_3   0.907950 0.536920 0.602990 -0.393076
O7    O     O_3   0.407950 0.963080 0.102990 -0.388394
O8    O     O_3   0.407950 0.036920 0.602990 -0.401914
O9    O     O_3   0.972780 0.329600 0.629720 -0.381003
O10   O     O_3   0.972780 0.670400 0.129720 -0.383422
O11   O     O_3   0.472780 0.829600 0.629720 -0.381917
O12   O     O_3   0.472780 0.170400 0.129720 -0.379114
O13   O     O_2   0.841162 0.271931 0.693733 -0.383815
O14   O     O_2   0.844359 0.731939 0.200035 -0.400884
O15   O     O_2   0.342645 0.770400 0.697330 -0.371890
O16   O     O_2   0.343768 0.231056 0.198965 -0.380348
O17   O     O_3   0.750592 0.476557 0.967406 -0.583997
O18   O     O_3   0.750650 0.523690 0.466165 -0.583232
O19   O     O_3   0.251295 0.977318 0.968638 -0.581227
O20   O     O_3   0.250159 0.024381 0.464195 -0.585170
O21   O     O_3   0.946390 0.180082 0.633132 -0.538925
O22   O     O_3   0.950390 0.820337 0.124996 -0.548728
O23   O     O_3   0.448473 0.679834 0.631192 -0.533620
O24   O     O_3   0.450250 0.320222 0.132549 -0.533770
H1    H     H_    0.063148 0.217275 0.690184 0.143196
H2    H     H_    0.065440 0.780163 0.192196 0.145060
H3    H     H_    0.565438 0.713704 0.708346 0.149762
H4    H     H_    0.566880 0.284539 0.205464 0.147491
C1    C     C_3   0.058076 0.106438 0.614087 -1.077907
C2    C     C_3   0.066156 0.887171 0.096006 -1.026347
C3    C     C_3   0.559924 0.608476 0.596975 -1.096130
C4    C     C_3   0.562172 0.389987 0.097803 -1.091659
H5    H     H_    0.622867 0.610765 0.582032 0.250186
H6    H     H_    0.625113 0.386885 0.083119 0.249459
H7    H     H_    0.120216 0.106912 0.593941 0.246464
H8    H     H_    0.131938 0.881670 0.111632 0.237779
H9    H     H_    0.057214 0.084062 0.735379 0.275067
H10   H     H_    0.052005 0.920714 0.195781 0.281090
H11   H     H_    0.557171 0.578774 0.709367 0.271846
H12   H     H_    0.559652 0.419660 0.210896 0.271486
P5    P     P_3+3 0.165830 0.418670 0.685610 0.449794
P6    P     P_3+3 0.165830 0.581330 0.185610 0.448824
P7    P     P_3+3 0.665830 0.918670 0.685610 0.449450
P8    P     P_3+3 0.665830 0.081330 0.185610 0.451031
P9    P     P_3+3 0.100252 0.263015 0.112749 0.452133
P10   P     P_3+3 0.096693 0.739503 0.614362 0.447669
P11   P     P_3+3 0.600477 0.763161 0.110535 0.455954
P12   P     P_3+3 0.599343 0.237506 0.609620 0.459930
O25   O     O_2   0.157990 0.394030 0.856030 -0.373095
O26   O     O_2   0.157990 0.605970 0.356030 -0.390572
O27   O     O_2   0.657990 0.894030 0.856030 -0.376409
O28   O     O_2   0.657990 0.105970 0.356030 -0.381861
O29   O     O_3   0.027110 0.329490 0.059550 -0.368007
O30   O     O_3   0.027110 0.670510 0.559550 -0.377479
O31   O     O_3   0.527110 0.829490 0.059550 -0.352347
O32   O     O_3   0.527110 0.170510 0.559550 -0.353759
O33   O     O_2   0.163883 0.275473 0.009829 -0.382106
O34   O     O_2   0.156935 0.733185 0.501097 -0.388249
O35   O     O_2   0.660865 0.772624 0.999109 -0.387443
O36   O     O_2   0.659372 0.227833 0.497165 -0.384883
O37   O     O_3   0.256125 0.466516 0.730588 -0.591355
O38   O     O_3   0.257214 0.534530 0.220577 -0.595897
O39   O     O_3   0.755352 0.968411 0.730835 -0.586456
O40   O     O_3   0.757200 0.034343 0.215733 -0.596217
O41   O     O_3   0.056225 0.180965 0.041104 -0.527334
O42   O     O_3   0.047560 0.822124 0.564308 -0.538991
O43   O     O_3   0.551334 0.682575 0.046030 -0.508062
O44   O     O_3   0.549287 0.317932 0.545754 -0.506841
C5    C     C_3   0.981915 0.174180 0.087521 0.391273
C6    C     C_3   0.965471 0.815019 0.566747 0.363217
C7    C     C_3   0.500885 0.667321 0.153670 0.334745
C8    C     C_3   0.495160 0.331558 0.647315 0.309906
H13   H     H_    0.932973 0.183239 0.979592 0.121778
H14   H     H_    0.931501 0.807572 0.440353 0.151379
H15   H     H_    0.473516 0.716644 0.195893 0.061441
H16   H     H_    0.467288 0.281550 0.682961 0.068174
H17   H     H_    0.972558 0.212795 0.183681 0.026482
H18   H     H_    0.951833 0.769046 0.640429 0.060208
H19   H     H_    0.535890 0.638431 0.260138 0.053085
H20   H     H_    0.527240 0.359649 0.757985 0.052601
C9    C     C_3   0.975289 0.098196 0.153137 -0.688832
C10   C     C_3   0.933982 0.882458 0.639246 -0.654888
C11   C     C_3   0.431493 0.620490 0.069197 -0.600132
C12   C     C_3   0.426681 0.378945 0.559349 -0.556552
H21   H     H_    0.401713 0.646647 0.953739 0.249570
H22   H     H_    0.398928 0.353083 0.441938 0.251164
H23   H     H_    0.916241 0.091630 0.186778 0.213264
H24   H     H_    0.868031 0.884724 0.599857 0.217504
C13   C     C_3   0.247607 0.459769 0.206657 0.459601
C14   C     C_3   0.246467 0.540840 0.703540 0.448804
C15   C     C_3   0.747904 0.959407 0.208255 0.454388
C16   C     C_3   0.744903 0.043797 0.724474 0.456604
H25   H     H_    0.191992 0.443156 0.121668 0.149634
H26   H     H_    0.191173 0.555013 0.615959 0.163350
H27   H     H_    0.691498 0.941612 0.127092 0.146918
H28   H     H_    0.683664 0.061442 0.664971 0.142971
C17   C     C_3   0.318409 0.428325 0.145794 -0.876420
C18   C     C_3   0.317924 0.567256 0.637817 -0.895521
C19   C     C_3   0.817819 0.926699 0.146367 -0.866262
C20   C     C_3   0.804005 0.074518 0.630012 -0.890914
H29   H     H_    0.375672 0.446692 0.222808 0.266424
H30   H     H_    0.374763 0.552995 0.722270 0.262667
H31   H     H_    0.875656 0.946394 0.218832 0.259088
H32   H     H_    0.865913 0.057742 0.684808 0.260548
H33   H     H_    0.315165 0.368768 0.148642 0.256014
H34   H     H_    0.314253 0.626534 0.625075 0.255185
H35   H     H_    0.815321 0.867257 0.155034 0.254846
H36   H     H_    0.800102 0.134168 0.630113 0.254711
H37   H     H_    0.317331 0.444341 0.019657 0.260505
H38   H     H_    0.318491 0.542872 0.518319 0.279538
H39   H     H_    0.814520 0.940098 0.018065 0.260541
H40   H     H_    0.790995 0.054549 0.504731 0.280809
Ba1   Ba    Ba6+2 0.000000 0.447380 0.844850 1.528919
Ba2   Ba    Ba6+2 0.000000 0.552620 0.344850 1.529423
Ba3   Ba    Ba6+2 0.500000 0.947380 0.844850 1.536683
Ba4   Ba    Ba6+2 0.500000 0.052620 0.344850 1.537348
C21   C     C_3   0.768650 0.542433 0.902498 0.387283
C22   C     C_3   0.769041 0.457089 0.403209 0.385867
C23   C     C_3   0.267910 0.040537 0.891255 0.382980
C24   C     C_3   0.269437 0.956035 0.411387 0.368688
H41   H     H_    0.758311 0.536652 0.769093 0.112836
H42   H     H_    0.758421 0.461573 0.269665 0.111937
H43   H     H_    0.248642 0.032343 0.758796 0.111200
H44   H     H_    0.263466 0.957587 0.278243 0.110268
H45   H     H_    0.830927 0.560657 0.951190 0.119614
H46   H     H_    0.831448 0.439020 0.451819 0.119050
H47   H     H_    0.332035 0.056018 0.921431 0.113668
H48   H     H_    0.330350 0.937224 0.470225 0.126251
C25   C     C_3   0.712382 0.600027 0.944221 -0.903280
C26   C     C_3   0.713082 0.400195 0.446886 -0.905621
C27   C     C_3   0.219365 0.102133 0.942554 -0.904156
C28   C     C_3   0.209966 0.902007 0.452295 -0.896657
H49   H     H_    0.652240 0.577043 0.940981 0.265742
H50   H     H_    0.652759 0.423324 0.442423 0.265042
H51   H     H_    0.159790 0.082669 0.954252 0.266740
H52   H     H_    0.148597 0.924751 0.424289 0.265564
H53   H     H_    0.706839 0.645491 0.857367 0.229014
H54   H     H_    0.708086 0.353656 0.362066 0.230059
H55   H     H_    0.211334 0.146237 0.852102 0.225743
H56   H     H_    0.211422 0.851299 0.382629 0.235023
H57   H     H_    0.735849 0.621087 0.067988 0.274650
H58   H     H_    0.736344 0.380719 0.571654 0.276386
H59   H     H_    0.250033 0.123894 0.061609 0.283891
H60   H     H_    0.225144 0.889834 0.583388 0.270563
O45   O     O_3   0.092100 0.536880 0.086720 -0.396740
O46   O     O_3   0.092100 0.463120 0.586720 -0.406547
O47   O     O_3   0.592100 0.036880 0.086720 -0.398952
O48   O     O_3   0.592100 0.963120 0.586720 -0.404533
P13   P     P_3+3 0.900891 0.737757 0.079202 0.421981
P14   P     P_3+3 0.899871 0.263090 0.578037 0.436637
P15   P     P_3+3 0.401159 0.238021 0.080110 0.445143
P16   P     P_3+3 0.400448 0.762636 0.579365 0.446698
C29   C     C_3   0.023568 0.182160 0.600156 0.503698
C30   C     C_3   0.027923 0.813187 0.094964 0.471301
C31   C     C_3   0.526962 0.684269 0.605700 0.531388
C32   C     C_3   0.528254 0.314682 0.104583 0.530039
H61   H     H_    0.022304 0.201531 0.474876 0.020162
H62   H     H_    0.026580 0.788305 0.974027 0.034192
H63   H     H_    0.529146 0.711785 0.489974 -0.001363
H64   H     H_    0.529239 0.287310 0.987471 -0.004462
H65   H     H_    0.523563 0.579140 0.492168 0.255851
H66   H     H_    0.526285 0.419896 0.993829 0.254497
H67   H     H_    0.020889 0.071473 0.521726 0.258559
H68   H     H_    0.043664 0.914663 0.979047 0.251416
H69   H     H_    0.387363 0.616265 0.148631 0.194402
H70   H     H_    0.380339 0.383394 0.633788 0.196153
H71   H     H_    0.022753 0.091172 0.263740 0.224463
H72   H     H_    0.946852 0.878551 0.773312 0.211842
C33   C     C_R   0.130736 0.681151 0.928679 -0.512710
C34   C     C_R   0.129146 0.316949 0.431656 -0.530054
C35   C     C_R   0.632825 0.179632 0.924636 -0.504450
C36   C     C_R   0.631466 0.818614 0.428468 -0.517875
C37   C     C_R   0.862404 0.322994 0.265608 -0.508383
C38   C     C_R   0.861175 0.675786 0.768494 -0.522380
C39   C     C_R   0.361855 0.823433 0.267589 -0.504724
C40   C     C_R   0.363251 0.177517 0.766693 -0.499055
C41   C     C_R   0.789198 0.214649 0.299892 -0.202863
C42   C     C_R   0.788524 0.784909 0.803475 -0.204841
C43   C     C_R   0.288743 0.714892 0.302177 -0.206436
C44   C     C_R   0.289168 0.285583 0.803230 -0.207407
C45   C     C_R   0.846924 0.266360 0.363023 0.216572
C46   C     C_R   0.845894 0.732814 0.866195 0.234201
C47   C     C_R   0.346557 0.766599 0.365032 0.204200
C48   C     C_R   0.347408 0.234125 0.865372 0.205717
C49   C     C_R   0.815797 0.333543 0.109897 0.271416
C50   C     C_R   0.815427 0.665870 0.611732 0.264641
C51   C     C_R   0.315589 0.833729 0.111340 0.284093
C52   C     C_R   0.316156 0.166464 0.611269 0.280352
C53   C     C_R   0.753505 0.282411 0.047379 -0.069875
C54   C     C_R   0.753651 0.717238 0.549042 -0.069146
C55   C     C_R   0.253351 0.782508 0.049230 -0.075253
C56   C     C_R   0.253348 0.217053 0.549820 -0.070863
C57   C     C_R   0.240082 0.721747 0.145936 -0.078223
C58   C     C_R   0.240156 0.278074 0.647016 -0.069340
C59   C     C_R   0.740223 0.221630 0.144045 -0.082172
C60   C     C_R   0.740260 0.778067 0.646493 -0.079257
C61   C     C_R   0.177884 0.670323 0.084150 0.305558
C62   C     C_R   0.177593 0.329002 0.585673 0.296312
C63   C     C_R   0.678190 0.169991 0.082240 0.311236
C64   C     C_R   0.678467 0.829572 0.584291 0.292495
C65   C     C_R   0.147657 0.737027 0.829968 0.222873
C66   C     C_R   0.146919 0.261733 0.331268 0.203873
C67   C     C_R   0.649256 0.236035 0.826481 0.178138
C68   C     C_R   0.649414 0.763450 0.328202 0.176219
C69   C     C_R   0.205453 0.788906 0.892189 -0.196069
C70   C     C_R   0.205453 0.210275 0.392278 -0.200814
C71   C     C_R   0.705998 0.288627 0.889773 -0.208526
C72   C     C_R   0.706812 0.711242 0.390447 -0.204737
H73   H     H_    0.281466 0.670298 0.378105 0.188650
H74   H     H_    0.281882 0.330258 0.880262 0.191635
H75   H     H_    0.782326 0.169876 0.375196 0.189002
H76   H     H_    0.781578 0.829721 0.880365 0.191011
H77   H     H_    0.713448 0.333148 0.812594 0.179428
H78   H     H_    0.714868 0.667065 0.311993 0.178923
H79   H     H_    0.213176 0.833237 0.814984 0.178423
H80   H     H_    0.214190 0.166594 0.312761 0.186114
H81   H     H_    0.085413 0.641867 0.878107 0.183287
H82   H     H_    0.083148 0.355836 0.382013 0.177624
H83   H     H_    0.588581 0.139600 0.873089 0.176770
H84   H     H_    0.585850 0.857768 0.378403 0.175117
H85   H     H_    0.908810 0.361458 0.315091 0.169131
H86   H     H_    0.907620 0.637234 0.817496 0.172769
H87   H     H_    0.408002 0.862114 0.317222 0.166790
H88   H     H_    0.410470 0.139563 0.814882 0.168500
N1    N     N_3   0.985211 0.042641 0.035371 -0.179816
H89   H     H_    0.045538 0.040937 0.028866 0.185026
H90   H     H_    0.953302 0.057111 0.920454 0.158487
N2    N     N_3   0.968229 0.948965 0.591613 -0.177269
H91   H     H_    0.028607 0.951010 0.649934 0.189348
H92   H     H_    0.965563 0.947802 0.466538 0.167738
N3    N     N_3   0.458066 0.548062 0.036068 -0.195020
H93   H     H_    0.485156 0.524701 0.146747 0.147716
H94   H     H_    0.501122 0.551989 0.964754 0.177164
N4    N     N_3   0.454309 0.451269 0.530814 -0.187661
H95   H     H_    0.480296 0.474092 0.643127 0.145816
H96   H     H_    0.498522 0.447229 0.462153 0.175486
N5    N     N_3   0.248135 0.431681 0.366360 -0.187774
H97   H     H_    0.253040 0.375568 0.362344 0.076545
H98   H     H_    0.192179 0.444989 0.388392 0.110355
N6    N     N_3   0.245257 0.576889 0.856445 -0.209967
H99   H     H_    0.292239 0.557079 0.944390 0.162899
H100  H     H_    0.257825 0.631574 0.844997 0.080510
N7    N     N_3   0.750961 0.933988 0.370926 -0.193362
H101  H     H_    0.757166 0.877923 0.371925 0.068554
H102  H     H_    0.695446 0.947439 0.394830 0.117305
N8    N     N_3   0.764076 0.072929 0.889036 -0.200947
H103  H     H_    0.820222 0.053924 0.946764 0.146051
H104  H     H_    0.771385 0.128797 0.882981 0.076968

loop_
_geom_bond_atom_site_label_1
_geom_bond_atom_site_label_2
_geom_bond_distance
_ccdc_geom_bond_type
C43   H73   1.069501 S    
C67   C71   1.398064 A    
C18   H34   1.102572 S    
N6    H100  1.043834 S    
P1    O17   1.750118 S    
O5    Ba2   2.829534 S    
O16   P15   1.547380 D    
C13   H25   1.106377 S    
C10   N2    1.457558 S    
P12   C67   1.846810 S    
O28   Ba4   2.859884 S    
P4    C52   1.878929 S    
P3    O19   1.749311 S    
C34   H82   1.082298 S    
C35   C67   1.399335 A    
O44   C8    1.406823 S    
C33   H81   1.082268 S    
C8    H20   1.105466 S    
C9    H23   1.110867 S    
C37   C45   1.393372 A    
H4    C32   1.111399 S    
P8    Ba4   3.423512 S    
C14   H26   1.101467 S    
C1    H67   1.103416 S    
C25   H49   1.108282 S    
P8    C63   1.893417 S    
P6    Ba2   3.423512 S    
C43   C57   1.407385 A    
C7    H15   1.114322 S    
C10   H72   1.106815 S    
C52   C56   1.435430 A    
C19   H35   1.103862 S    
C3    H5    1.109697 S    
C6    H18   1.108818 S    
C55   C69   1.407045 A    
P3    O3    1.536953 D    
P15   C48   1.849806 S    
O12   Ba4   2.814808 S    
C19   H31   1.108520 S    
P4    O20   1.749275 S    
C15   H27   1.108075 S    
O9    Ba1   2.803835 S    
C53   C71   1.408118 A    
C39   C47   1.395342 A    
P13   C46   1.844285 S    
O13   P14   1.546076 D    
N8    H104  1.044105 S    
C11   H69   1.111242 S    
O20   C24   1.399384 S    
P9    O29   1.742221 S    
N6    H99   1.038519 S    
C24   H48   1.110319 S    
C33   C61   1.400883 A    
P5    O46   1.586345 S    
C42   C46   1.396476 A    
C5    H17   1.113527 S    
P4    O4    1.541198 D    
Ba2   O46   2.835012 S    
O30   Ba2   2.803149 S    
C36   C64   1.401641 A    
C22   C26   1.521391 S    
C14   N6    1.451433 S    
C40   C48   1.394655 A    
C15   N7    1.441111 S    
C21   H41   1.104894 S    
C20   H40   1.094365 S    
P5    O37   1.751312 S    
C44   H74   1.071264 S    
P6    C61   1.889904 S    
C54   C60   1.435509 A    
C1    C29   1.513526 S    
P5    C62   1.885701 S    
O10   Ba2   2.814808 S    
C2    H10   1.108657 S    
P2    O18   1.750205 S    
O24   P15   1.748342 S    
N3    H93   1.044699 S    
C57   C61   1.440324 A    
Ba1   O46   2.955119 S    
O23   P16   1.748730 S    
C16   N8    1.456798 S    
P4    O8    1.581312 S    
P12   O32   1.738685 S    
C8    C12   1.523900 S    
P8    O28   1.536272 D    
C28   H52   1.107503 S    
C24   H44   1.105008 S    
C56   C70   1.410455 A    
C20   H32   1.105735 S    
P7    Ba3   3.418845 S    
P7    O27   1.540510 D    
P5    O25   1.540510 D    
P9    O41   1.743980 S    
C42   H76   1.071088 S    
O15   P16   1.546903 D    
N3    H94   1.045698 S    
P2    O2    1.541198 D    
P11   O43   1.740967 S    
C59   C63   1.441126 A    
C2    H68   1.105128 S    
O7    Ba4   2.829534 S    
P7    O39   1.758487 S    
N1    H89   1.044035 S    
C15   C19   1.522759 S    
O18   C22   1.399664 S    
C50   C54   1.435410 A    
C3    C31   1.516503 S    
N7    H102  1.039453 S    
P11   O31   1.740913 S    
C17   H29   1.107740 S    
C71   H77   1.075812 S    
P14   C45   1.847888 S    
N4    H96   1.045627 S    
Ba4   O48   2.835012 S    
O40   C15   1.395333 S    
C37   C49   1.398315 A    
C24   C28   1.518736 S    
P10   O30   1.740360 S    
C42   C60   1.409128 A    
O3    Ba3   2.856419 S    
P1    O5    1.581279 S    
C56   C58   1.436062 A    
C40   C52   1.399758 A    
C70   H80   1.076956 S    
C13   C17   1.522425 S    
C20   H36   1.105226 S    
C4    C32   1.516291 S    
P11   C68   1.848430 S    
H1    C29   1.112247 S    
C12   H70   1.111008 S    
N8    H103  1.041195 S    
C53   C59   1.437422 A    
C11   N3    1.457700 S    
C54   C72   1.409795 A    
C40   H88   1.081805 S    
C9    N1    1.458956 S    
C6    C10   1.531387 S    
C44   C48   1.396585 A    
O1    Ba1   2.856419 S    
N5    H98   1.040067 S    
C69   H79   1.074431 S    
C22   H42   1.104552 S    
Ba2   O45   2.952150 S    
C27   H51   1.104641 S    
P2    Ba2   3.416613 S    
O42   C6    1.413612 S    
C19   H39   1.099644 S    
C18   H38   1.102862 S    
P3    C51   1.887572 S    
C60   C64   1.436404 A    
C26   H54   1.108072 S    
O8    Ba3   2.835051 S    
C66   C70   1.397640 A    
C23   H43   1.104788 S    
C34   C62   1.401929 A    
C65   C69   1.398093 A    
C68   C72   1.397296 A    
C12   N4    1.457728 S    
P12   O44   1.743755 S    
P6    O26   1.536272 D    
O12   P15   1.737132 S    
N2    H92   1.044958 S    
O23   C31   1.404678 S    
P11   O35   1.544395 D    
C41   H75   1.067125 S    
C1    H7    1.109908 S    
P8    O40   1.756310 S    
O41   C5    1.410861 S    
C5    C9    1.525890 S    
O11   P16   1.739594 S    
C28   H60   1.104010 S    
O14   P13   1.547468 D    
P3    Ba3   3.421175 S    
C13   N5    1.442482 S    
O38   C13   1.394607 S    
C58   C62   1.436553 A    
C2    C30   1.517469 S    
C7    C11   1.519515 S    
O37   C14   1.398244 S    
C12   H22   1.109848 S    
C44   C58   1.410051 A    
C16   C20   1.523393 S    
O24   C32   1.404666 S    
O21   C29   1.404180 S    
O39   C16   1.405145 S    
P10   O34   1.547131 D    
C31   H63   1.109299 S    
C4    H12   1.105713 S    
C25   H57   1.104946 S    
C41   C59   1.407043 A    
C29   H61   1.111831 S    
P1    O1    1.536953 D    
C3    H11   1.106305 S    
O4    Ba4   2.851038 S    
O29   Ba1   2.814118 S    
P16   C47   1.848024 S    
P5    Ba1   3.418845 S    
Ba3   O48   2.955119 S    
H2    C30   1.112066 S    
O19   C23   1.399933 S    
N4    H95   1.044660 S    
Ba4   O47   2.952150 S    
O31   Ba3   2.814118 S    
C36   H84   1.082268 S    
C23   H47   1.109716 S    
O21   P14   1.746190 S    
O22   C30   1.405617 S    
C25   H53   1.107959 S    
P4    Ba4   3.416613 S    
C8    H16   1.112643 S    
C21   H45   1.109899 S    
C26   H50   1.108142 S    
Ba1   O45   2.829498 S    
Ba3   Ba4   4.647714 S    
N1    H90   1.041995 S    
P6    O38   1.753652 S    
O27   Ba3   2.854444 S    
P7    O48   1.586345 S    
C22   H46   1.110068 S    
P2    C50   1.875017 S    
C27   H59   1.104108 S    
P12   O36   1.544722 D    
P1    C49   1.883249 S    
C26   H58   1.104281 S    
C1    H9    1.107018 S    
C36   C68   1.395389 A    
O26   Ba2   2.859884 S    
P10   O42   1.751532 S    
C35   C63   1.401490 A    
O10   P13   1.737368 S    
O6    Ba1   2.835051 S    
C10   H24   1.106615 S    
Ba1   Ba2   4.647714 S    
O43   C7    1.405887 S    
P9    O33   1.544539 D    
C7    H19   1.106723 S    
C41   C45   1.396955 A    
C72   H78   1.075067 S    
O2    Ba2   2.851038 S    
N5    H97   1.042052 S    
C38   C50   1.397623 A    
C16   H28   1.109915 S    
C4    H6    1.109303 S    
C27   H55   1.107265 S    
C3    H65   1.107722 S    
O11   Ba3   2.803835 S    
P7    C64   1.884956 S    
C18   H30   1.108575 S    
O25   Ba1   2.854444 S    
O17   C21   1.399416 S    
C17   H37   1.100677 S    
C51   C55   1.438872 A    
O9    P14   1.741211 S    
C38   H86   1.081876 S    
Ba3   O47   2.829498 S    
P3    O7    1.581279 S    
C30   H62   1.111641 S    
O32   Ba4   2.803149 S    
C37   H85   1.081958 S    
C38   C46   1.392296 A    
P10   C65   1.842506 S    
C49   C53   1.439104 A    
C39   H87   1.082010 S    
C9    H71   1.107148 S    
C39   C51   1.399228 A    
P9    C66   1.846085 S    
C14   C18   1.525060 S    
C5    H13   1.111406 S    
C28   H56   1.107042 S    
C4    H66   1.107273 S    
C6    H14   1.108557 S    
P8    O47   1.586316 S    
C23   C27   1.520812 S    
C34   C66   1.395734 A    
C11   H21   1.110799 S    
C35   H83   1.082118 S    
C2    H8    1.108321 S    
O22   P13   1.750147 S    
C33   C65   1.397826 A    
C21   C25   1.521458 S    
P6    O45   1.586316 S    
P1    Ba1   3.421175 S    
C17   H33   1.103873 S    
C32   H64   1.109865 S    
H3    C31   1.111439 S    
C43   C47   1.397309 A    
N7    H101  1.042050 S    
N2    H91   1.046129 S    
C55   C57   1.437280 A    
P2    O6    1.581312 S    
