data_mof_unit_46488.cif
_audit_creation_date              2012-12-11T16:04:52-0500
_audit_creation_method            fapswitch 2.2
_symmetry_space_group_name_H-M    P1
_symmetry_Int_Tables_number       1
_space_group_crystal_system       triclinic
_cell_length_a                    10.653954
_cell_length_b                    10.589763
_cell_length_c                    16.890727
_cell_angle_alpha                 98.663756
_cell_angle_beta                  98.747866
_cell_angle_gamma                 61.64411
_cell_volume                      1650.75234685

loop_
_atom_site_label
_atom_site_type_symbol
_atom_type_description
_atom_site_fract_x
_atom_site_fract_y
_atom_site_fract_z
_atom_type_partial_charge
C1    C     C_R   0.354031 0.776646 0.399214 0.530968
C2    C     C_3   0.410076 0.694716 0.254298 -0.113841
C3    C     C_3   0.343428 0.817940 0.320136 0.050995
C4    C     C_R   0.370103 0.346291 0.358942 0.533277
C5    C     C_3   0.402524 0.906053 0.289444 -0.127327
C6    C     C_3   0.260714 0.975403 0.235350 -0.113628
C7    C     C_3   0.202611 0.886256 0.267401 -0.121356
C8    C     C_3   0.268389 0.763759 0.200895 -0.111522
C9    C     C_3   0.326611 0.851839 0.169489 0.061301
C10   C     C_3   0.477121 0.311428 0.801130 -0.140730
C11   C     C_3   0.397645 0.451805 0.758306 -0.187955
C12   C     C_3   0.723274 0.310582 0.235703 -0.135361
C13   C     C_3   0.382789 0.362911 0.680418 0.048413
C14   C     C_3   0.463151 0.222436 0.722352 -0.142592
C15   C     C_3   0.318107 0.242552 0.742918 -0.121395
C16   C     C_R   0.717308 0.409708 0.389601 0.549290
C17   C     C_3   0.240013 0.382424 0.701010 0.305180
C18   C     C_3   0.250957 0.473953 0.779207 -0.079166
C19   C     C_3   0.331914 0.333674 0.820605 0.017999
C20   C     C_1   0.767804 0.367968 0.715600 -0.045257
C21   C     C_1   0.812616 0.330293 0.782320 -0.046662
C22   C     C_1   0.353475 0.775301 0.713429 -0.051681
C23   C     C_3   0.778383 0.370711 0.313407 0.056904
C24   C     C_1   0.322037 0.819908 0.780905 -0.046886
C25   C     C_R   0.950278 0.287892 0.103136 0.547339
C26   C     C_R   0.319363 0.300057 0.120151 0.532204
C27   C     C_R   0.296096 0.888378 0.087673 0.533526
C28   C     C_R   0.377402 0.720900 0.631937 0.514929
C29   C     C_R   0.878316 0.302522 0.862235 0.550637
C30   C     C_R   0.309852 0.295991 0.893757 0.547912
C31   C     C_R   0.280889 0.882633 0.859271 0.547206
C32   C     C_R   0.409356 0.377285 0.601304 0.532309
C33   C     C_R   0.717886 0.410739 0.635707 0.510845
C34   C     C_3   0.934027 0.261207 0.300954 -0.118737
C35   C     C_1   0.343466 0.336183 0.275159 -0.066284
C36   C     C_1   0.331789 0.326643 0.203873 -0.063506
C37   C     C_3   0.880100 0.200523 0.221664 -0.118722
C38   C     C_3   0.090267 0.314383 0.608939 0.025104
C39   C     C_3   0.195743 0.216142 0.547314 -0.282990
C40   C     C_3   0.153178 0.103013 0.504472 -0.463128
C41   C     C_3   0.944413 0.371735 0.255828 -0.129250
C42   C     C_3   0.788121 0.481516 0.269285 -0.112540
C43   C     C_3   0.733812 0.421074 0.190441 -0.116509
C44   C     C_3   0.889552 0.311955 0.178065 0.058033
C45   C     C_3   0.468027 0.784108 0.221762 -0.130073
Cr1   Cr    Cr6+3 0.608340 0.611040 0.520430 1.016541
Cr2   Cr    Cr6+3 0.287650 0.601120 0.489350 1.028272
Cr3   Cr    Cr6+3 0.604040 0.287870 0.490280 0.999361
Cr4   Cr    Cr6+3 0.054020 0.052700 0.970850 1.024572
Cr5   Cr    Cr6+3 0.059230 0.375120 0.993390 1.022210
Cr6   Cr    Cr6+3 0.374950 0.061200 0.992340 1.025823
H1    H     H_    0.631661 0.286220 0.229558 0.123171
H2    H     H_    0.917244 0.085849 0.198718 0.127284
H3    H     H_    0.015476 0.196412 0.347226 0.110688
H4    H     H_    0.036174 0.395997 0.262261 0.114833
H5    H     H_    0.751728 0.596290 0.291819 0.128053
H6    H     H_    0.653779 0.484489 0.142928 0.123181
H7    H     H_    0.469068 0.579012 0.264918 0.099531
H8    H     H_    0.573594 0.745298 0.198881 0.113758
H9    H     H_    0.455364 0.965126 0.327969 0.131947
H10   H     H_    0.984612 0.362538 0.574298 0.218888
H11   H     H_    0.082501 0.252881 0.654238 0.123229
H12   H     H_    0.201119 0.091160 0.224715 0.101027
H13   H     H_    0.195561 0.282131 0.501945 0.201957
H14   H     H_    0.305680 0.159499 0.577004 0.181912
H15   H     H_    0.176051 0.020803 0.545724 0.191341
H16   H     H_    0.215669 0.050542 0.451782 0.140272
H17   H     H_    0.037506 0.152756 0.482985 0.164097
H18   H     H_    0.095851 0.927027 0.289285 0.118863
H19   H     H_    0.215432 0.704098 0.163068 0.125445
H20   H     H_    0.441098 0.529121 0.765494 0.095445
H21   H     H_    0.573937 0.282489 0.844531 0.135288
H22   H     H_    0.550633 0.119908 0.698376 0.148185
H23   H     H_    0.288155 0.154659 0.739953 0.107177
H24   H     H_    0.163504 0.575742 0.803851 0.140257
O1    O     O_R   0.751220 0.499230 0.435170 -0.513215
O2    O     O_R   0.412990 0.180750 0.091610 -0.507574
O3    O     O_R   0.366620 0.943130 0.065760 -0.501073
O4    O     O_R   0.477220 0.727600 0.436870 -0.508859
O5    O     O_R   0.160510 0.906330 0.879210 -0.506251
O6    O     O_R   0.930190 0.179050 0.889450 -0.489976
O7    O     O_R   0.909140 0.398170 0.896710 -0.499422
O8    O     O_R   0.186190 0.363460 0.918830 -0.500571
O9    O     O_R   0.401670 0.173200 0.913310 -0.509031
O10   O     O_R   0.356120 0.936130 0.900470 -0.493551
O11   O     O_3   0.162740 0.163010 0.985530 -0.270302
O12   O     O_R   0.297880 0.469080 0.560050 -0.465084
O13   O     O_R   0.258650 0.745120 0.411470 -0.512599
O14   O     O_R   0.297070 0.467240 0.395960 -0.492822
O15   O     O_R   0.488830 0.252610 0.387790 -0.517035
O16   O     O_R   0.724400 0.302390 0.420980 -0.499156
O17   O     O_R   0.752100 0.501210 0.612190 -0.498831
O18   O     O_R   0.478040 0.729440 0.600970 -0.500213
O19   O     O_R   0.259530 0.747110 0.588490 -0.503700
O20   O     O_3   0.116872 0.429750 0.645236 -0.536982
O21   O     O_R   0.489720 0.254590 0.564810 -0.536398
O22   O     O_R   0.725220 0.304230 0.585080 -0.506424
O23   O     O_3   0.500010 0.500010 0.500020 -0.319982
O24   O     O_R   0.171830 0.913880 0.057510 -0.528504
O25   O     O_R   0.940690 0.186050 0.054730 -0.500504
O26   O     O_R   0.920470 0.405720 0.075010 -0.515262
O27   O     O_R   0.196690 0.370460 0.084120 -0.516559

loop_
_geom_bond_atom_site_label_1
_geom_bond_atom_site_label_2
_ccdc_geom_bond_type
C11   C18   S    
C9    C45   S    
C18   H24   S    
C31   O10   A    
C34   C37   S    
C39   H14   S    
C41   C42   S    
C13   C32   S    
C35   C36   T    
C27   O3    A    
Cr6   O10   S    
C6    C9    S    
Cr1   O1    S    
C31   O5    A    
C15   C19   S    
C39   H13   S    
C12   C23   S    
C27   O24   A    
Cr2   O23   S    
C12   C43   S    
C3    C7    S    
Cr1   O4    S    
C11   H20   S    
Cr1   O17   S    
C30   O8    A    
Cr6   O11   S    
C28   O19   A    
C18   C19   S    
Cr4   O6    S    
C12   C37   S    
C41   H4    S    
C42   H5    S    
C8    C9    S    
C40   H16   S    
C38   O20   S    
C17   O20   S    
C38   H10   S    
C37   H2    S    
C1    O13   A    
Cr1   O23   S    
C4    C35   S    
Cr3   O15   S    
C13   C14   S    
Cr2   O14   S    
C34   C41   S    
C25   C44   S    
C12   H1    S    
Cr5   O8    S    
C4    O15   A    
C2    C45   S    
C38   C39   S    
C26   O2    A    
C14   H22   S    
C7    C8    S    
C10   C14   S    
C33   O17   A    
C39   C40   S    
Cr5   O11   S    
Cr5   O7    S    
C32   O12   A    
C21   C29   S    
Cr3   O16   S    
C28   O18   A    
C1    C3    S    
Cr2   O12   S    
C6    H12   S    
C43   C44   S    
Cr6   O2    S    
C29   O6    A    
Cr3   O22   S    
Cr4   O24   S    
C25   O25   A    
C10   C19   S    
C23   C34   S    
C17   C18   S    
C23   C42   S    
Cr5   O26   S    
C20   C33   S    
C26   C36   S    
C32   O21   A    
C34   H3    S    
C16   C23   S    
C1    O4    A    
C41   C44   S    
C22   C24   T    
C42   C43   S    
C9    C27   S    
C4    O14   A    
C15   C17   S    
C45   H8    S    
Cr3   O21   S    
C5    H9    S    
C16   O1    A    
Cr4   O11   S    
C2    C8    S    
C3    C5    S    
C7    H18   S    
C2    H7    S    
Cr5   O27   S    
C6    C7    S    
Cr3   O23   S    
C8    H19   S    
Cr4   O5    S    
C13   C17   S    
Cr2   O13   S    
C37   C44   S    
C2    C3    S    
Cr6   O3    S    
C29   O7    A    
C26   O27   A    
Cr4   O25   S    
C11   C13   S    
C25   O26   A    
C5    C6    S    
Cr1   O18   S    
C5    C45   S    
C40   H15   S    
Cr2   O19   S    
C33   O22   A    
C30   O9    A    
C24   C31   S    
C10   C11   S    
C43   H6    S    
C15   H23   S    
C20   C21   T    
C16   O16   A    
C40   H17   S    
C14   C15   S    
C22   C28   S    
C19   C30   S    
Cr6   O9    S    
C38   H11   S    
C10   H21   S    
