data_mof_unit_46514.cif
_audit_creation_date              2012-12-10T16:56:30-0500
_audit_creation_method            fapswitch 2.2
_symmetry_space_group_name_H-M    P1
_symmetry_Int_Tables_number       1
_space_group_crystal_system       triclinic
_cell_length_a                    7.934844
_cell_length_b                    8.561015
_cell_length_c                    15.694877
_cell_angle_alpha                 93.475424
_cell_angle_beta                  84.829027
_cell_angle_gamma                 93.000497
_cell_volume                      1058.6869019

loop_
_atom_site_label
_atom_site_type_symbol
_atom_type_description
_atom_site_fract_x
_atom_site_fract_y
_atom_site_fract_z
_atom_type_partial_charge
C1    C     C_R   0.544438 0.793904 0.499239 0.949381
C2    C     C_3   0.413643 0.370728 0.028528 -0.214940
C3    C     C_1   0.500712 0.499480 0.750574 -0.179077
C4    C     C_1   0.499242 0.500763 0.249432 -0.186796
C5    C     C_3   0.338603 0.497901 0.978618 -0.210196
C6    C     C_3   0.661211 0.502562 0.021391 -0.209397
C7    C     C_3   0.500396 0.498824 0.916941 0.117147
C8    C     C_3   0.499418 0.501642 0.083071 0.117763
C9    C     C_1   0.500712 0.498807 0.825942 -0.076870
C10   C     C_1   0.499159 0.501575 0.174069 -0.078303
C11   C     C_3   0.340786 0.772339 0.076569 -0.419455
C12   C     C_R   0.455325 0.206115 0.502288 0.951454
C13   C     C_3   0.276866 0.872212 0.010047 -0.885630
C14   C     C_3   0.659008 0.228131 0.923422 -0.417811
C15   C     C_3   0.722899 0.128197 0.989922 -0.886817
C16   C     C_3   0.023667 0.372082 0.401372 -0.140696
C17   C     C_3   0.921289 0.222159 0.379582 -0.874061
C18   C     C_3   0.985290 0.680402 0.570456 -0.146590
C19   C     C_3   0.070976 0.716858 0.652866 -0.858623
C20   C     C_R   0.500331 0.500385 0.661606 0.888305
C21   C     C_R   0.499669 0.499687 0.338396 0.889824
C22   C     C_2   0.567145 0.957489 0.501990 -0.383729
C23   C     C_2   0.431473 0.042623 0.502873 -0.380005
C24   C     C_3   0.425245 0.627398 0.034417 0.238215
C25   C     C_3   0.574568 0.373068 0.965594 0.238032
C26   C     C_3   0.586172 0.629737 0.971481 -0.213968
H1    H     H_    0.655509 0.735566 0.946272 0.142890
H2    H     H_    0.232576 0.734725 0.121804 0.208067
H3    H     H_    0.433848 0.843272 0.113310 0.204935
H4    H     H_    0.819412 0.196037 0.025863 0.259428
H5    H     H_    0.616387 0.088823 0.035652 0.265327
H6    H     H_    0.781924 0.023361 0.957276 0.247280
H7    H     H_    0.565942 0.157235 0.886665 0.204967
H8    H     H_    0.767232 0.265756 0.878197 0.209599
H9    H     H_    0.907634 0.147961 0.435404 0.252336
H10   H     H_    0.796344 0.246228 0.358834 0.292175
H11   H     H_    0.990217 0.155574 0.325511 0.213145
H12   H     H_    0.344309 0.264893 0.053731 0.142582
H13   H     H_    0.033556 0.448157 0.346085 0.171101
H14   H     H_    0.147158 0.330979 0.410475 0.232372
H15   H     H_    0.065622 0.611382 0.691061 0.267792
H16   H     H_    0.203351 0.761622 0.639412 0.284476
H17   H     H_    0.003024 0.810263 0.692082 0.210248
H18   H     H_    0.004955 0.782520 0.529652 0.159304
H19   H     H_    0.852250 0.665837 0.591779 0.232903
H20   H     H_    0.792531 0.503772 0.040687 0.141498
H21   H     H_    0.207290 0.496693 0.959311 0.141567
H22   H     H_    0.695266 0.007239 0.503938 0.173255
H23   H     H_    0.302575 0.992648 0.502537 0.179387
H24   H     H_    0.383368 0.911573 0.964306 0.265441
H25   H     H_    0.180363 0.804333 0.974117 0.259591
H26   H     H_    0.217826 0.977057 0.042672 0.246883
N1    N     N_2   0.950320 0.457950 0.477300 -0.029364
N2    N     N_2   0.049680 0.542050 0.522700 -0.029016
O1    O     O_R   0.389250 0.738570 0.505570 -0.613267
O2    O     O_R   0.610750 0.261430 0.494430 -0.605672
O3    O     O_R   0.678390 0.711630 0.491020 -0.659837
O4    O     O_R   0.321610 0.288370 0.508980 -0.644999
O5    O     O_R   0.355460 0.513480 0.630490 -0.609097
O6    O     O_R   0.644540 0.486520 0.369510 -0.613050
O7    O     O_R   0.644600 0.486540 0.615950 -0.635660
O8    O     O_R   0.355400 0.513460 0.384050 -0.653576
Zn1   Zn    Zn3+2 0.306940 0.517990 0.509710 0.927729
Zn2   Zn    Zn3+2 0.693060 0.482010 0.490290 0.930105

loop_
_geom_bond_atom_site_label_1
_geom_bond_atom_site_label_2
_ccdc_geom_bond_type
C14   H8    S    
O7    Zn2   S    
C22   H22   S    
O3    Zn2   S    
O2    Zn2   S    
C15   H5    S    
O8    Zn1   S    
C3    C9    T    
C17   H10   S    
C1    O3    A    
O1    Zn1   S    
C13   H26   S    
C11   C13   S    
C2    H12   S    
O5    Zn1   S    
C7    C25   S    
C19   H16   S    
O6    Zn2   S    
C12   O4    A    
C14   H7    S    
C1    O1    A    
C19   H15   S    
C3    C20   S    
C6    C26   S    
N1    N2    D    
C20   O5    A    
C4    C21   S    
C5    H21   S    
C12   C23   S    
C21   O8    A    
C12   O2    A    
C5    C24   S    
C7    C26   S    
C11   H2    S    
C16   H14   S    
C6    C8    S    
C17   H9    S    
C8    C24   S    
C19   H17   S    
C2    C25   S    
C18   H18   S    
C22   C23   D    
C14   C25   S    
C26   H1    S    
N1    Zn2   S    
C23   H23   S    
C2    C5    S    
N2    Zn1   S    
C18   N2    S    
C16   H13   S    
C4    C10   T    
C13   H24   S    
C6    C25   S    
C18   H19   S    
C7    C9    S    
C11   C24   S    
C1    C22   S    
C21   O6    A    
C13   H25   S    
C11   H3    S    
C15   H4    S    
C8    C10   S    
C18   C19   S    
C20   O7    A    
C5    C7    S    
C14   C15   S    
C17   H11   S    
C6    H20   S    
C16   N1    S    
C2    C8    S    
O4    Zn1   S    
C24   C26   S    
C16   C17   S    
C15   H6    S    
