data_mof_unit_12825.cif
_audit_creation_date              2012-10-26T20:34:03-0400
_audit_creation_method            fapswitch 2.2
_symmetry_space_group_name_H-M    P1
_symmetry_Int_Tables_number       1
_space_group_crystal_system       triclinic
_cell_length_a                    15.926384
_cell_length_b                    9.084662
_cell_length_c                    7.805012
_cell_angle_alpha                 89.986475
_cell_angle_beta                  91.010449
_cell_angle_gamma                 90.024465
_cell_volume                      1129.09878696

loop_
_atom_site_label
_atom_site_type_symbol
_atom_type_description
_atom_site_fract_x
_atom_site_fract_y
_atom_site_fract_z
_atom_type_partial_charge
C1    C     C_R   0.499996 0.220110 0.500012 0.546481
C2    C     C_3   0.045159 0.435967 0.338196 0.138298
C3    C     C_3   0.955040 0.457480 0.672548 0.146281
C4    C     C_3   0.948406 0.421490 0.356155 0.131552
C5    C     C_1   0.749393 0.506220 0.505498 0.038398
C6    C     C_1   0.250612 0.505884 0.494246 0.040458
C7    C     C_3   0.083200 0.524866 0.493154 -0.051012
C8    C     C_3   0.916800 0.524917 0.503573 -0.055035
C9    C     C_3   0.948515 0.690955 0.473694 0.043157
C10   C     C_3   0.051134 0.692690 0.493451 0.047382
C11   C     C_2   0.086639 0.763905 0.660751 0.644111
C12   C     C_1   0.824592 0.513836 0.507198 -0.003251
C13   C     C_2   0.090468 0.789500 0.353768 0.653945
C14   C     C_2   0.909244 0.805066 0.594194 0.649978
C15   C     C_2   0.912840 0.739549 0.296095 0.643113
C16   C     C_1   0.175411 0.513504 0.491496 0.006618
C17   C     C_R   0.339902 0.500125 0.498441 0.551276
C18   C     C_R   0.660099 0.500271 0.501543 0.553668
C19   C     C_1   0.499995 0.934594 0.499982 -0.017883
C20   C     C_1   0.499995 0.065406 0.500016 -0.025676
C21   C     C_R   0.499997 0.779895 0.499987 0.565466
C22   C     C_3   0.051866 0.441725 0.657194 0.134801
Cu1   Cu    Cu3+1 0.500000 0.500010 0.669080 1.067290
Cu2   Cu    Cu3+1 0.500000 0.500010 0.330920 1.067996
H1    H     H_    0.929369 0.343789 0.689331 0.080773
H2    H     H_    0.146516 0.432470 0.819300 0.315245
H3    H     H_    0.854016 0.389634 0.197182 0.318503
H4    H     H_    0.876997 0.510342 0.851099 0.352257
H5    H     H_    0.935638 0.304730 0.393614 0.091633
H6    H     H_    0.065106 0.321534 0.641140 0.080640
H7    H     H_    0.071211 0.321563 0.341738 0.099884
H8    H     H_    0.071278 0.826765 0.906066 0.368493
H9    H     H_    0.174977 0.814350 0.165891 0.346798
H10   H     H_    0.903105 0.019117 0.663667 0.336871
H11   H     H_    0.927124 0.767633 0.042755 0.398060
H12   H     H_    0.122579 0.463849 0.151512 0.347763
N1    N     N_1   0.500000 0.499970 0.076820 -0.070813
N2    N     N_1   0.500000 0.499970 0.923180 -0.070723
O1    O     O_R   0.500000 0.288400 0.642760 -0.499500
O2    O     O_R   0.038805 0.779185 0.807863 -0.578138
O3    O     O_2   0.068769 0.918393 0.340519 -0.487403
O4    O     O_R   0.153984 0.737048 0.248481 -0.650396
O5    O     O_2   0.854752 0.771485 0.695451 -0.477080
O6    O     O_R   0.933421 0.952789 0.580600 -0.670852
O7    O     O_2   0.839113 0.777428 0.282538 -0.492160
O8    O     O_R   0.960157 0.733208 0.147429 -0.547955
O9    O     O_3   0.065450 0.498882 0.179983 -0.495705
O10   O     O_3   0.093223 0.488648 0.808498 -0.560283
O11   O     O_3   0.906955 0.447398 0.198073 -0.580968
O12   O     O_R   0.500000 0.288400 0.357240 -0.499864
O13   O     O_3   0.934506 0.539917 0.818005 -0.508615
O14   O     O_R   0.379440 0.500020 0.642850 -0.496067
O15   O     O_R   0.379440 0.500020 0.357150 -0.496578
O16   O     O_R   0.620560 0.500020 0.642850 -0.496323
O17   O     O_R   0.620560 0.500020 0.357150 -0.491225
O18   O     O_R   0.500000 0.711620 0.642810 -0.489314
O19   O     O_R   0.500000 0.711620 0.357190 -0.490244
O20   O     O_2   0.160560 0.801559 0.668299 -0.504129

loop_
_geom_bond_atom_site_label_1
_geom_bond_atom_site_label_2
_ccdc_geom_bond_type
C8    C9    S    
C7    C10   S    
C22   O10   S    
C9    C14   S    
C21   O19   A    
N1    N2    T    
C2    O9    S    
C21   O18   A    
C11   O20   D    
C9    C10   S    
C2    H7    S    
C2    C4    S    
C4    H5    S    
C15   O8    S    
Cu1   N2    S    
H2    O10   S    
C4    O11   S    
C4    C8    S    
C19   C20   T    
C13   O3    D    
Cu2   N1    S    
C9    C15   S    
Cu1   O18   S    
Cu2   O17   S    
Cu1   O14   S    
C18   O17   A    
Cu1   O16   S    
Cu1   O1    S    
H9    O4    S    
C17   O14   A    
C7    C16   S    
C19   C21   S    
C13   O4    S    
H8    O2    S    
Cu2   O12   S    
C11   O2    S    
H4    O13   S    
C10   C11   S    
C1    O1    A    
Cu1   Cu2   S    
C6    C16   T    
C7    C22   S    
C17   O15   A    
C3    H1    S    
H10   O6    S    
H3    O11   S    
H12   O9    S    
C14   O6    S    
C3    C8    S    
C1    O12   A    
C6    C17   S    
C18   O16   A    
Cu2   O19   S    
C3    C22   S    
C3    O13   S    
C5    C18   S    
C22   H6    S    
C2    C7    S    
Cu2   O15   S    
H11   O8    S    
C10   C13   S    
C8    C12   S    
C14   O5    D    
C1    C20   S    
C15   O7    D    
C5    C12   T    
