data_mof_unit_30474.cif
_audit_creation_date              2012-12-10T17:12:30-0500
_audit_creation_method            fapswitch 2.2
_symmetry_space_group_name_H-M    P1
_symmetry_Int_Tables_number       1
_space_group_crystal_system       triclinic
_cell_length_a                    11.726056
_cell_length_b                    13.17863
_cell_length_c                    11.686941
_cell_angle_alpha                 101.728638
_cell_angle_beta                  93.513557
_cell_angle_gamma                 90.637966
_cell_volume                      1764.47662056

loop_
_atom_site_label
_atom_site_type_symbol
_atom_type_description
_atom_site_fract_x
_atom_site_fract_y
_atom_site_fract_z
_atom_type_partial_charge
C1    C     C_R   0.502390 0.298808 0.477192 0.814989
C2    C     C_R   0.497438 0.701098 0.522948 0.812343
C3    C     C_R   0.364784 0.434477 0.025753 -0.110782
C4    C     C_R   0.635472 0.566433 0.974318 -0.107958
C5    C     C_R   0.382422 0.437619 0.147238 0.074209
C6    C     C_R   0.617523 0.562633 0.852591 0.077458
C7    C     C_R   0.563779 0.518686 0.154131 0.008199
C8    C     C_R   0.436004 0.482524 0.846328 0.007940
C9    C     C_R   0.550628 0.522248 0.032900 -0.010604
C10   C     C_R   0.449334 0.479299 0.967627 -0.009692
C11   C     C_R   0.283836 0.499953 0.500434 0.817191
C12   C     C_R   0.716164 0.500041 0.499570 0.817934
C13   C     C_1   0.162281 0.500054 0.501078 -0.205071
C14   C     C_1   0.837721 0.499950 0.498951 -0.205526
C15   C     C_1   0.059883 0.500041 0.500554 -0.013702
C16   C     C_1   0.940121 0.499968 0.499501 -0.014317
C17   C     C_R   0.496757 0.815229 0.537359 -0.230500
C18   C     C_R   0.501841 0.184595 0.464024 -0.218167
C19   C     C_R   0.397884 0.024188 0.381222 0.422725
C20   C     C_R   0.594236 0.977313 0.627754 0.399660
C21   C     C_R   0.434993 0.122986 0.371326 -0.147232
C22   C     C_R   0.559201 0.877078 0.633103 -0.125134
C23   C     C_R   0.552032 0.138067 0.554158 -0.094255
C24   C     C_R   0.446417 0.862587 0.448324 -0.092300
C25   C     C_R   0.537532 0.029386 0.546502 -0.080855
C26   C     C_R   0.459196 0.971646 0.458594 -0.058769
Cu1   Cu    Cu3+1 0.508350 0.507730 0.615930 0.944681
Cu2   Cu    Cu3+1 0.491650 0.492270 0.384070 0.944937
H1    H     H_    0.358198 0.455327 0.795187 0.146563
H2    H     H_    0.641359 0.546357 0.205445 0.144994
H3    H     H_    0.681963 0.595053 0.807349 0.132836
H4    H     H_    0.317945 0.404589 0.191949 0.133500
N1    N     N_R   0.520920 0.519350 0.790130 -0.183501
N2    N     N_R   0.479080 0.480650 0.209870 -0.183223
O1    O     O_R   0.505930 0.354460 0.582000 -0.572239
O2    O     O_R   0.494070 0.645540 0.418000 -0.573169
O3    O     O_R   0.491820 0.341410 0.386200 -0.575389
O4    O     O_R   0.508180 0.658590 0.613800 -0.578692
O5    O     O_R   0.344250 0.506540 0.597900 -0.584166
O6    O     O_R   0.655750 0.493460 0.402100 -0.584025
O7    O     O_R   0.330140 0.493480 0.402100 -0.588400
O8    O     O_R   0.669860 0.506520 0.597900 -0.588056
C27   C     C_R   0.386129 0.797482 0.342007 0.244495
C28   C     C_R   0.429434 0.792651 0.231523 -0.075265
C29   C     C_R   0.373799 0.731400 0.131670 -0.129212
C30   C     C_R   0.275130 0.674421 0.141249 -0.120280
C31   C     C_R   0.233205 0.676385 0.251005 -0.151164
C32   C     C_R   0.288224 0.737790 0.351160 -0.106359
H5    H     H_    0.505592 0.837011 0.223071 0.088307
H6    H     H_    0.407317 0.727363 0.046766 0.137447
H7    H     H_    0.232210 0.627810 0.063463 0.122322
H8    H     H_    0.157903 0.630573 0.258530 0.129120
H9    H     H_    0.254854 0.738882 0.435775 0.088997
C33   C     C_R   0.613544 0.204155 0.658800 0.229422
C34   C     C_R   0.713333 0.260710 0.648053 -0.118868
C35   C     C_R   0.767674 0.324861 0.746722 -0.142370
C36   C     C_R   0.724108 0.331417 0.856611 -0.149645
C37   C     C_R   0.624381 0.276567 0.867703 -0.140420
C38   C     C_R   0.568619 0.213866 0.769136 -0.047433
H10   H     H_    0.748160 0.255496 0.563393 0.090665
H11   H     H_    0.843850 0.369039 0.738035 0.129138
H12   H     H_    0.767308 0.378840 0.933590 0.127010
H13   H     H_    0.590305 0.282998 0.952729 0.139503
H14   H     H_    0.491935 0.170772 0.778490 0.089305
C39   C     C_R   0.577867 0.847162 0.747598 0.226339
C40   C     C_R   0.685379 0.815416 0.783937 -0.099851
C41   C     C_R   0.712935 0.819547 0.902867 -0.160163
C42   C     C_R   0.632048 0.852140 0.984900 -0.124728
C43   C     C_R   0.522288 0.876455 0.947907 -0.179633
C44   C     C_R   0.495301 0.874709 0.829683 -0.130798
H15   H     H_    0.749567 0.793731 0.721312 0.096922
H16   H     H_    0.798053 0.800692 0.931661 0.154592
H17   H     H_    0.654556 0.860534 0.077335 0.129069
H18   H     H_    0.459789 0.901557 0.011478 0.157377
H19   H     H_    0.412611 0.901294 0.803144 0.114744
C45   C     C_R   0.419008 0.149473 0.254610 0.214871
C46   C     C_R   0.507051 0.126217 0.177929 -0.137686
C47   C     C_R   0.486875 0.126496 0.059137 -0.177467
C48   C     C_R   0.378326 0.148203 0.015979 -0.111731
C49   C     C_R   0.291737 0.176277 0.092580 -0.148714
C50   C     C_R   0.312447 0.178723 0.212137 -0.119666
H20   H     H_    0.589440 0.102452 0.209077 0.113175
H21   H     H_    0.553951 0.105271 0.999742 0.154616
H22   H     H_    0.361185 0.141732 0.922993 0.124869
H23   H     H_    0.207870 0.194018 0.059060 0.150497
H24   H     H_    0.244287 0.199247 0.270170 0.092149
O9    O     O_3   0.303313 0.978407 0.311905 -0.612356
C51   C     C_3   0.201637 0.022808 0.357990 0.062734
H25   H     H_    0.143475 0.033995 0.283101 0.159763
H26   H     H_    0.214861 0.100532 0.417389 0.117117
C52   C     C_3   0.141725 0.949791 0.422639 -0.332572
H27   H     H_    0.118503 0.875931 0.360579 0.221962
H28   H     H_    0.200241 0.933619 0.494895 0.212474
C53   C     C_3   0.032768 0.996418 0.473605 -0.991884
H29   H     H_    0.052992 0.069318 0.538730 0.253076
H30   H     H_    0.990940 0.940389 0.517849 0.249065
H31   H     H_    0.972359 0.012780 0.402958 0.255968
O10   O     O_3   0.678549 0.024917 0.709931 -0.586705
C54   C     C_3   0.787268 0.007914 0.663550 0.100102
H32   H     H_    0.807653 0.071017 0.617545 0.131578
H33   H     H_    0.791411 0.933181 0.598730 0.074160
C55   C     C_3   0.881150 0.007080 0.761536 -0.356598
H34   H     H_    0.894317 0.926448 0.773212 0.185798
H35   H     H_    0.963130 0.035038 0.734603 0.168765
C56   C     C_3   0.855130 0.073645 0.879775 -0.708925
H36   H     H_    0.835484 0.153514 0.870549 0.254564
H37   H     H_    0.930511 0.076532 0.942772 0.204173
H38   H     H_    0.781195 0.040257 0.915727 0.270742
C57   C     C_R   0.257663 0.383753 0.963550 0.094347
C58   C     C_R   0.261545 0.307331 0.860503 -0.165019
C59   C     C_R   0.161562 0.258426 0.803567 -0.142391
C60   C     C_R   0.056399 0.284253 0.849501 -0.127673
C61   C     C_R   0.051015 0.358516 0.952895 -0.141539
C62   C     C_R   0.151034 0.407879 0.009983 -0.175613
H39   H     H_    0.342242 0.285087 0.824298 0.116243
H40   H     H_    0.165752 0.200124 0.724082 0.120903
H41   H     H_    0.979523 0.246158 0.804812 0.133819
H42   H     H_    0.969517 0.377701 0.989205 0.129103
H43   H     H_    0.145006 0.464774 0.090256 0.118872
C63   C     C_R   0.743986 0.616039 0.035122 0.098047
C64   C     C_R   0.849140 0.592936 0.984661 -0.181959
C65   C     C_R   0.949961 0.644209 0.036837 -0.142849
C66   C     C_R   0.947253 0.719658 0.139463 -0.119871
C67   C     C_R   0.843879 0.743389 0.190648 -0.147126
C68   C     C_R   0.742822 0.692415 0.138616 -0.165625
H44   H     H_    0.853326 0.536329 0.903906 0.118838
H45   H     H_    0.029907 0.626312 0.996579 0.130977
H46   H     H_    0.024914 0.760711 0.178552 0.133571
H47   H     H_    0.841683 0.802597 0.269630 0.126619
H48   H     H_    0.663190 0.714860 0.177514 0.117386

loop_
_geom_bond_atom_site_label_1
_geom_bond_atom_site_label_2
_ccdc_geom_bond_type
C28   H5    S    
C34   C35   A    
C18   C21   A    
C51   H26   S    
C59   C60   A    
O9    C51   S    
C66   H46   S    
C66   C67   A    
C46   C47   A    
Cu1   N1    S    
C56   H37   S    
C21   C45   S    
C38   H14   S    
C8    H1    S    
C46   H20   S    
C19   C21   A    
C24   C26   A    
C19   O9    S    
C43   C44   A    
C60   H41   S    
C55   H35   S    
C20   C25   A    
Cu2   O6    S    
Cu1   O4    S    
C15   C16   S    
Cu2   O7    S    
C35   C36   A    
C55   C56   S    
C41   H16   S    
C65   H45   S    
C19   C26   A    
C58   C59   A    
C12   O8    A    
C30   C31   A    
C68   H48   S    
C40   H15   S    
Cu1   O5    S    
C42   C43   A    
C11   O7    A    
C59   H40   S    
C27   C32   A    
C50   H24   S    
C1    O3    A    
C5    H4    S    
C6    H3    S    
Cu2   N2    S    
C7    H2    S    
C34   H10   S    
C2    C17   S    
C53   H29   S    
C47   H21   S    
C60   C61   A    
C33   C38   A    
C32   H9    S    
C56   H38   S    
C17   C24   A    
C18   C23   A    
C36   H12   S    
C45   C46   A    
C4    C6    A    
C52   H27   S    
C47   C48   A    
C53   H31   S    
Cu1   O1    S    
C42   H17   S    
C29   C30   A    
C30   H7    S    
C41   C42   A    
C12   O6    A    
C11   O5    A    
C27   C28   A    
C22   C39   S    
C49   H23   S    
C52   H28   S    
C2    O4    A    
C31   C32   A    
C51   C52   S    
C5    N2    A    
C1    C18   S    
C43   H18   S    
C53   H30   S    
C64   C65   A    
C57   C62   A    
C54   H33   S    
C12   C14   S    
O10   C54   S    
C13   C15   T    
C7    N2    A    
C14   C16   T    
C48   C49   A    
C37   C38   A    
Cu1   Cu2   S    
C63   C64   A    
C1    O1    A    
C23   C33   S    
C61   C62   A    
C9    C10   A    
C2    O2    A    
C37   H13   S    
C7    C9    A    
C33   C34   A    
C63   C68   A    
C28   C29   A    
C62   H43   S    
C20   C22   A    
C49   C50   A    
C3    C5    A    
C45   C50   A    
C31   H8    S    
C56   H36   S    
C17   C22   A    
C6    N1    A    
C25   C26   A    
C64   H44   S    
C3    C10   A    
C54   H32   S    
C52   C53   S    
C29   H6    S    
C11   C13   S    
Cu1   O8    S    
C36   C37   A    
C48   H22   S    
Cu2   O3    S    
C3    C57   S    
C67   H47   S    
C40   C41   A    
C8    N1    A    
C23   C25   A    
C55   H34   S    
C61   H42   S    
C54   C55   S    
C20   O10   S    
C51   H25   S    
Cu2   O2    S    
C8    C10   A    
C39   C40   A    
C44   H19   S    
C65   C66   A    
C24   C27   S    
C35   H11   S    
C4    C63   S    
C4    C9    A    
C57   C58   A    
C58   H39   S    
C39   C44   A    
C67   C68   A    
