data_mof_unit_68097.cif
_audit_creation_date              2013-03-05T15:58:24-0500
_audit_creation_method            fapswitch 2.2
_symmetry_space_group_name_H-M    P1
_symmetry_Int_Tables_number       1
_space_group_crystal_system       monoclinic
_cell_length_a                    7.643025
_cell_length_b                    15.204917
_cell_length_c                    16.096262
_cell_angle_alpha                 90.0
_cell_angle_beta                  90.0
_cell_angle_gamma                 90.091321
_cell_volume                      1870.56935336

loop_
_atom_site_label
_atom_site_type_symbol
_atom_site_description
_atom_site_fract_x
_atom_site_fract_y
_atom_site_fract_z
_atom_type_partial_charge
O1    O     O_R   0.388780 0.834790 0.412340 -0.500063
O2    O     O_R   0.111220 0.165210 0.912340 -0.500063
O3    O     O_R   0.888780 0.665210 0.587660 -0.499901
O4    O     O_R   0.611220 0.334790 0.087660 -0.499900
O5    O     O_R   0.059040 0.845930 0.587040 -0.537209
O6    O     O_R   0.440960 0.154070 0.087040 -0.537209
O7    O     O_R   0.559040 0.654070 0.412960 -0.539554
O8    O     O_R   0.940960 0.345930 0.912960 -0.539554
C1    C     C_R   0.225863 0.862229 0.618578 1.090277
C2    C     C_R   0.274137 0.137771 0.118578 1.090280
C3    C     C_R   0.725280 0.637687 0.381662 1.085787
C4    C     C_R   0.774720 0.362313 0.881662 1.085787
O9    O     O_R   0.059070 0.845930 0.412970 -0.574523
O10   O     O_R   0.440930 0.154070 0.912970 -0.574523
O11   O     O_R   0.559070 0.654070 0.587030 -0.571157
O12   O     O_R   0.940930 0.345930 0.087030 -0.571157
O13   O     O_R   0.888760 0.665210 0.412340 -0.579649
O14   O     O_R   0.611240 0.334790 0.912340 -0.579649
O15   O     O_R   0.388760 0.834790 0.587660 -0.580431
O16   O     O_R   0.111240 0.165210 0.087660 -0.580430
C5    C     C_R   0.229309 0.870803 0.388628 1.073948
C6    C     C_R   0.270691 0.129197 0.888628 1.073949
C7    C     C_R   0.729580 0.628154 0.610500 1.059337
C8    C     C_R   0.770420 0.371846 0.110500 1.059337
O17   O     O_3   0.222280 0.690700 0.500000 -0.284468
O18   O     O_3   0.277720 0.309300 0.000000 -0.284468
O19   O     O_3   0.722280 0.809300 0.500000 -0.285112
O20   O     O_3   0.777720 0.190700 0.000000 -0.285112
V1    V     V_3+5 0.947430 0.761000 0.500000 1.392988
V2    V     V_3+5 0.552570 0.239000 0.000000 1.392988
V3    V     V_3+5 0.447430 0.739000 0.500000 1.391136
V4    V     V_3+5 0.052570 0.261000 0.000000 1.391136
C9    C     C_3   0.891130 0.570460 0.745677 0.399972
C10   C     C_3   0.608870 0.429540 0.245677 0.399972
C11   C     C_3   0.386991 0.927595 0.252554 0.408742
C12   C     C_3   0.113009 0.072405 0.752554 0.408741
H1    H     H_    0.841634 0.625526 0.784264 0.132602
H2    H     H_    0.658366 0.374474 0.284264 0.132602
H3    H     H_    0.336296 0.871075 0.216147 0.117338
H4    H     H_    0.163704 0.128925 0.716147 0.117340
C13   C     C_3   0.924809 0.489073 0.802650 -0.438304
C14   C     C_3   0.575191 0.510927 0.302650 -0.438303
C15   C     C_3   0.416611 0.007181 0.192696 -0.439467
C16   C     C_3   0.083389 0.992819 0.692696 -0.439465
H5    H     H_    0.965381 0.512093 0.863327 0.238329
H6    H     H_    0.534619 0.487907 0.363327 0.238328
H7    H     H_    0.438396 0.980039 0.130400 0.251722
H8    H     H_    0.061604 0.019960 0.630401 0.251724
H9    H     H_    0.043866 0.453082 0.784706 0.280043
H10   H     H_    0.456134 0.546918 0.284707 0.280044
H11   H     H_    0.539845 0.043000 0.204945 0.278449
H12   H     H_    0.960155 0.957000 0.704945 0.278448
C17   C     C_3   0.780826 0.451519 0.640734 0.309955
C18   C     C_3   0.719174 0.548481 0.140734 0.309956
C19   C     C_3   0.283175 0.045865 0.359399 0.337486
C20   C     C_3   0.216825 0.954135 0.859399 0.337483
C21   C     C_3   0.574092 0.538528 0.726504 0.058806
C22   C     C_3   0.925908 0.461472 0.226504 0.058806
C23   C     C_3   0.070250 0.961757 0.274552 0.044959
C24   C     C_3   0.429750 0.038242 0.774552 0.044960
C25   C     C_3   0.748183 0.549140 0.676232 -0.513840
C26   C     C_3   0.751817 0.450860 0.176232 -0.513841
C27   C     C_3   0.246625 0.949511 0.323005 -0.536632
C28   C     C_3   0.253375 0.050489 0.823005 -0.536631
H13   H     H_    0.528890 0.605335 0.744357 0.183903
H14   H     H_    0.971110 0.394665 0.244357 0.183903
H15   H     H_    0.022504 0.895317 0.256833 0.181583
H16   H     H_    0.477496 0.104683 0.756833 0.181581
C29   C     C_3   0.772533 0.423342 0.801732 -0.310765
C30   C     C_3   0.727467 0.576658 0.301732 -0.310765
C31   C     C_3   0.269937 0.075394 0.197797 -0.317461
C32   C     C_3   0.230063 0.924606 0.697797 -0.317460
C33   C     C_3   0.791058 0.375546 0.710513 0.458645
C34   C     C_3   0.708942 0.624454 0.210513 0.458644
C35   C     C_3   0.292207 0.122117 0.289737 0.446705
C36   C     C_3   0.207793 0.877883 0.789737 0.446706
C37   C     C_3   0.606839 0.484137 0.807645 -0.360047
C38   C     C_3   0.893161 0.515863 0.307645 -0.360047
C39   C     C_3   0.100825 0.016623 0.193353 -0.352657
C40   C     C_3   0.399175 0.983377 0.693353 -0.352659
H17   H     H_    0.626059 0.532759 0.858036 0.240021
H18   H     H_    0.873941 0.467241 0.358036 0.240021
H19   H     H_    0.113321 0.968198 0.142412 0.213804
H20   H     H_    0.386679 0.031802 0.642412 0.213798
H21   H     H_    0.489459 0.448545 0.829691 0.274165
H22   H     H_    0.010540 0.551454 0.329691 0.274165
H23   H     H_    0.984581 0.054105 0.173126 0.275579
H24   H     H_    0.515419 0.945895 0.673126 0.275579
H25   H     H_    0.657743 0.430971 0.616975 0.135617
H26   H     H_    0.842257 0.569029 0.116975 0.135616
H27   H     H_    0.161548 0.066708 0.385675 0.159482
H28   H     H_    0.338452 0.933292 0.885675 0.159480
S1    S     S_3+6 0.102389 0.598952 0.711426 0.055717
O21   O     O_2   0.228364 0.581281 0.781133 -0.283190
O22   O     O_2   0.126572 0.538983 0.640216 -0.168483
O23   O     O_3   0.142384 0.699879 0.678389 -0.474596
H29   H     H_    0.262529 0.695147 0.656322 0.369707
S2    S     S_3+6 0.397611 0.401048 0.211426 0.055717
O24   O     O_2   0.271636 0.418719 0.281133 -0.283190
O25   O     O_2   0.373428 0.461017 0.140216 -0.168483
O26   O     O_3   0.357616 0.300121 0.178389 -0.474596
H30   H     H_    0.237470 0.304853 0.156322 0.369707
S3    S     S_3+6 0.600674 0.901367 0.285741 0.056279
O27   O     O_2   0.725590 0.919072 0.215540 -0.279683
O28   O     O_2   0.625023 0.963140 0.355271 -0.175998
O29   O     O_3   0.644450 0.801603 0.321135 -0.474411
H31   H     H_    0.764484 0.807678 0.343099 0.369594
S4    S     S_3+6 0.899326 0.098632 0.785741 0.056279
O30   O     O_2   0.774410 0.080928 0.715540 -0.279685
O31   O     O_2   0.874977 0.036860 0.855271 -0.175998
O32   O     O_3   0.855550 0.198397 0.821135 -0.474411
H32   H     H_    0.735516 0.192322 0.843099 0.369594
N1    N     N_R   0.645724 0.311031 0.698747 0.245673
O33   O     O_R   0.620157 0.274478 0.626533 -0.298720
O34   O     O_R   0.539863 0.289697 0.758631 -0.405128
N2    N     N_R   0.854275 0.688969 0.198747 0.245673
O35   O     O_R   0.879843 0.725522 0.126533 -0.298708
O36   O     O_R   0.960137 0.710303 0.258631 -0.405127
N3    N     N_R   0.146813 0.186273 0.302497 0.249217
O37   O     O_R   0.121262 0.221975 0.375054 -0.252499
O38   O     O_R   0.043453 0.209934 0.242451 -0.401770
N4    N     N_R   0.353186 0.813727 0.802497 0.249217
O39   O     O_R   0.378738 0.778025 0.875054 -0.252506
O40   O     O_R   0.456547 0.790066 0.742451 -0.401770
S5    S     S_3+6 0.848830 0.437663 0.533668 0.038130
O41   O     O_2   0.002720 0.491841 0.506618 -0.180001
O42   O     O_2   0.880611 0.342932 0.511375 -0.178918
O43   O     O_3   0.676045 0.470709 0.479672 -0.622858
H33   H     H_    0.596415 0.419082 0.479169 0.390053
S6    S     S_3+6 0.651170 0.562337 0.033668 0.038130
O44   O     O_2   0.497280 0.508159 0.006618 -0.180001
O45   O     O_2   0.619389 0.657068 0.011375 -0.178919
O46   O     O_3   0.823955 0.529291 0.979672 -0.622858
H34   H     H_    0.903585 0.580918 0.979170 0.390054
S7    S     S_3+6 0.354709 0.056706 0.466533 0.039904
O47   O     O_2   0.219948 0.007701 0.514847 -0.424837
O48   O     O_2   0.529524 0.018880 0.489077 -0.156226
O49   O     O_3   0.349879 0.162848 0.496251 -0.413099
H35   H     H_    0.319056 0.161852 0.556004 0.366752
S8    S     S_3+6 0.145291 0.943295 0.966533 0.039904
O50   O     O_2   0.280052 0.992299 0.014847 -0.424847
O51   O     O_2   0.970476 0.981120 0.989077 -0.156218
O52   O     O_3   0.150120 0.837152 0.996251 -0.413099
H36   H     H_    0.180986 0.838147 0.056000 0.366750
S9    S     S_3+6 0.995781 0.314099 0.691447 0.057700
O53   O     O_2   0.100962 0.299019 0.768955 -0.273682
O54   O     O_2   0.949499 0.227199 0.653125 -0.209162
O55   O     O_3   0.127940 0.362296 0.622046 -0.369373
H37   H     H_    0.207730 0.315326 0.602509 0.402973
S10   S     S_3+6 0.504219 0.685901 0.191447 0.057697
O56   O     O_2   0.399038 0.700981 0.268955 -0.273682
O57   O     O_2   0.550501 0.772801 0.153125 -0.209169
O58   O     O_3   0.372060 0.637704 0.122046 -0.369374
H38   H     H_    0.292270 0.684673 0.102510 0.402971
S11   S     S_3+6 0.495919 0.184288 0.308125 0.072419
O59   O     O_2   0.603221 0.196544 0.230826 -0.267960
O60   O     O_2   0.447148 0.272507 0.342604 -0.216047
O61   O     O_3   0.626086 0.141057 0.380944 -0.354112
H39   H     H_    0.703039 0.189808 0.399452 0.416359
S12   S     S_3+6 0.004081 0.815711 0.808125 0.072420
O62   O     O_2   0.896778 0.803456 0.730827 -0.267960
O63   O     O_2   0.052852 0.727493 0.842604 -0.216047
O64   O     O_3   0.873914 0.858943 0.880945 -0.354110
H40   H     H_    0.796961 0.810192 0.899452 0.416359
N5    N     N_R   0.436144 0.495362 0.677226 0.293508
O65   O     O_R   0.419897 0.509885 0.597708 -0.302297
O66   O     O_R   0.353216 0.428552 0.708218 -0.282647
N6    N     N_R   0.063856 0.504637 0.177226 0.293508
O67   O     O_R   0.080103 0.490115 0.097708 -0.302297
O68   O     O_R   0.146784 0.571448 0.208218 -0.282647
N7    N     N_R   0.935441 0.005455 0.325423 0.291830
O69   O     O_R   0.918926 0.989369 0.404690 -0.276801
O70   O     O_R   0.853826 0.073290 0.295920 -0.273451
N8    N     N_R   0.564559 0.994545 0.825423 0.291830
O71   O     O_R   0.581074 0.010631 0.904690 -0.276801
O72   O     O_R   0.646174 0.926709 0.795920 -0.273451

loop_
_geom_bond_atom_site_label_1
_geom_bond_atom_site_label_2
_geom_bond_distance
_ccdc_geom_bond_type
O17   V3    1.869908 S    
S7    O49   1.683746 S    
C39   H19   1.106260 S    
N7    O69   1.305204 A    
O1    C5    1.390400 A    
N5    O65   1.304804 A    
C20   C36   1.614318 S    
C12   S4    1.764583 S    
O13   V1    2.076355 S    
C29   C37   1.571959 S    
O3    C7    1.389593 A    
O32   H32   0.987377 S    
C10   C14   1.561935 S    
S8    O52   1.683747 S    
C10   C26   1.595970 S    
C32   C36   1.650264 S    
O15   V3    2.077355 S    
O43   H33   0.992548 S    
C31   C39   1.571810 S    
S9    O53   1.501967 D    
C3    C30   1.586391 S    
S7    O47   1.489425 D    
N2    O35   1.303010 A    
O7    C3    1.389690 A    
N7    O70   1.296355 A    
S1    O21   1.502989 D    
O9    V1    2.086756 S    
C30   C38   1.571959 S    
S8    O51   1.500028 D    
C18   H26   1.062026 S    
C11   S3    1.764583 S    
C30   C34   1.644491 S    
O4    C8    1.389593 A    
C19   S7    1.816470 S    
S11   O60   1.499258 D    
O29   H31   0.987376 S    
O52   H36   0.990346 S    
O1    V3    2.077324 S    
C33   N1    1.492826 S    
S4    O30   1.503332 D    
O2    V4    2.077325 S    
C14   H6    1.082681 S    
C13   H9    1.101142 S    
O3    V1    2.076321 S    
N8    O71   1.305206 A    
C19   H27   1.069770 S    
C23   H15   1.110804 S    
C18   C34   1.613174 S    
C17   C25   1.610314 S    
C22   H14   1.111262 S    
C36   S12   1.844105 S    
O64   H40   0.991333 S    
C2    O16   1.404811 A    
S10   O58   1.674183 S    
C19   C27   1.601966 S    
O2    C6    1.390401 A    
S5    O43   1.659498 S    
C15   C31   1.530652 S    
C20   C28   1.601966 S    
C29   C33   1.644490 S    
S6    O45   1.504504 D    
O14   V2    2.076354 S    
C11   C15   1.563030 S    
C40   H20   1.106259 S    
C19   C35   1.614317 S    
C2    C31   1.589465 S    
C38   H22   1.105478 S    
O11   C7    1.413501 A    
C37   H21   1.105478 S    
O12   C8    1.413501 A    
C40   H24   1.105345 S    
S11   O61   1.672664 S    
N5    O66   1.296334 A    
O10   V2    2.086757 S    
C23   N7    1.475039 S    
C39   H23   1.105344 S    
S9    O54   1.499984 D    
C1    O15   1.404811 A    
O5    V1    2.086769 S    
N3    O38   1.299449 A    
C18   S6    1.812430 S    
O7    V3    2.088453 S    
O8    V4    2.088452 S    
O26   H30   0.987310 S    
C21   C37   1.566229 S    
C12   H4    1.109510 S    
C35   N3    1.494013 S    
O55   H37   0.991065 S    
N2    O36   1.299292 A    
C23   C39   1.567856 S    
O18   V4    1.869908 S    
C1    C32   1.589465 S    
C18   C26   1.610314 S    
C9    H1    1.109465 S    
C33   S9    1.849341 S    
S12   O63   1.499257 D    
C11   H3    1.109511 S    
S12   O64   1.672664 S    
C14   C30   1.532944 S    
O5    C1    1.394212 A    
O46   H34   0.992546 S    
C38   H18   1.107110 S    
C9    S1    1.759686 S    
C37   H17   1.107112 S    
O8    C4    1.389690 A    
C34   N2    1.492826 S    
O23   H29   0.987311 S    
O9    C5    1.409943 A    
S3    O28   1.472689 D    
S8    O50   1.489425 D    
O11   V3    2.088438 S    
C17   S5    1.812430 S    
C22   C26   1.565439 S    
C14   H10   1.101142 S    
C9    C25   1.595970 S    
N6    O67   1.304803 A    
O6    V2    2.086770 S    
C4    C29   1.586392 S    
S1    O23   1.652184 S    
S2    O25   1.476461 D    
C17   H25   1.062026 S    
O61   H39   0.991333 S    
S10   O57   1.499983 D    
C12   C16   1.563029 S    
S6    O46   1.659497 S    
N4    O40   1.299449 A    
S11   O59   1.501633 D    
S9    O55   1.674183 S    
C22   N6    1.472867 S    
C13   C29   1.532943 S    
N1    O33   1.303008 A    
O16   V4    2.077357 S    
S7    O48   1.500029 D    
C24   C40   1.567855 S    
C8    C26   1.607340 S    
C10   H2    1.109465 S    
C17   C33   1.613174 S    
C21   H13   1.111261 S    
C3    O13   1.406596 A    
O6    C2    1.394211 A    
N3    O37   1.302745 A    
C21   C25   1.565439 S    
C24   N8    1.475038 S    
O12   V4    2.088438 S    
S2    O26   1.652184 S    
C23   C27   1.568736 S    
S4    O32   1.655046 S    
C24   C28   1.568737 S    
C9    C13   1.561935 S    
S12   O62   1.501632 D    
O10   C6    1.409943 A    
O20   V2    1.872061 S    
S6    O44   1.499500 D    
O58   H38   0.991065 S    
C36   N4    1.494012 S    
C32   C40   1.571810 S    
C31   C35   1.650265 S    
C16   H12   1.104983 S    
S5    O41   1.499501 D    
O19   V1    1.872061 S    
C15   H11   1.104983 S    
C20   S8    1.816471 S    
N6    O68   1.296334 A    
C10   S2    1.759686 S    
S4    O31   1.472689 D    
C16   C32   1.530652 S    
S3    O29   1.655046 S    
N8    O72   1.296355 A    
C5    C27   1.601552 S    
O49   H35   0.990349 S    
C22   C38   1.566231 S    
C6    C28   1.601551 S    
C35   S11   1.844105 S    
C7    C25   1.607340 S    
C21   N5    1.472868 S    
C24   H16   1.110804 S    
S1    O22   1.476461 D    
S2    O24   1.502989 D    
C4    O14   1.406596 A    
S3    O27   1.503330 D    
S5    O42   1.504503 D    
C13   H5    1.082680 S    
S10   O56   1.501967 D    
C34   S10   1.849341 S    
C11   C27   1.596571 S    
N4    O39   1.302747 A    
C12   C28   1.596571 S    
C20   H28   1.069770 S    
C15   H7    1.097138 S    
O4    V2    2.076320 S    
C16   H8    1.097135 S    
N1    O34   1.299291 A    
