data_mof_unit_47515.cif
_audit_creation_date              2012-12-10T16:42:56-0500
_audit_creation_method            fapswitch 2.2
_symmetry_space_group_name_H-M    P1
_symmetry_Int_Tables_number       1
_space_group_crystal_system       triclinic
_cell_length_a                    7.457731
_cell_length_b                    8.68302
_cell_length_c                    13.000672
_cell_angle_alpha                 88.025941
_cell_angle_beta                  79.592786
_cell_angle_gamma                 102.773664
_cell_volume                      805.092445053

loop_
_atom_site_label
_atom_site_type_symbol
_atom_type_description
_atom_site_fract_x
_atom_site_fract_y
_atom_site_fract_z
_atom_type_partial_charge
C1    C     C_R   0.452822 0.199720 0.503238 0.888684
C2    C     C_R   0.547170 0.800274 0.496837 0.867052
C3    C     C_R   0.467690 0.499089 0.700817 0.788810
C4    C     C_R   0.532362 0.502742 0.298977 0.850735
C5    C     C_R   0.549121 0.510815 0.185820 -0.078240
C6    C     C_R   0.449490 0.494751 0.813785 -0.137767
C7    C     C_R   0.269230 0.379445 0.982702 -0.203879
C8    C     C_R   0.730403 0.620885 0.016105 -0.151029
C9    C     C_R   0.287638 0.398031 0.875128 -0.226826
C10   C     C_R   0.715766 0.598278 0.123299 -0.320609
C11   C     C_R   0.595022 0.577053 0.860753 0.347602
C12   C     C_R   0.396212 0.440434 0.140855 0.346794
C13   C     C_R   0.580377 0.551976 0.969049 0.089221
C14   C     C_R   0.413384 0.457194 0.031345 -0.001270
C15   C     C_2   0.426237 0.031876 0.504799 -0.353103
C16   C     C_2   0.573747 0.968107 0.495375 -0.363617
Cu1   Cu    Cu3+1 0.686350 0.517570 0.488220 0.969101
Cu2   Cu    Cu3+1 0.313650 0.482430 0.511780 0.987470
H1    H     H_    0.833284 0.654094 0.157859 0.181962
H2    H     H_    0.176309 0.332877 0.839395 0.178555
H3    H     H_    0.143541 0.300017 0.026159 0.168782
H4    H     H_    0.860132 0.692022 0.970387 0.204386
H5    H     H_    0.934214 0.376862 0.582950 0.228610
H6    H     H_    0.065784 0.623101 0.417025 0.226189
H7    H     H_    0.283996 0.960413 0.513682 0.184114
H8    H     H_    0.715986 0.039566 0.486504 0.185185
N1    N     N_2   0.033570 0.455950 0.529530 -0.203008
N2    N     N_2   0.966430 0.544050 0.470470 -0.207113
O1    O     O_R   0.621060 0.286250 0.492350 -0.585643
O2    O     O_R   0.378940 0.713750 0.507650 -0.585502
O3    O     O_R   0.306310 0.256580 0.512240 -0.579973
O4    O     O_R   0.693690 0.743420 0.487760 -0.590270
O5    O     O_R   0.631800 0.512400 0.642670 -0.574967
O6    O     O_R   0.368200 0.487600 0.357330 -0.544480
O7    O     O_R   0.317060 0.482730 0.662570 -0.579489
O8    O     O_R   0.682940 0.517270 0.337430 -0.599652
O9    O     O_3   0.234777 0.353412 0.205081 -0.718699
H9    H     H_    0.126227 0.381977 0.181750 0.319515
O10   O     O_3   0.750754 0.682810 0.803657 -0.736708
H10   H     H_    0.712697 0.735185 0.744962 0.329075

loop_
_geom_bond_atom_site_label_1
_geom_bond_atom_site_label_2
_ccdc_geom_bond_type
C8    H4    S    
C4    O8    A    
O9    H9    S    
C1    C15   S    
Cu1   O8    S    
H5    N1    S    
Cu1   O1    S    
Cu2   O7    S    
C9    H2    S    
C3    O7    A    
C10   H1    S    
C2    O2    A    
C3    C6    S    
C6    C9    A    
C1    O1    A    
Cu1   Cu2   S    
C5    C10   A    
C13   C14   A    
C11   O10   S    
C11   C13   A    
C6    C11   A    
C8    C13   A    
Cu1   O5    S    
Cu2   O2    S    
C8    C10   A    
C12   C14   A    
Cu2   O6    S    
C16   H8    S    
C4    O6    A    
C15   H7    S    
C3    O5    A    
C15   C16   D    
C1    O3    A    
C2    C16   S    
C5    C12   A    
C2    O4    A    
C12   O9    S    
O10   H10   S    
C7    C9    A    
Cu1   O4    S    
Cu2   O3    S    
C7    H3    S    
Cu1   N2    S    
C7    C14   A    
Cu2   N1    S    
H6    N2    S    
C4    C5    S    
N1    N2    D    
