data_mof_unit_11593.cif
_audit_creation_date              2012-12-10T18:25:28-0500
_audit_creation_method            fapswitch 2.2
_symmetry_space_group_name_H-M    P1
_symmetry_Int_Tables_number       1
_space_group_crystal_system       triclinic
_cell_length_a                    25.938164
_cell_length_b                    26.305365
_cell_length_c                    18.272884
_cell_angle_alpha                 89.65875
_cell_angle_beta                  135.1737
_cell_angle_gamma                 90.424934
_cell_volume                      8789.06922203

loop_
_atom_site_label
_atom_site_type_symbol
_atom_type_description
_atom_site_fract_x
_atom_site_fract_y
_atom_site_fract_z
_atom_type_partial_charge
C1    C     C_R   0.107880 0.249744 0.498527 0.770398
C2    C     C_R   0.108669 0.749629 0.499996 0.759860
C3    C     C_R   0.608209 0.750059 0.499156 0.770606
C4    C     C_R   0.609293 0.248940 0.501322 0.753267
C5    C     C_3   0.523582 0.276072 0.943752 -0.151093
C6    C     C_3   0.528545 0.732343 0.944366 -0.156582
C7    C     C_3   0.024494 0.775054 0.943951 -0.154628
C8    C     C_3   0.029198 0.235778 0.944445 -0.172378
C9    C     C_3   0.450651 0.250415 0.898710 0.088581
C10   C     C_3   0.452666 0.752519 0.897856 0.092557
C11   C     C_3   0.951138 0.749987 0.898769 0.086285
C12   C     C_3   0.952224 0.252532 0.897888 0.095220
C13   C     C_3   0.552417 0.248803 0.103083 0.120299
C14   C     C_3   0.552861 0.751065 0.102541 0.127635
C15   C     C_3   0.052750 0.748407 0.103178 0.120394
C16   C     C_3   0.052570 0.251426 0.102574 0.126728
C17   C     C_3   0.481903 0.274453 0.062398 -0.200900
C18   C     C_3   0.485235 0.719341 0.059195 -0.206087
C19   C     C_3   0.982028 0.773487 0.062494 -0.202437
C20   C     C_3   0.986228 0.218012 0.059463 -0.199754
C21   C     C_3   0.580283 0.278056 0.062909 -0.432397
C22   C     C_3   0.583537 0.726656 0.062792 -0.438992
C23   C     C_3   0.080189 0.778338 0.062878 -0.435914
C24   C     C_3   0.084194 0.229285 0.062726 -0.440444
C25   C     C_3   0.525009 0.249786 0.616353 -0.158715
C26   C     C_3   0.526538 0.766225 0.616181 -0.167724
C27   C     C_3   0.025568 0.750724 0.615750 -0.161882
C28   C     C_3   0.025678 0.266340 0.614693 -0.169539
C29   C     C_3   0.586249 0.254860 0.616936 -0.033877
C30   C     C_3   0.587635 0.758251 0.616401 -0.043524
C31   C     C_3   0.085730 0.758638 0.614919 -0.032628
C32   C     C_3   0.086697 0.258332 0.614892 -0.043414
C33   C     C_3   0.442645 0.296169 0.445900 -0.487822
C34   C     C_3   0.454929 0.700483 0.473365 -0.482521
C35   C     C_3   0.940569 0.795807 0.442227 -0.483857
C36   C     C_3   0.954777 0.200003 0.473235 -0.483312
C37   C     C_3   0.441162 0.198859 0.446092 -0.188689
C38   C     C_3   0.431517 0.795046 0.425488 -0.196151
C39   C     C_3   0.941725 0.698902 0.446966 -0.188713
C40   C     C_3   0.930398 0.294179 0.423379 -0.196958
C41   C     C_3   0.448506 0.248273 0.501332 0.062104
C42   C     C_3   0.449812 0.753911 0.503854 0.089841
C43   C     C_3   0.948402 0.748493 0.500816 0.060606
C44   C     C_3   0.949186 0.253556 0.502724 0.089924
C45   C     C_R   0.390011 0.250463 0.498664 0.772336
C46   C     C_R   0.391261 0.750922 0.501054 0.774627
C47   C     C_R   0.890296 0.750261 0.499137 0.772357
C48   C     C_R   0.890982 0.250709 0.500531 0.776902
C49   C     C_3   0.551068 0.247211 0.502141 -0.009593
C50   C     C_3   0.550111 0.752639 0.500074 -0.007295
C51   C     C_3   0.050406 0.748408 0.500511 -0.008276
C52   C     C_3   0.049417 0.252018 0.498826 -0.007927
C53   C     C_3   0.494908 0.291550 0.432278 -0.173355
C54   C     C_3   0.502748 0.702572 0.451983 -0.190843
C55   C     C_3   0.992507 0.791466 0.427737 -0.176735
C56   C     C_3   0.002637 0.201738 0.451877 -0.192409
C57   C     C_3   0.508505 0.194212 0.462436 -0.237749
C58   C     C_3   0.497235 0.800474 0.438253 -0.229324
C59   C     C_3   0.009173 0.695001 0.463662 -0.232389
C60   C     C_3   0.995806 0.299299 0.435429 -0.227353
C61   C     C_3   0.233165 0.029864 0.565567 -0.136492
C62   C     C_3   0.239958 0.969229 0.571386 -0.116353
C63   C     C_3   0.733942 0.529838 0.566576 -0.136211
C64   C     C_3   0.740897 0.469203 0.572551 -0.115651
C65   C     C_3   0.318970 0.027879 0.543926 -0.233314
C66   C     C_3   0.313150 0.969682 0.525941 -0.232157
C67   C     C_3   0.818970 0.527864 0.543512 -0.233570
C68   C     C_3   0.813020 0.469674 0.525352 -0.232781
C69   C     C_3   0.174438 0.033072 0.370171 0.181574
C70   C     C_3   0.168644 0.969527 0.367936 0.149985
C71   C     C_3   0.674246 0.533115 0.370655 0.181563
C72   C     C_3   0.668440 0.469592 0.368596 0.150206
C73   C     C_3   0.242627 0.051359 0.492136 -0.028414
C74   C     C_3   0.239844 0.948836 0.487186 -0.059521
C75   C     C_3   0.742804 0.551361 0.492456 -0.028256
C76   C     C_3   0.740005 0.448839 0.487527 -0.059567
C77   C     C_3   0.255426 0.448325 0.513859 0.019192
C78   C     C_3   0.253307 0.551117 0.512903 -0.007716
C79   C     C_3   0.755568 0.948421 0.512919 0.018861
C80   C     C_3   0.755202 0.051264 0.514435 -0.008249
C81   C     C_3   0.257460 0.472360 0.436054 -0.148736
C82   C     C_3   0.237540 0.530138 0.416565 -0.163370
C83   C     C_3   0.746351 0.972514 0.424561 -0.154132
C84   C     C_3   0.725669 0.030011 0.408043 -0.158998
C85   C     C_3   0.182585 0.469370 0.478881 -0.117136
C86   C     C_3   0.186961 0.529011 0.494247 -0.109140
C87   C     C_3   0.689526 0.970621 0.495546 -0.125306
C88   C     C_3   0.698792 0.030104 0.517493 -0.104214
C89   C     C_R   0.251059 0.391019 0.503340 0.797034
C90   C     C_R   0.250434 0.608848 0.503977 0.766365
C91   C     C_R   0.750931 0.891089 0.502272 0.793849
C92   C     C_R   0.750867 0.108826 0.503250 0.765870
C93   C     C_3   0.330260 0.467869 0.630793 0.148560
C94   C     C_3   0.334002 0.531214 0.625565 0.161591
C95   C     C_3   0.835681 0.967402 0.624353 0.157809
C96   C     C_3   0.840118 0.030449 0.617029 0.162226
C97   C     C_R   0.249590 0.108859 0.499603 0.800059
C98   C     C_R   0.246456 0.891067 0.495746 0.776900
C99   C     C_R   0.749698 0.608859 0.499740 0.800184
C100  C     C_R   0.746502 0.391069 0.495825 0.777201
C101  C     C_R   0.109988 0.250879 0.218237 0.750870
C102  C     C_R   0.110274 0.748814 0.218275 0.758973
C103  C     C_R   0.610044 0.750790 0.218239 0.749744
C104  C     C_R   0.610108 0.248975 0.218235 0.756426
C105  C     C_R   0.392081 0.249548 0.782352 0.753460
C106  C     C_R   0.393554 0.752303 0.781676 0.740127
C107  C     C_R   0.892309 0.749331 0.782358 0.755654
C108  C     C_R   0.893498 0.252348 0.781666 0.741198
C109  C     C_3   0.470412 0.194751 0.940197 -0.410355
C110  C     C_3   0.470358 0.807889 0.940529 -0.427679
C111  C     C_3   0.970445 0.694287 0.940285 -0.406426
C112  C     C_3   0.965389 0.307412 0.940404 -0.417869
C113  C     C_3   0.534030 0.194024 0.059769 -0.423904
C114  C     C_3   0.529808 0.806515 0.060626 -0.414477
C115  C     C_3   0.034900 0.693540 0.059889 -0.421573
C116  C     C_3   0.027022 0.306714 0.060397 -0.416589
C117  C     C_3   0.424129 0.279277 0.941596 -0.214902
C118  C     C_3   0.424259 0.722411 0.937981 -0.200199
C119  C     C_3   0.925049 0.779139 0.942025 -0.217855
C120  C     C_3   0.926513 0.218737 0.938000 -0.196448
H1    H     H_    0.422160 0.175103 0.916080 0.217577
H2    H     H_    0.421238 0.827839 0.912015 0.215198
H3    H     H_    0.922242 0.675183 0.917179 0.217309
H4    H     H_    0.915054 0.323559 0.914363 0.217555
H5    H     H_    0.593037 0.317915 0.092088 0.192246
H6    H     H_    0.595913 0.685799 0.086051 0.185293
H7    H     H_    0.090446 0.818485 0.089720 0.191972
H8    H     H_    0.097743 0.188387 0.085260 0.187259
H9    H     H_    0.420608 0.320113 0.923397 0.132744
H10   H     H_    0.408716 0.683226 0.905728 0.111856
H11   H     H_    0.923328 0.819925 0.925513 0.136498
H12   H     H_    0.917384 0.179431 0.909296 0.103502
H13   H     H_    0.495998 0.313350 0.095932 0.107825
H14   H     H_    0.501910 0.678871 0.081778 0.114537
H15   H     H_    0.995738 0.812114 0.096986 0.107135
H16   H     H_    0.005122 0.178121 0.085561 0.110839
H17   H     H_    0.525811 0.285233 0.650458 0.173333
H18   H     H_    0.535308 0.737630 0.669490 0.171230
H19   H     H_    0.025320 0.785187 0.650736 0.174159
H20   H     H_    0.034767 0.237944 0.668523 0.171824
H21   H     H_    0.457506 0.330697 0.492654 0.170392
H22   H     H_    0.479890 0.673454 0.538071 0.185027
H23   H     H_    0.954442 0.830722 0.487169 0.170866
H24   H     H_    0.980421 0.173719 0.538963 0.187041
H25   H     H_    0.524814 0.328191 0.455399 0.146782
H26   H     H_    0.538777 0.668609 0.487456 0.157053
H27   H     H_    0.020835 0.828575 0.448014 0.145008
H28   H     H_    0.039023 0.167954 0.488217 0.158759
H29   H     H_    0.486315 0.172897 0.906777 0.159178
H30   H     H_    0.489905 0.831233 0.913037 0.167144
H31   H     H_    0.985346 0.671963 0.905965 0.160523
H32   H     H_    0.980793 0.333518 0.910210 0.167399
H33   H     H_    0.440639 0.165004 0.482357 0.137259
H34   H     H_    0.423324 0.832475 0.443969 0.144474
H35   H     H_    0.941857 0.665136 0.484066 0.136227
H36   H     H_    0.922165 0.331807 0.441227 0.144117
H37   H     H_    0.545519 0.165640 0.524795 0.118419
H38   H     H_    0.528434 0.834476 0.486982 0.133526
H39   H     H_    0.046893 0.668041 0.527882 0.112920
H40   H     H_    0.026735 0.333501 0.482967 0.135940
H41   H     H_    0.384816 0.302132 0.370307 0.173310
H42   H     H_    0.399293 0.684777 0.405948 0.170806
H43   H     H_    0.882466 0.800698 0.366634 0.172999
H44   H     H_    0.899352 0.183810 0.406432 0.172937
H45   H     H_    0.356268 0.031232 0.629035 0.136350
H46   H     H_    0.359838 0.952376 0.603034 0.134379
H47   H     H_    0.856562 0.531165 0.628692 0.136478
H48   H     H_    0.859971 0.452337 0.602249 0.134644
H49   H     H_    0.583038 0.176154 0.084108 0.169423
H50   H     H_    0.578870 0.827173 0.090071 0.173943
H51   H     H_    0.083881 0.676502 0.083007 0.173742
H52   H     H_    0.074548 0.328190 0.086677 0.176933
H53   H     H_    0.315398 0.475224 0.482557 0.145481
H54   H     H_    0.274086 0.549930 0.415261 0.144880
H55   H     H_    0.802264 0.975020 0.461569 0.146442
H56   H     H_    0.754572 0.050074 0.393203 0.144717
H57   H     H_    0.140687 0.463906 0.393690 0.160564
H58   H     H_    0.136065 0.543936 0.418304 0.158229
H59   H     H_    0.642054 0.966775 0.410622 0.163403
H60   H     H_    0.645065 0.045938 0.448284 0.150328
H61   H     H_    0.517866 0.170651 0.091372 0.206204
H62   H     H_    0.509053 0.826023 0.089349 0.208400
H63   H     H_    0.019980 0.669288 0.092493 0.198131
H64   H     H_    0.007808 0.325957 0.091520 0.208301
H65   H     H_    0.545808 0.252470 0.921103 0.144961
H66   H     H_    0.550707 0.762147 0.929075 0.135431
H67   H     H_    0.047340 0.750164 0.923677 0.144527
H68   H     H_    0.049650 0.267216 0.929272 0.136499
H69   H     H_    0.632437 0.261245 0.095586 0.182665
H70   H     H_    0.636081 0.745299 0.099798 0.178604
H71   H     H_    0.133422 0.762830 0.097297 0.184346
H72   H     H_    0.136205 0.249049 0.100271 0.177569
O1    O     O_3   0.249990 0.249990 0.500000 -0.480198
O2    O     O_3   0.249990 0.750010 0.500000 -0.482107
O3    O     O_3   0.749990 0.749990 0.500000 -0.480346
O4    O     O_3   0.749990 0.250010 0.500000 -0.482441
O5    O     O_R   0.311270 0.366840 0.561280 -0.663279
O6    O     O_R   0.311270 0.633160 0.561280 -0.668044
O7    O     O_R   0.811270 0.866840 0.561280 -0.664052
O8    O     O_R   0.811270 0.133160 0.561280 -0.673955
O9    O     O_R   0.249990 0.133140 0.561260 -0.646877
O10   O     O_R   0.249990 0.866860 0.561260 -0.636718
O11   O     O_R   0.749990 0.633140 0.561260 -0.647111
O12   O     O_R   0.749990 0.366860 0.561260 -0.636452
O13   O     O_R   0.102520 0.280640 0.438750 -0.639947
O14   O     O_R   0.102520 0.719360 0.438750 -0.639917
O15   O     O_R   0.602520 0.780640 0.438750 -0.638050
O16   O     O_R   0.602520 0.219360 0.438750 -0.634896
O17   O     O_R   0.336190 0.219350 0.438710 -0.644033
O18   O     O_R   0.336190 0.780650 0.438710 -0.650687
O19   O     O_R   0.836190 0.719350 0.438710 -0.644102
O20   O     O_R   0.836190 0.280650 0.438710 -0.651411
O21   O     O_R   0.163790 0.219360 0.561280 -0.630362
O22   O     O_R   0.163790 0.780640 0.561280 -0.628984
O23   O     O_R   0.663790 0.719360 0.561280 -0.630881
O24   O     O_R   0.663790 0.280640 0.561280 -0.628885
O25   O     O_R   0.397470 0.280620 0.561260 -0.657488
O26   O     O_R   0.397470 0.719380 0.561260 -0.655619
O27   O     O_R   0.897470 0.780620 0.561260 -0.655627
O28   O     O_R   0.897470 0.219380 0.561260 -0.654664
O29   O     O_R   0.188730 0.366850 0.438750 -0.670494
O30   O     O_R   0.188730 0.633150 0.438750 -0.655337
O31   O     O_R   0.688730 0.866850 0.438750 -0.670444
O32   O     O_R   0.688730 0.133150 0.438750 -0.650268
O33   O     O_R   0.249980 0.133140 0.438710 -0.662782
O34   O     O_R   0.249980 0.866860 0.438710 -0.667812
O35   O     O_R   0.749980 0.633140 0.438710 -0.662805
O36   O     O_R   0.749980 0.366860 0.438710 -0.667715
O37   O     O_R   0.102500 0.280640 0.266310 -0.642799
O38   O     O_R   0.102500 0.719360 0.266310 -0.635516
O39   O     O_R   0.602500 0.780640 0.266310 -0.644143
O40   O     O_R   0.602500 0.219360 0.266310 -0.635023
O41   O     O_R   0.336220 0.219350 0.733700 -0.620179
O42   O     O_R   0.336220 0.780650 0.733700 -0.624503
O43   O     O_R   0.836220 0.719350 0.733700 -0.620412
O44   O     O_R   0.836220 0.280650 0.733700 -0.624199
O45   O     O_R   0.163750 0.219360 0.266290 -0.661309
O46   O     O_R   0.163750 0.780640 0.266290 -0.658250
O47   O     O_R   0.663750 0.719360 0.266290 -0.661335
O48   O     O_R   0.663750 0.280640 0.266290 -0.658299
O49   O     O_R   0.397490 0.280620 0.733700 -0.661941
O50   O     O_R   0.397490 0.719380 0.733700 -0.652032
O51   O     O_R   0.897490 0.780620 0.733700 -0.662026
O52   O     O_R   0.897490 0.219380 0.733700 -0.652449
Zn1   Zn    Zn3+2 0.337540 0.293760 0.587540 0.919992
Zn2   Zn    Zn3+2 0.337540 0.706240 0.587540 0.926053
Zn3   Zn    Zn3+2 0.837540 0.793760 0.587540 0.921813
Zn4   Zn    Zn3+2 0.837540 0.206240 0.587540 0.925549
Zn5   Zn    Zn3+2 0.162450 0.293770 0.412470 0.941738
Zn6   Zn    Zn3+2 0.162450 0.706230 0.412470 0.956568
Zn7   Zn    Zn3+2 0.662450 0.793770 0.412470 0.942541
Zn8   Zn    Zn3+2 0.662450 0.206230 0.412470 0.958880
Zn9   Zn    Zn3+2 0.249980 0.206220 0.412450 0.933312
Zn10  Zn    Zn3+2 0.249980 0.793780 0.412450 0.938099
Zn11  Zn    Zn3+2 0.749980 0.706220 0.412450 0.933213
Zn12  Zn    Zn3+2 0.749980 0.293780 0.412450 0.937684
Zn13  Zn    Zn3+2 0.250000 0.206220 0.587540 0.987630
Zn14  Zn    Zn3+2 0.250000 0.793780 0.587540 0.983230
Zn15  Zn    Zn3+2 0.750000 0.706220 0.587540 0.987852
Zn16  Zn    Zn3+2 0.750000 0.293780 0.587540 0.982160
C121  C     C_3   0.534355 0.205427 0.683161 -0.398359
C122  C     C_3   0.587543 0.219772 0.798584 -0.328470
C123  C     C_3   0.597685 0.175712 0.862494 -0.882041
H73   H     H_    0.544410 0.164770 0.833724 0.247437
H74   H     H_    0.621238 0.142384 0.857722 0.272757
H75   H     H_    0.635593 0.187370 0.945043 0.251511
H76   H     H_    0.641738 0.230877 0.830783 0.247329
H77   H     H_    0.565471 0.252879 0.806609 0.214507
H78   H     H_    0.481498 0.195962 0.656652 0.199027
H79   H     H_    0.551575 0.169681 0.673585 0.215829
C124  C     C_3   0.532276 0.818810 0.662243 -0.428646
C125  C     C_3   0.481488 0.825497 0.677604 -0.346239
C126  C     C_3   0.505674 0.869991 0.749620 -0.914353
H80   H     H_    0.560722 0.862739 0.828485 0.262427
H81   H     H_    0.507056 0.905709 0.718266 0.273385
H82   H     H_    0.466326 0.874738 0.755752 0.249283
H83   H     H_    0.425195 0.833978 0.602233 0.233292
H84   H     H_    0.481124 0.790434 0.711468 0.227501
H85   H     H_    0.589019 0.822237 0.740728 0.234113
H86   H     H_    0.523891 0.850861 0.615006 0.208446
C127  C     C_3   0.037876 0.704963 0.682289 -0.403755
C128  C     C_3   0.088090 0.719348 0.797113 -0.330050
C129  C     C_3   0.100056 0.674199 0.860544 -0.881716
H87   H     H_    0.047055 0.660934 0.830294 0.249176
H88   H     H_    0.126382 0.642479 0.857230 0.272914
H89   H     H_    0.136242 0.685789 0.942807 0.250663
H90   H     H_    0.141963 0.732984 0.831155 0.246316
H91   H     H_    0.062691 0.750656 0.803112 0.216638
H92   H     H_    0.985188 0.692262 0.653557 0.200042
H93   H     H_    0.059556 0.671297 0.675048 0.210063
C130  C     C_3   0.030903 0.319088 0.659997 -0.426885
C131  C     C_3   0.980624 0.325550 0.676331 -0.347062
C132  C     C_3   0.004929 0.370040 0.748424 -0.914052
H94   H     H_    0.060265 0.362962 0.827001 0.263125
H95   H     H_    0.005693 0.405828 0.716594 0.272800
H96   H     H_    0.966011 0.374526 0.755414 0.249471
H97   H     H_    0.924127 0.333895 0.601274 0.234240
H98   H     H_    0.980760 0.290451 0.710617 0.227807
H99   H     H_    0.087741 0.322944 0.738172 0.234128
H100  H     H_    0.021809 0.351010 0.611951 0.208460
C133  C     C_1   0.643916 0.217505 0.688184 0.155914
N1    N     N_1   0.687350 0.187344 0.745373 -0.226311
C134  C     C_1   0.641165 0.800717 0.667910 0.125843
N2    N     N_1   0.681975 0.834390 0.706894 -0.242101
C135  C     C_1   0.150004 0.726496 0.692792 0.161643
N3    N     N_1   0.200634 0.701832 0.755978 -0.223555
C136  C     C_1   0.139027 0.301297 0.664653 0.128254
N4    N     N_1   0.178368 0.335701 0.701740 -0.244835
C137  C     C_1   0.621946 0.305323 0.660052 0.184304
N5    N     N_1   0.649806 0.344669 0.694126 -0.172373
C138  C     C_1   0.629954 0.712077 0.678127 0.199119
N6    N     N_1   0.662506 0.675837 0.725895 -0.168833
C139  C     C_1   0.114575 0.811276 0.649871 0.183418
N7    N     N_1   0.137250 0.852220 0.678064 -0.175575
C140  C     C_1   0.129800 0.212627 0.677958 0.198117
N8    N     N_1   0.162860 0.176696 0.726662 -0.168723
C141  C     C_1   0.370271 0.197518 0.334292 0.264820
N9    N     N_1   0.315189 0.196425 0.247644 -0.202780
C142  C     C_1   0.361062 0.783586 0.316856 0.263730
N10   N     N_1   0.306205 0.774813 0.232603 -0.209610
C143  C     C_1   0.870837 0.696622 0.335210 0.267563
N11   N     N_1   0.815769 0.694797 0.248619 -0.203334
C144  C     C_1   0.859791 0.282210 0.315189 0.262472
N12   N     N_1   0.804833 0.273031 0.231287 -0.210730
C145  C     C_1   0.488699 0.170430 0.371564 0.254775
N13   N     N_1   0.473184 0.151498 0.301027 -0.174025
C146  C     C_1   0.473005 0.814954 0.339138 0.261174
N14   N     N_1   0.453977 0.827438 0.262266 -0.172964
C147  C     C_1   0.990141 0.669731 0.374413 0.246055
N15   N     N_1   0.975218 0.649690 0.305131 -0.174027
C148  C     C_1   0.971072 0.312643 0.335560 0.262392
N16   N     N_1   0.951528 0.324233 0.257973 -0.176783
C149  C     C_1   0.450421 0.284726 0.321111 0.198475
N17   N     N_1   0.413182 0.279588 0.233094 -0.189709
C150  C     C_1   0.453651 0.698511 0.338893 0.191574
N18   N     N_1   0.412115 0.695314 0.249595 -0.191337
C151  C     C_1   0.948192 0.783157 0.316984 0.197600
N19   N     N_1   0.911326 0.776942 0.229318 -0.188439
C152  C     C_1   0.953635 0.197054 0.338884 0.190438
N20   N     N_1   0.912232 0.193480 0.249654 -0.191363
C153  C     C_1   0.289458 0.051961 0.672883 0.220462
N21   N     N_1   0.332851 0.069011 0.755672 -0.196420
C154  C     C_1   0.309032 0.952171 0.677953 0.197213
N22   N     N_1   0.362226 0.938895 0.760083 -0.218631
C155  C     C_1   0.790508 0.552032 0.673754 0.220116
N23   N     N_1   0.834117 0.569165 0.756442 -0.195975
C156  C     C_1   0.810439 0.452250 0.678781 0.196031
N24   N     N_1   0.863996 0.439051 0.760659 -0.220548
C157  C     C_1   0.165179 0.047283 0.533291 0.180993
N25   N     N_1   0.113226 0.060692 0.511498 -0.223880
C158  C     C_1   0.183917 0.944870 0.562800 0.212006
N26   N     N_1   0.140661 0.926176 0.557196 -0.196973
C159  C     C_1   0.666142 0.547118 0.534942 0.181031
N27   N     N_1   0.614350 0.560427 0.513670 -0.225034
C160  C     C_1   0.685579 0.444708 0.565513 0.212638
N28   N     N_1   0.643095 0.425814 0.561389 -0.198747
C161  C     C_3   0.178135 0.056250 0.290716 -0.356506
C162  C     C_3   0.246581 0.059821 0.310137 -0.345341
C163  C     C_3   0.226505 0.070079 0.209898 -0.899528
H101  H     H_    0.198677 0.036742 0.157804 0.259257
H102  H     H_    0.190419 0.103832 0.168936 0.267135
H103  H     H_    0.277025 0.077598 0.228627 0.269412
H104  H     H_    0.279984 0.093041 0.359063 0.279274
H105  H     H_    0.280324 0.025672 0.345598 0.239488
H106  H     H_    0.134659 0.039113 0.213743 0.201556
H107  H     H_    0.158706 0.095698 0.269568 0.219541
C164  C     C_3   0.162996 0.947045 0.280265 -0.337417
C165  C     C_3   0.086463 0.946832 0.165078 -0.425364
C166  C     C_3   0.092155 0.940135 0.088133 -0.874187
H108  H     H_    0.116971 0.974200 0.087443 0.261739
H109  H     H_    0.125623 0.906338 0.108501 0.270767
H110  H     H_    0.036507 0.935114 0.008839 0.261597
H111  H     H_    0.053284 0.914390 0.152203 0.236579
H112  H     H_    0.054223 0.981471 0.143407 0.211968
H113  H     H_    0.202359 0.965084 0.282851 0.220640
H114  H     H_    0.178782 0.907334 0.292152 0.234408
C167  C     C_3   0.677427 0.556268 0.290618 -0.356982
C168  C     C_3   0.745604 0.559818 0.309369 -0.346692
C169  C     C_3   0.725226 0.570235 0.208952 -0.892651
H115  H     H_    0.697700 0.536849 0.156986 0.259394
H116  H     H_    0.688861 0.603856 0.167997 0.267006
H117  H     H_    0.775608 0.578053 0.227463 0.268873
H118  H     H_    0.779183 0.592965 0.358355 0.279543
H119  H     H_    0.779225 0.525618 0.344410 0.239471
H120  H     H_    0.633737 0.539155 0.213672 0.201816
H121  H     H_    0.658011 0.595726 0.269620 0.218992
C170  C     C_3   0.661968 0.447101 0.280214 -0.337758
C171  C     C_3   0.585002 0.447208 0.165534 -0.423759
C172  C     C_3   0.589540 0.441542 0.087260 -0.872707
H122  H     H_    0.614756 0.475661 0.087556 0.261099
H123  H     H_    0.621993 0.407529 0.105305 0.271246
H124  H     H_    0.533436 0.437568 0.008240 0.263001
H125  H     H_    0.552162 0.414511 0.152687 0.237340
H126  H     H_    0.552904 0.481712 0.145162 0.211387
H127  H     H_    0.701078 0.465058 0.282177 0.220396
H128  H     H_    0.677558 0.407339 0.291736 0.232990
C173  C     C_3   0.097436 0.056570 0.317653 -0.483432
C174  C     C_3   0.089105 0.114299 0.322809 -0.362448
C175  C     C_3   0.008898 0.128152 0.246694 -0.894366
H129  H     H_    0.980206 0.119545 0.165730 0.256514
H130  H     H_    0.981950 0.107378 0.265370 0.278398
H131  H     H_    0.006334 0.169373 0.253993 0.267661
H132  H     H_    0.114060 0.125183 0.400710 0.238766
H133  H     H_    0.113036 0.139029 0.304206 0.226290
H134  H     H_    0.056431 0.046563 0.233821 0.195992
H135  H     H_    0.074649 0.039249 0.344134 0.214945
C176  C     C_3   0.095541 0.948801 0.333108 -0.420680
C177  C     C_3   0.083598 0.890371 0.325554 -0.348258
C178  C     C_3   0.002658 0.876544 0.248894 -0.920144
H136  H     H_    0.979184 0.890207 0.277605 0.273305
H137  H     H_    0.971602 0.893083 0.171086 0.255436
H138  H     H_    0.997176 0.834683 0.240426 0.259685
H139  H     H_    0.106262 0.870216 0.300644 0.222004
H140  H     H_    0.110287 0.874580 0.401920 0.229813
H141  H     H_    0.088368 0.963161 0.381516 0.192154
H142  H     H_    0.047194 0.964649 0.256265 0.204392
C179  C     C_3   0.597429 0.556671 0.318821 -0.484195
C180  C     C_3   0.589237 0.614393 0.324190 -0.361700
C181  C     C_3   0.509065 0.628346 0.248118 -0.896009
H143  H     H_    0.480412 0.619959 0.167091 0.256678
H144  H     H_    0.481978 0.607534 0.266538 0.278044
H145  H     H_    0.506673 0.669521 0.255833 0.268207
H146  H     H_    0.614216 0.625186 0.402146 0.239559
H147  H     H_    0.613253 0.639121 0.305713 0.226139
H148  H     H_    0.556152 0.546716 0.234967 0.195836
H149  H     H_    0.574886 0.539354 0.345670 0.215087
C182  C     C_3   0.595754 0.448948 0.335020 -0.420243
C183  C     C_3   0.583622 0.390540 0.327056 -0.348455
C184  C     C_3   0.502635 0.376789 0.249668 -0.917499
H150  H     H_    0.479041 0.389729 0.278592 0.273525
H151  H     H_    0.471678 0.393988 0.172397 0.254363
H152  H     H_    0.497147 0.335009 0.239793 0.260573
H153  H     H_    0.606520 0.370401 0.302494 0.221304
H154  H     H_    0.610012 0.374659 0.403239 0.230455
H155  H     H_    0.589366 0.463231 0.384370 0.191496
H156  H     H_    0.547118 0.464959 0.258624 0.204674
C185  C     C_1   0.366066 0.055670 0.538867 0.156244
N29   N     N_1   0.404831 0.077172 0.538148 -0.244672
C186  C     C_1   0.329270 0.952261 0.467147 0.190296
N30   N     N_1   0.343213 0.937903 0.423059 -0.229347
C187  C     C_1   0.865816 0.555652 0.537979 0.156134
N31   N     N_1   0.904394 0.577146 0.536880 -0.243874
C188  C     C_1   0.828503 0.452272 0.465773 0.191555
N32   N     N_1   0.841959 0.437919 0.421076 -0.227442
C189  C     C_3   0.326364 0.451778 0.711098 -0.459107
C190  C     C_3   0.318695 0.396411 0.731024 -0.362809
C191  C     C_3   0.317611 0.396912 0.813810 -0.909207
H157  H     H_    0.370009 0.412172 0.888313 0.251615
H158  H     H_    0.271811 0.420498 0.788230 0.271269
H159  H     H_    0.310377 0.358086 0.828092 0.272477
H160  H     H_    0.267981 0.378114 0.660814 0.219317
H161  H     H_    0.364986 0.372173 0.761431 0.239910
H162  H     H_    0.376760 0.464436 0.788865 0.238221
H163  H     H_    0.282567 0.471336 0.693317 0.210627
C192  C     C_3   0.349653 0.558256 0.718961 -0.443469
C193  C     C_3   0.427365 0.553765 0.831560 -0.388090
C194  C     C_3   0.425660 0.555319 0.913543 -0.909313
H164  H     H_    0.398053 0.590389 0.904596 0.259929
H165  H     H_    0.396111 0.521733 0.906246 0.262807
H166  H     H_    0.482430 0.555108 0.992365 0.251340
H167  H     H_    0.457669 0.519808 0.844614 0.213735
H168  H     H_    0.460762 0.586236 0.847167 0.245663
H169  H     H_    0.341288 0.599659 0.705968 0.207164
H170  H     H_    0.310505 0.548035 0.721745 0.228105
C195  C     C_3   0.840289 0.951860 0.713754 -0.460868
C196  C     C_3   0.830051 0.897172 0.732999 -0.346085
C197  C     C_3   0.830397 0.898241 0.817244 -0.935025
H171  H     H_    0.885349 0.909304 0.893194 0.256912
H172  H     H_    0.789406 0.925413 0.797313 0.266359
H173  H     H_    0.815902 0.860426 0.824608 0.273537
H174  H     H_    0.778093 0.879683 0.663897 0.219973
H175  H     H_    0.874678 0.872031 0.760157 0.251272
H176  H     H_    0.893372 0.962606 0.790271 0.227595
H177  H     H_    0.801015 0.973455 0.703562 0.213397
C198  C     C_3   0.873293 0.056215 0.723172 -0.438312
C199  C     C_3   0.956021 0.048164 0.824898 -0.383937
C200  C     C_3   0.973794 0.063665 0.921220 -0.891126
H178  H     H_    0.958770 0.103802 0.914959 0.264645
H179  H     H_    0.943587 0.039099 0.930275 0.254446
H180  H     H_    0.033351 0.059479 0.991468 0.255744
H181  H     H_    0.976188 0.009362 0.838625 0.212338
H182  H     H_    0.990683 0.070706 0.822449 0.240078
H183  H     H_    0.868923 0.097876 0.716599 0.237612
H184  H     H_    0.841702 0.046423 0.739613 0.226386
C201  C     C_3   0.406261 0.441215 0.683116 -0.329037
C202  C     C_3   0.430592 0.431782 0.627422 -0.403114
C203  C     C_3   0.499510 0.399092 0.693519 -0.834719
H185  H     H_    0.544845 0.417412 0.769867 0.267469
H186  H     H_    0.488617 0.360692 0.705804 0.283573
H187  H     H_    0.516813 0.394564 0.653078 0.242012
H188  H     H_    0.388489 0.411452 0.553060 0.238682
H189  H     H_    0.444603 0.467387 0.613565 0.234610
H190  H     H_    0.452601 0.458959 0.758863 0.166134
H191  H     H_    0.409303 0.403377 0.710668 0.264594
C204  C     C_3   0.403731 0.551980 0.648037 -0.323181
C205  C     C_3   0.405370 0.563209 0.566020 -0.423187
C206  C     C_3   0.483043 0.576318 0.618840 -0.869548
H192  H     H_    0.503087 0.611193 0.666725 0.275094
H193  H     H_    0.521001 0.544511 0.669122 0.268001
H194  H     H_    0.483241 0.583015 0.558983 0.251175
H195  H     H_    0.387275 0.531266 0.513633 0.198525
H196  H     H_    0.371475 0.596721 0.518068 0.249921
H197  H     H_    0.421053 0.589392 0.687402 0.247153
H198  H     H_    0.453310 0.530402 0.711132 0.189598
C207  C     C_3   0.907802 0.940193 0.664479 -0.316635
C208  C     C_3   0.919622 0.929257 0.593986 -0.400319
C209  C     C_3   0.992027 0.901681 0.654784 -0.846824
H199  H     H_    0.038259 0.924223 0.723854 0.264986
H200  H     H_    0.990850 0.863738 0.680513 0.278172
H201  H     H_    0.001584 0.896752 0.604952 0.244938
H202  H     H_    0.875549 0.905343 0.526464 0.238249
H203  H     H_    0.922925 0.964292 0.564863 0.230482
H204  H     H_    0.957301 0.959482 0.733904 0.162500
H205  H     H_    0.916662 0.903413 0.700643 0.259612
C210  C     C_3   0.899884 0.050184 0.616832 -0.343471
C211  C     C_3   0.887197 0.061331 0.521517 -0.432656
C212  C     C_3   0.960151 0.071206 0.556136 -0.882706
H206  H     H_    0.992137 0.100840 0.617381 0.267240
H207  H     H_    0.993192 0.035906 0.587815 0.270438
H208  H     H_    0.950015 0.083775 0.488708 0.255354
H209  H     H_    0.861570 0.030157 0.465013 0.204712
H210  H     H_    0.853766 0.096203 0.481108 0.240390
H211  H     H_    0.920650 0.087935 0.655228 0.242691
H212  H     H_    0.950878 0.028447 0.672551 0.198134
C213  C     C_3   0.236259 0.440073 0.345959 -0.395810
C214  C     C_3   0.158719 0.416869 0.262224 -0.245702
C215  C     C_3   0.127853 0.422498 0.153707 -0.944672
H213  H     H_    0.136351 0.461199 0.140158 0.279308
H214  H     H_    0.155696 0.395680 0.144310 0.250717
H215  H     H_    0.068139 0.414796 0.093902 0.256387
H216  H     H_    0.161441 0.375496 0.277090 0.220964
H217  H     H_    0.119725 0.432313 0.262814 0.208478
H218  H     H_    0.249374 0.463178 0.309873 0.203123
H219  H     H_    0.274953 0.407699 0.380733 0.152024
C216  C     C_3   0.160127 0.543128 0.305442 -0.363805
C217  C     C_3   0.162327 0.561353 0.227437 -0.363981
C218  C     C_3   0.085318 0.563851 0.117518 -0.876640
H220  H     H_    0.049549 0.587215 0.116546 0.261032
H221  H     H_    0.087479 0.580636 0.063839 0.249303
H222  H     H_    0.060271 0.525506 0.089087 0.271518
H223  H     H_    0.187183 0.600003 0.250193 0.206240
H224  H     H_    0.196493 0.536343 0.227632 0.220399
H225  H     H_    0.121471 0.511405 0.272598 0.213976
H226  H     H_    0.133196 0.574401 0.307436 0.219480
C219  C     C_3   0.716376 0.941072 0.328132 -0.403757
C220  C     C_3   0.639493 0.916685 0.254996 -0.243023
C221  C     C_3   0.595785 0.926696 0.141076 -0.949045
H227  H     H_    0.594481 0.967406 0.126147 0.283788
H228  H     H_    0.621750 0.907263 0.120212 0.252455
H229  H     H_    0.538592 0.913285 0.090261 0.261152
H230  H     H_    0.645366 0.874816 0.265829 0.227445
H231  H     H_    0.607843 0.928372 0.271518 0.215442
H232  H     H_    0.721192 0.965547 0.283418 0.207560
H233  H     H_    0.755157 0.909522 0.356113 0.145829
C222  C     C_3   0.643058 0.041707 0.305637 -0.359906
C223  C     C_3   0.631232 0.063875 0.216612 -0.371995
C224  C     C_3   0.549465 0.067026 0.116764 -0.874571
H234  H     H_    0.521160 0.090235 0.129950 0.264466
H235  H     H_    0.541488 0.084019 0.053599 0.254153
H236  H     H_    0.523179 0.029025 0.091264 0.268304
H237  H     H_    0.655139 0.102797 0.238083 0.214090
H238  H     H_    0.659086 0.040745 0.202670 0.218192
H239  H     H_    0.607989 0.008165 0.277353 0.216749
H240  H     H_    0.618110 0.069882 0.316875 0.223300
C225  C     C_3   0.146479 0.438396 0.508185 -0.392946
C226  C     C_3   0.062280 0.444080 0.426004 -0.359030
C227  C     C_3   0.032763 0.443195 0.474726 -0.881249
H241  H     H_    0.060293 0.413605 0.535773 0.256531
H242  H     H_    0.042257 0.480391 0.511034 0.258547
H243  H     H_    0.973003 0.435489 0.413972 0.261411
H244  H     H_    0.044004 0.479777 0.380628 0.215558
H245  H     H_    0.037039 0.412408 0.369418 0.234741
H246  H     H_    0.155949 0.397261 0.515406 0.220694
H247  H     H_    0.170071 0.447409 0.585700 0.209576
C228  C     C_3   0.172914 0.545086 0.561265 -0.433094
C229  C     C_3   0.178362 0.600059 0.592049 -0.327739
C230  C     C_3   0.180164 0.599961 0.678324 -0.878465
H248  H     H_    0.168222 0.562277 0.691612 0.247324
H249  H     H_    0.235139 0.611816 0.753196 0.267712
H250  H     H_    0.137337 0.624524 0.657376 0.250550
H251  H     H_    0.227759 0.619590 0.621235 0.205449
H252  H     H_    0.130253 0.621530 0.523401 0.234545
H253  H     H_    0.115698 0.534666 0.516839 0.226785
H254  H     H_    0.204399 0.522390 0.631145 0.202052
C231  C     C_3   0.659536 0.939699 0.533104 -0.401858
C232  C     C_3   0.578047 0.950796 0.467052 -0.363557
C233  C     C_3   0.560524 0.946976 0.531041 -0.881247
H255  H     H_    0.580274 0.910485 0.573920 0.263393
H256  H     H_    0.587301 0.978568 0.588002 0.259198
H257  H     H_    0.500498 0.949405 0.479011 0.261022
H258  H     H_    0.561906 0.989123 0.431124 0.217746
H259  H     H_    0.543455 0.923033 0.402126 0.227142
H260  H     H_    0.662156 0.898323 0.527165 0.219026
H261  H     H_    0.692092 0.945664 0.615682 0.222597
C234  C     C_3   0.699297 0.048054 0.600917 -0.415270
C235  C     C_3   0.723580 0.102359 0.646168 -0.339368
C236  C     C_3   0.761594 0.102276 0.759488 -0.877995
H262  H     H_    0.721001 0.094525 0.762512 0.276632
H263  H     H_    0.804504 0.072877 0.807455 0.240733
H264  H     H_    0.789554 0.139182 0.796366 0.263331
H265  H     H_    0.761798 0.119762 0.646002 0.212524
H266  H     H_    0.675215 0.127803 0.599194 0.218459
H267  H     H_    0.642330 0.044956 0.564266 0.201607
H268  H     H_    0.726789 0.021666 0.665433 0.205121
C237  C     C_1   0.349750 0.263358 0.890012 0.188128
N33   N     N_1   0.292148 0.250672 0.850892 -0.162112
C238  C     C_1   0.357676 0.747821 0.899843 0.238827
N34   N     N_1   0.308713 0.770199 0.873865 -0.161810
C239  C     C_1   0.850131 0.764359 0.889607 0.190435
N35   N     N_1   0.792240 0.752290 0.850105 -0.161398
C240  C     C_1   0.855224 0.237397 0.894196 0.205490
N36   N     N_1   0.801546 0.254133 0.862806 -0.163290
C241  C     C_1   0.453623 0.245673 0.098265 0.221733
N37   N     N_1   0.431432 0.222109 0.124770 -0.149438
C242  C     C_1   0.459348 0.735325 0.106322 0.188719
N38   N     N_1   0.437935 0.748614 0.140905 -0.153597
C243  C     C_1   0.953267 0.743668 0.096739 0.228124
N39   N     N_1   0.930782 0.719348 0.122056 -0.149792
C244  C     C_1   0.957712 0.234208 0.102815 0.195004
N40   N     N_1   0.934114 0.247388 0.134371 -0.155156
C245  C     C_1   0.516672 0.328076 0.907438 0.185087
N41   N     N_1   0.513891 0.369167 0.882360 -0.263368
C246  C     C_1   0.529615 0.686435 0.899777 0.211201
N42   N     N_1   0.533032 0.651665 0.864989 -0.239448
C247  C     C_1   0.018624 0.826227 0.905124 0.188200
N43   N     N_1   0.016370 0.866436 0.877162 -0.259054
C248  C     C_1   0.031877 0.190872 0.899791 0.222140
N44   N     N_1   0.035750 0.156651 0.864634 -0.220298

loop_
_geom_bond_atom_site_label_1
_geom_bond_atom_site_label_2
_ccdc_geom_bond_type
C53   C149  S    
C182  C183  S    
C193  H167  S    
C194  H164  S    
C204  C205  S    
C34   C42   S    
C227  H241  S    
O8    Zn4   S    
C79   C87   S    
C151  N19   T    
C224  H234  S    
C54   C150  S    
C218  H222  S    
C77   C89   S    
C128  C129  S    
C161  C162  S    
O46   Zn10  S    
O49   Zn1   S    
O25   Zn1   S    
C112  H4    S    
C184  H150  S    
C46   O18   A    
C209  H200  S    
C161  H106  S    
C124  C125  S    
C86   H58   S    
C126  H82   S    
C123  H74   S    
C231  C232  S    
C17   C241  S    
C32   C52   S    
C167  H120  S    
C8    C248  S    
O17   Zn9   S    
O36   Zn12  S    
C176  C177  S    
C71   C167  S    
C82   H54   S    
C125  C126  S    
C70   C74   S    
O40   Zn8   S    
C5    H65   S    
C22   H70   S    
C43   C47   S    
C18   C118  S    
C60   C148  S    
C20   C244  S    
C124  H85   S    
O28   Zn4   S    
C63   C159  S    
O4    Zn4   S    
C205  H196  S    
C107  O51   A    
C131  H97   S    
C228  H254  S    
C214  H216  S    
C105  O49   A    
C165  C166  S    
O11   Zn15  S    
C213  H218  S    
C4    O16   A    
C25   C29   S    
O44   Zn16  S    
C70   C164  S    
C27   C31   S    
C144  N12   T    
C174  H133  S    
C28   C32   S    
C181  H145  S    
C235  C236  S    
C25   C41   S    
C12   C108  S    
C39   C143  S    
C208  C209  S    
C133  N1    T    
O3    Zn3   S    
C28   C44   S    
C35   H43   S    
C105  O41   A    
O1    Zn9   S    
C80   C92   S    
C33   H41   S    
C66   C186  S    
C191  H158  S    
C206  H194  S    
C78   C82   S    
C160  N28   T    
C16   C20   S    
C230  H250  S    
C95   C207  S    
C13   C21   S    
C202  H188  S    
C203  H186  S    
O50   Zn2   S    
C179  H149  S    
C197  H172  S    
C228  H253  S    
C2    O22   A    
C232  H258  S    
O47   Zn11  S    
C172  H122  S    
C194  H166  S    
C15   C115  S    
C182  H156  S    
C36   C44   S    
C170  C171  S    
C231  H261  S    
C20   C120  S    
C224  H236  S    
C223  H238  S    
C175  H130  S    
C125  H84   S    
C214  C215  S    
O3    Zn15  S    
C211  C212  S    
C110  H30   S    
C192  C193  S    
O41   Zn13  S    
C76   C100  S    
C234  H267  S    
C243  N39   T    
C6    H66   S    
C117  C237  S    
C64   C156  S    
C4    C49   S    
C3    O15   A    
C176  H142  S    
C36   H24   S    
C195  H176  S    
C200  H179  S    
C222  C223  S    
C245  N41   T    
C229  C230  S    
C165  H112  S    
C222  H239  S    
C78   C94   S    
C49   C53   S    
O5    Zn1   S    
C199  H181  S    
C51   C55   S    
C69   C70   S    
O14   Zn6   S    
C27   H19   S    
C210  H211  S    
C150  N18   T    
C72   C182  S    
C216  H226  S    
C5    C21   S    
C80   C88   S    
C143  N11   T    
O2    Zn2   S    
C227  H243  S    
C163  H101  S    
C102  O38   A    
C41   C45   S    
O2    Zn14  S    
C168  C169  S    
C171  H126  S    
O37   Zn5   S    
C44   C48   S    
C88   C234  S    
C189  H163  S    
C215  H215  S    
C79   C83   S    
C32   C136  S    
C56   H28   S    
C237  N33   T    
C4    O24   A    
C47   O19   A    
C95   C96   S    
O12   Zn16  S    
C238  N34   T    
O39   Zn7   S    
C81   C213  S    
C239  N35   T    
C173  H134  S    
C74   C98   S    
C29   C49   S    
C85   C86   S    
C201  C202  S    
C220  H231  S    
C219  H233  S    
C7    H67   S    
C31   C135  S    
C89   O29   A    
C121  C122  S    
C9    C105  S    
C248  N44   T    
C66   C74   S    
C49   C57   S    
C72   C170  S    
C38   C142  S    
O16   Zn8   S    
C93   C201  S    
C52   C60   S    
C94   C192  S    
C225  H246  S    
C113  H61   S    
C234  C235  S    
C193  C194  S    
C195  C196  S    
C172  H124  S    
C119  H11   S    
O2    Zn6   S    
C162  H105  S    
C2    O14   A    
C229  H252  S    
C96   C198  S    
C117  H9    S    
C30   C138  S    
C110  C114  S    
C79   C91   S    
C190  H161  S    
C83   C219  S    
C77   C85   S    
C128  H90   S    
C213  C214  S    
C129  H89   S    
C108  O52   A    
C86   C228  S    
C202  C203  S    
C96   C210  S    
C192  H169  S    
C3    C50   S    
C219  C220  S    
C226  H244  S    
C103  O39   A    
O31   Zn7   S    
O48   Zn12  S    
C226  C227  S    
C101  O45   A    
C109  H1    S    
C48   O20   A    
C221  H229  S    
C122  H76   S    
C169  H117  S    
C33   H21   S    
C45   O17   A    
C180  H146  S    
C39   H35   S    
C164  H114  S    
C206  H193  S    
C81   H53   S    
C25   H17   S    
C5    C9    S    
C132  H94   S    
C27   C43   S    
C21   H69   S    
C83   C84   S    
C8    C12   S    
O4    Zn8   S    
C75   C99   S    
C121  H79   S    
C212  H207  S    
C24   H72   S    
C65   C185  S    
C20   H16   S    
C178  H138  S    
C202  H189  S    
C130  H100  S    
C68   H48   S    
O33   Zn9   S    
C38   H34   S    
C26   C30   S    
C205  C206  S    
C10   C106  S    
C67   C75   S    
C235  H265  S    
C201  H190  S    
C210  C211  S    
C166  H110  S    
O30   Zn6   S    
C112  C116  S    
C183  C184  S    
C26   C42   S    
C172  H123  S    
C236  H264  S    
C208  H202  S    
C177  H139  S    
C193  H168  S    
C106  O42   A    
C99   O11   A    
C68   C188  S    
C97   O9    A    
C34   H42   S    
C122  C123  S    
C218  H221  S    
C89   O5    A    
C59   C147  S    
C13   C17   S    
C14   C22   S    
C178  H136  S    
C71   C72   S    
C173  C174  S    
C14   C103  S    
C63   C75   S    
C7    C23   S    
C116  H64   S    
C130  H99   S    
C8    C24   S    
C22   H6    S    
C18   H14   S    
C163  H103  S    
C18   C242  S    
C37   C41   S    
C61   C62   S    
C233  H257  S    
O9    Zn13  S    
O32   Zn8   S    
C63   C64   S    
C16   C101  S    
C40   C44   S    
C29   C133  S    
C203  H185  S    
C24   H8    S    
C104  O48   A    
C85   C225  S    
C211  H209  S    
C92   O8    A    
C211  H210  S    
C207  H205  S    
C185  N29   T    
C166  H109  S    
C183  H153  S    
C97   O33   A    
C87   C88   S    
C108  O44   A    
C241  N37   T    
C46   O26   A    
O3    Zn11  S    
C123  H75   S    
C6    C246  S    
C131  H98   S    
C221  H227  S    
C12   C112  S    
C167  H121  S    
C80   C84   S    
C159  N27   T    
C169  H115  S    
C78   C90   S    
C15   C19   S    
C50   C54   S    
C61   C153  S    
C149  N17   T    
O45   Zn9   S    
C181  H144  S    
C166  H108  S    
C132  H96   S    
C212  H206  S    
C184  H152  S    
C19   H15   S    
C196  H174  S    
C6    C22   S    
C65   H45   S    
C45   O25   A    
C116  H52   S    
C220  C221  S    
C42   C46   S    
C168  H118  S    
C100  O36   A    
C34   C54   S    
C217  H223  S    
C114  H62   S    
C170  H128  S    
C38   C58   S    
C59   H39   S    
C181  H143  S    
C230  H249  S    
C37   C141  S    
C93   C189  S    
C112  H32   S    
C69   C73   S    
C69   C161  S    
C198  H184  S    
C17   C117  S    
C127  H93   S    
C54   H26   S    
C179  H148  S    
C30   C50   S    
C19   C119  S    
C140  N8    T    
C186  N30   T    
C232  H259  S    
C194  H165  S    
C182  H155  S    
C29   C137  S    
C106  O50   A    
C16   C116  S    
C231  H260  S    
C199  C200  S    
C88   H60   S    
C3    O23   A    
O1    Zn13  S    
C224  H235  S    
C157  N25   T    
C9    C109  S    
C11   C111  S    
C136  N4    T    
C50   C58   S    
C37   H33   S    
C94   C204  S    
C115  H51   S    
C31   C51   S    
C156  N24   T    
C209  H201  S    
C113  H49   S    
C61   C73   S    
C161  H107  S    
C225  C226  S    
C111  H3    S    
C81   C82   S    
C191  H157  S    
C204  H198  S    
C216  H225  S    
C178  H137  S    
C73   C97   S    
C233  H255  S    
C79   C95   S    
C200  H178  S    
C118  H10   S    
C214  H217  S    
C57   C145  S    
C25   C121  S    
C152  N20   T    
C92   O32   A    
C39   C59   S    
C53   H25   S    
C199  H182  S    
C125  H83   S    
C13   C104  S    
C180  H147  S    
C124  H86   S    
O29   Zn5   S    
C33   C41   S    
O51   Zn3   S    
C227  H242  S    
C1    O21   A    
C205  H195  S    
O27   Zn3   S    
C68   C76   S    
C195  H177  S    
C21   H5    S    
O43   Zn15  S    
C223  C224  S    
C23   H7    S    
C247  N43   T    
C48   O28   A    
C189  H162  S    
C215  H214  S    
C34   H22   S    
O21   Zn13  S    
C174  H132  S    
C87   C231  S    
C28   C130  S    
O19   Zn11  S    
C26   H18   S    
C6    C10   S    
C212  H208  S    
C115  H63   S    
C38   C42   S    
C176  H141  S    
O4    Zn12  S    
C219  H232  S    
C7    C247  S    
C189  C190  S    
C118  C238  S    
C191  H159  S    
C146  N14   T    
C148  N16   T    
C14   C114  S    
C62   C158  S    
C110  H2    S    
C67   H47   S    
C100  O12   A    
C120  C240  S    
C139  N7    T    
O6    Zn2   S    
C77   C93   S    
C213  H219  S    
C10   C110  S    
C203  H187  S    
C145  N13   T    
C1    C52   S    
O13   Zn5   S    
C2    C51   S    
C142  N10   T    
O2    Zn10  S    
C197  H173  S    
C177  C178  S    
C39   C43   S    
C85   H57   S    
C135  N3    T    
C242  N38   T    
C36   H44   S    
O1    Zn1   S    
C62   C74   S    
C101  O37   A    
C84   H56   S    
C175  H129  S    
C35   H23   S    
C223  H237  S    
C175  H131  S    
C71   C75   S    
C154  N22   T    
C128  H91   S    
C190  C191  S    
C83   H55   S    
C129  H88   S    
C33   C53   S    
C9    C117  S    
C147  N15   T    
C14   C18   S    
C246  N42   T    
C28   H20   S    
C103  O47   A    
C72   C76   S    
C11   C119  S    
C23   H71   S    
C179  C180  S    
C209  H199  S    
C226  H245  S    
C137  N5    T    
C7    C11   S    
C234  H268  S    
C207  C208  S    
C5    C245  S    
C36   C56   S    
O26   Zn2   S    
C131  C132  S    
C221  H228  S    
C169  H116  S    
C90   O30   A    
C200  H180  S    
O10   Zn14  S    
C122  H77   S    
C165  H111  S    
C222  H240  S    
C104  O40   A    
O23   Zn15  S    
C215  H213  S    
C65   C73   S    
C56   C152  S    
C164  H113  S    
C206  H192  S    
O4    Zn16  S    
O18   Zn10  S    
C210  H212  S    
C71   C179  S    
C126  H81   S    
C12   C120  S    
C70   C176  S    
C134  N2    T    
O3    Zn7   S    
C216  C217  S    
C77   C81   S    
C80   C96   S    
C1    O13   A    
C82   C216  S    
C109  C113  S    
C91   O7    A    
C78   C86   S    
C130  C131  S    
C15   C23   S    
C16   C24   S    
C63   C155  S    
C162  C163  S    
C235  H266  S    
C67   C68   S    
C173  H135  S    
C236  H263  S    
C208  H203  S    
C177  H140  S    
C102  O46   A    
C232  C233  S    
C66   H46   S    
C184  H151  S    
C35   C55   S    
C220  H230  S    
C197  H171  S    
C217  C218  S    
C58   H38   S    
C198  C199  S    
C171  C172  S    
O35   Zn11  S    
C32   C140  S    
C127  C128  S    
C47   O27   A    
C228  C229  S    
C171  H125  S    
O20   Zn12  S    
C109  H29   S    
C236  H262  S    
C10   C118  S    
C164  C165  S    
C225  H247  S    
C30   C134  S    
C55   H27   S    
C240  N36   T    
C244  N40   T    
O52   Zn4   S    
C218  H220  S    
C126  H80   S    
C64   C76   S    
C162  H104  S    
C163  H102  S    
C93   C94   S    
C229  H251  S    
C233  H256  S    
C167  C168  S    
C190  H160  S    
C19   C243  S    
C65   C66   S    
O1    Zn5   S    
C11   C107  S    
C61   C157  S    
C58   C146  S    
C51   C59   S    
O24   Zn16  S    
C69   C173  S    
C129  H87   S    
C35   C43   S    
C180  C181  S    
C62   C154  S    
C183  H154  S    
C114  H50   S    
C107  O43   A    
C120  H12   S    
C121  H78   S    
C98   O10   A    
C64   C160  S    
O22   Zn14  S    
C60   H40   S    
C207  H204  S    
C40   C144  S    
C111  H31   S    
C27   C127  S    
C37   C57   S    
C90   O6    A    
O7    Zn3   S    
C55   C151  S    
C57   H37   S    
C196  C197  S    
C99   O35   A    
C84   C222  S    
C123  H73   S    
C155  N23   T    
C188  N32   T    
C132  H95   S    
C204  H197  S    
C17   H13   S    
C158  N26   T    
C31   C139  S    
C187  N31   T    
O15   Zn7   S    
C196  H175  S    
C192  H170  S    
C67   C187  S    
C15   C102  S    
C168  H119  S    
C141  N9    T    
C217  H224  S    
C170  H127  S    
C87   H59   S    
C26   C124  S    
C95   C195  S    
O34   Zn10  S    
C119  C239  S    
C230  H248  S    
C127  H92   S    
C40   C60   S    
O42   Zn14  S    
C174  C175  S    
C40   H36   S    
C111  C115  S    
C198  H183  S    
C201  H191  S    
O38   Zn6   S    
C91   O31   A    
C8    H68   S    
C13   C113  S    
C52   C56   S    
C138  N6    T    
C153  N21   T    
C98   O34   A    
