data_mof_unit_67471.cif
_audit_creation_date              2013-03-05T15:40:59-0500
_audit_creation_method            fapswitch 2.2
_symmetry_space_group_name_H-M    P1
_symmetry_Int_Tables_number       1
_space_group_crystal_system       triclinic
_cell_length_a                    10.866754
_cell_length_b                    8.810402
_cell_length_c                    7.586522
_cell_angle_alpha                 102.934227
_cell_angle_beta                  94.988518
_cell_angle_gamma                 94.524163
_cell_volume                      701.600058466

loop_
_atom_site_label
_atom_site_type_symbol
_atom_site_description
_atom_site_fract_x
_atom_site_fract_y
_atom_site_fract_z
_atom_type_partial_charge
O1    O     O_R   0.509140 0.286130 0.619770 -0.522838
O2    O     O_R   0.485380 0.256770 0.308360 -0.619727
C1    C     C_R   0.500902 0.200970 0.453068 0.814088
O3    O     O_R   0.329570 0.514650 0.655700 -0.595094
O4    O     O_R   0.305810 0.485300 0.344290 -0.560140
C2    C     C_R   0.260031 0.499110 0.501058 0.775531
Cu1   Cu    Cu3+1 0.514070 0.517380 0.684380 0.973383
Cu2   Cu    Cu3+1 0.485930 0.482620 0.315620 0.944446
O5    O     O_R   0.514620 0.743230 0.691640 -0.605890
O6    O     O_R   0.490860 0.713870 0.380230 -0.567771
O7    O     O_R   0.694190 0.514700 0.655710 -0.544185
O8    O     O_R   0.670430 0.485350 0.344300 -0.601725
C3    C     C_R   0.510420 0.799072 0.544964 0.822775
C4    C     C_R   0.739171 0.500637 0.500703 0.905277
C5    C     C_3   0.078958 0.446816 0.683739 0.250212
C6    C     C_3   0.931244 0.446588 0.682610 0.333147
C7    C     C_3   0.083136 0.675597 0.499615 0.166790
C8    C     C_3   0.049210 0.375778 0.330577 0.319229
C9    C     C_3   0.120900 0.501617 0.505083 0.012106
C10   C     C_3   0.877525 0.503745 0.507722 -0.045526
C11   C     C_3   0.934718 0.675360 0.502360 0.377840
C12   C     C_3   0.907001 0.383349 0.335675 -0.555740
H1    H     H_    0.857926 0.266015 0.325692 0.179331
H2    H     H_    0.863661 0.409421 0.209705 0.169702
C13   C     C_2   0.503441 0.032820 0.423541 0.056501
C14   C     C_2   0.529290 0.966593 0.565995 -0.077218
N1    N     N_2   0.464720 0.456420 0.038520 -0.034420
N2    N     N_2   0.535280 0.543580 0.961480 -0.183072
H3    H     H_    0.570768 0.648989 0.046351 0.221664
N3    N     N_3   0.142141 0.544267 0.857998 -0.626723
H4    H     H_    0.147643 0.664355 0.875442 0.247301
H5    H     H_    0.227624 0.512531 0.900997 0.276915
N4    N     N_3   0.121019 0.719837 0.334318 -0.615500
H6    H     H_    0.217452 0.730628 0.339991 0.240424
H7    H     H_    0.095886 0.831361 0.330830 0.227547
N5    N     N_2   0.875347 0.710528 0.334889 -0.412098
H8    H     H_    0.901348 0.654140 0.213316 0.249922
C15   C     C_3   0.827923 0.858749 0.328609 -0.702377
H9    H     H_    0.781474 0.852185 0.190364 0.218534
H10   H     H_    0.905057 0.953769 0.358429 0.217649
H11   H     H_    0.757614 0.884913 0.425568 0.245857
N6    N     N_2   0.493206 0.943394 0.238994 -0.421151
H12   H     H_    0.552196 0.988093 0.159457 0.240572
C16   C     C_3   0.369202 0.891353 0.147543 -0.666329
H13   H     H_    0.350032 0.763399 0.130724 0.260277
H14   H     H_    0.362884 0.910428 0.007479 0.211496
H15   H     H_    0.297305 0.952496 0.223167 0.196541
N7    N     N_3   0.590943 0.057091 0.736134 -0.580419
H16   H     H_    0.550650 0.018383 0.840363 0.215947
H17   H     H_    0.682989 0.030141 0.744222 0.215469
N8    N     N_2   0.450657 0.302756 0.947017 -0.226668
H18   H     H_    0.523391 0.247219 0.988810 0.273623
C17   C     C_3   0.331934 0.220533 0.955672 -0.616941
H19   H     H_    0.306265 0.128661 0.828694 0.184078
H20   H     H_    0.260607 0.301349 0.979268 0.235778
H21   H     H_    0.333531 0.163676 0.070030 0.228050
N9    N     N_3   0.112364 0.285988 0.673688 -0.603788
H22   H     H_    0.206417 0.277615 0.661800 0.239790
H23   H     H_    0.090758 0.244522 0.785983 0.204724
N10   N     N_3   0.869494 0.286997 0.671330 -0.594520
H24   H     H_    0.885998 0.253958 0.794664 0.197868
H25   H     H_    0.899797 0.199820 0.572682 0.234765
N11   N     N_3   0.893644 0.549167 0.849334 -0.572444
H26   H     H_    0.959507 0.628170 0.936693 0.206592
H27   H     H_    0.844123 0.487536 0.927720 0.229422
N12   N     N_3   0.149879 0.794797 0.653961 -0.668461
H28   H     H_    0.132611 0.907125 0.640897 0.219269
H29   H     H_    0.245825 0.792329 0.653501 0.217040
N13   N     N_3   0.901980 0.791523 0.661453 -0.581056
H30   H     H_    0.957751 0.792565 0.779544 0.228365
H31   H     H_    0.922891 0.905501 0.647157 0.212777
N14   N     N_3   0.083990 0.405809 0.158294 -0.558823
H32   H     H_    0.038486 0.495349 0.124733 0.252465
H33   H     H_    0.047318 0.309387 0.055710 0.187730
N15   N     N_3   0.078081 0.214912 0.331441 -0.594042
H34   H     H_    0.171148 0.204224 0.310208 0.217689
H35   H     H_    0.025291 0.133968 0.224062 0.198188

loop_
_geom_bond_atom_site_label_1
_geom_bond_atom_site_label_2
_geom_bond_distance
_ccdc_geom_bond_type
C13   N6    1.434783 S    
O4    Cu2   1.989473 S    
C5    C9    1.625900 S    
N15   H34   1.046027 S    
N11   H27   1.045072 S    
C8    N15   1.476873 S    
N8    H18   1.025441 S    
C6    N11   1.489960 S    
N14   H33   1.040605 S    
C5    N9    1.477484 S    
N12   H29   1.044855 S    
C16   H15   1.111645 S    
C14   N7    1.433622 S    
Cu2   O8    1.995442 S    
N1    N2    1.305826 D    
N14   H32   1.030161 S    
N5    C15   1.450153 S    
N4    H6    1.040977 S    
C7    N12   1.477063 S    
N6    C16   1.450837 S    
Cu1   Cu2   2.732544 S    
C11   N5    1.480436 S    
C6    C10   1.601722 S    
C17   H19   1.108861 S    
C10   C11   1.599295 S    
N3    H5    1.037588 S    
C2    C9    1.516657 S    
N15   H35   1.046618 S    
N2    H3    1.028785 S    
N9    H22   1.040728 S    
O4    C2    1.313176 A    
C7    N4    1.475551 S    
C15   H11   1.107962 S    
O3    Cu1   1.995443 S    
N7    H17   1.045913 S    
N7    H16   1.044341 S    
C15   H10   1.107307 S    
O8    C4    1.320038 A    
Cu1   O7    1.989473 S    
Cu1   O5    1.977750 S    
N13   H30   1.034905 S    
C17   H20   1.092670 S    
C8    N14   1.464963 S    
N3    H4    1.032699 S    
N4    H7    1.045679 S    
O7    C4    1.296710 A    
C12   H2    1.106770 S    
C3    C14   1.444648 S    
N9    H23   1.036801 S    
O3    C2    1.312918 A    
N6    H12   1.031468 S    
C10   C12   1.561382 S    
N8    C17   1.442949 S    
N11   H26   1.033630 S    
C4    C10   1.497627 S    
C1    C13   1.450746 S    
C15   H9    1.110980 S    
C16   H13   1.106558 S    
C5    N3    1.482336 S    
N10   H25   1.041100 S    
C8    C9    1.617434 S    
C6    N10   1.490607 S    
C17   H21   1.094184 S    
C11   N13   1.486572 S    
N12   H28   1.046149 S    
N13   H31   1.043473 S    
Cu2   N1    2.053257 S    
O5    C3    1.312310 A    
C12   H1    1.108934 S    
N5    H8    1.019631 S    
O1    Cu1   1.981237 S    
O2    C1    1.303022 A    
C16   H14   1.109572 S    
C7    C9    1.626179 S    
C13   C14   1.357457 D    
C8    C12   1.555492 S    
Cu2   O6    1.981237 S    
O2    Cu2   1.977751 S    
Cu1   N2    2.053257 S    
C5    C6    1.604287 S    
N1    N8    1.366135 S    
N10   H24   1.045643 S    
O1    C1    1.309702 A    
O6    C3    1.295852 A    
C7    C11   1.614612 S    
