data_mof_unit_15779.cif
_audit_creation_date              2012-12-11T14:42:24-0500
_audit_creation_method            fapswitch 2.2
_symmetry_space_group_name_H-M    P1
_symmetry_Int_Tables_number       1
_space_group_crystal_system       triclinic
_cell_length_a                    18.958967
_cell_length_b                    10.918887
_cell_length_c                    18.822546
_cell_angle_alpha                 90.186007
_cell_angle_beta                  90.402743
_cell_angle_gamma                 90.086051
_cell_volume                      3896.34932737

loop_
_atom_site_label
_atom_site_type_symbol
_atom_type_description
_atom_site_fract_x
_atom_site_fract_y
_atom_site_fract_z
_atom_type_partial_charge
C1    C     C_R   0.708838 0.002269 0.861114 0.559672
C2    C     C_R   0.220612 0.482617 0.937129 -0.024272
C3    C     C_R   0.279726 0.983065 0.062968 -0.024519
C4    C     C_R   0.720612 0.982618 0.937129 -0.024152
C5    C     C_R   0.829426 0.416347 0.024918 -0.140023
C6    C     C_R   0.170828 0.415791 0.974981 -0.139129
C7    C     C_R   0.329431 0.916359 0.024914 -0.140174
C8    C     C_R   0.670827 0.915791 0.974981 -0.139281
C9    C     C_R   0.819009 0.392751 0.953835 -0.160320
C10   C     C_R   0.181292 0.391904 0.045960 -0.159468
C11   C     C_R   0.319013 0.892764 0.953832 -0.159559
C12   C     C_R   0.291332 0.002364 0.139055 0.560689
C13   C     C_R   0.681291 0.891905 0.045960 -0.159637
C14   C     C_R   0.756813 0.430589 0.919011 0.012521
C15   C     C_R   0.243474 0.429929 0.080967 0.013002
C16   C     C_R   0.256817 0.930597 0.919007 0.013100
C17   C     C_R   0.743472 0.929930 0.080968 0.012777
C18   C     C_R   0.471021 0.270092 0.545305 -0.133805
C19   C     C_R   0.467286 0.275627 0.472899 -0.126970
C20   C     C_R   0.973809 0.773814 0.544956 -0.138804
C21   C     C_R   0.971281 0.778136 0.472520 -0.134056
C22   C     C_R   0.483106 0.171900 0.431728 0.039490
C23   C     C_R   0.208837 0.502269 0.861114 0.561056
C24   C     C_R   0.495926 0.163659 0.577251 0.052960
C25   C     C_R   0.981872 0.671273 0.432428 0.039460
C26   C     C_R   0.993442 0.665050 0.578244 0.033613
C27   C     C_R   0.500457 0.061138 0.463998 -0.146857
C28   C     C_R   0.507686 0.057189 0.537035 -0.122158
C29   C     C_R   0.992109 0.558687 0.466147 -0.124683
C30   C     C_R   0.998596 0.555545 0.539405 -0.126882
C31   C     C_R   0.799385 0.323822 0.529318 0.243432
C32   C     C_R   0.182966 0.386778 0.457259 0.237822
C33   C     C_R   0.317440 0.900541 0.544635 0.234932
C34   C     C_R   0.791331 0.502362 0.139055 0.559988
C35   C     C_R   0.684905 0.877941 0.459309 0.233772
C36   C     C_R   0.798039 0.332387 0.456068 -0.120863
C37   C     C_R   0.180084 0.392154 0.530636 -0.120101
C38   C     C_R   0.322492 0.909980 0.471409 -0.120210
C39   C     C_R   0.682863 0.881534 0.532644 -0.125804
C40   C     C_R   0.529688 0.177727 0.850795 0.551065
C41   C     C_R   0.470406 0.177587 0.149264 0.553010
C42   C     C_R   0.029690 0.677727 0.850797 0.549180
C43   C     C_R   0.970406 0.677587 0.149264 0.553363
C44   C     C_R   0.752078 0.413171 0.422250 -0.006818
C45   C     C_R   0.721307 0.533806 0.027266 -0.065738
C46   C     C_R   0.237966 0.433691 0.570827 -0.002202
C47   C     C_R   0.262933 0.936581 0.429476 -0.002075
C48   C     C_R   0.739942 0.927224 0.572400 -0.001019
C49   C     C_R   0.700437 0.475215 0.461291 -0.147943
C50   C     C_R   0.299193 0.473052 0.536655 -0.153303
C51   C     C_R   0.198103 0.959586 0.461516 -0.148578
C52   C     C_R   0.800917 0.966937 0.538024 -0.141416
C53   C     C_R   0.697321 0.460217 0.534492 -0.182810
C54   C     C_R   0.303820 0.463198 0.463176 -0.184141
C55   C     C_R   0.191934 0.947294 0.534639 -0.179780
C56   C     C_R   0.279170 0.533161 0.973007 -0.065987
C57   C     C_R   0.805145 0.957880 0.464477 -0.186423
C58   C     C_R   0.747365 0.386802 0.569252 0.062382
C59   C     C_R   0.247137 0.414709 0.423582 0.066122
C60   C     C_R   0.250863 0.913441 0.576100 0.064721
C61   C     C_R   0.748186 0.909909 0.424993 0.066212
C62   C     C_R   0.739579 0.367755 0.851714 0.527853
C63   C     C_R   0.260492 0.367552 0.148254 0.529305
C64   C     C_R   0.239579 0.867757 0.851713 0.530161
C65   C     C_R   0.760491 0.867553 0.148255 0.529061
C66   C     C_R   0.726883 0.956845 0.646414 0.558000
C67   C     C_R   0.221311 0.033815 0.027263 -0.065784
C68   C     C_R   0.274170 0.959822 0.354552 0.558429
C69   C     C_R   0.226164 0.458828 0.645638 0.559642
C70   C     C_R   0.771521 0.454059 0.351855 0.558028
C71   C     C_R   0.528077 0.175297 0.646026 0.557769
C72   C     C_R   0.467138 0.177046 0.357266 0.556625
C73   C     C_R   0.027484 0.675462 0.646382 0.550651
C74   C     C_R   0.966644 0.676938 0.357634 0.558785
C75   C     C_R   0.738438 0.356900 0.644154 0.566001
C76   C     C_R   0.259928 0.364724 0.352966 0.570778
C77   C     C_R   0.239615 0.863748 0.646762 0.577577
C78   C     C_R   0.779169 0.033161 0.973008 -0.065973
C79   C     C_R   0.760159 0.863765 0.353395 0.569874
C80   C     C_2   0.497890 0.169778 0.921271 -0.101379
C81   C     C_2   0.502396 0.169483 0.078877 -0.102119
C82   C     C_2   0.997892 0.669779 0.921272 -0.102330
C83   C     C_2   0.002396 0.669483 0.078878 -0.101801
C84   C     C_2   0.494041 0.068872 0.038460 -0.165722
C85   C     C_2   0.506140 0.069045 0.961264 -0.164987
C86   C     C_2   0.994040 0.568872 0.038460 -0.165574
C87   C     C_2   0.006140 0.569046 0.961264 -0.165235
C88   C     C_R   0.709644 0.509558 0.955100 0.230052
C89   C     C_R   0.779722 0.483057 0.062970 -0.024070
C90   C     C_R   0.290792 0.508877 0.045108 0.230465
C91   C     C_R   0.209648 0.009568 0.955097 0.230160
C92   C     C_R   0.790790 0.008879 0.045110 0.230360
Cr1   Cr    Cr6+3 0.769270 0.163730 0.750710 1.051290
Cr2   Cr    Cr6+3 0.385840 0.322500 0.252290 1.032289
Cr3   Cr    Cr6+3 0.114160 0.822500 0.747710 1.032338
Cr4   Cr    Cr6+3 0.885840 0.822500 0.252290 1.030256
Cr5   Cr    Cr6+3 0.230730 0.163730 0.249290 1.050214
Cr6   Cr    Cr6+3 0.269270 0.663730 0.750710 1.046879
Cr7   Cr    Cr6+3 0.730730 0.663730 0.249290 1.048679
Cr8   Cr    Cr6+3 0.612620 0.009790 0.748780 1.026744
Cr9   Cr    Cr6+3 0.387380 0.009790 0.251220 1.027478
Cr10  Cr    Cr6+3 0.112620 0.509790 0.748780 1.021414
Cr11  Cr    Cr6+3 0.887380 0.509790 0.251220 1.029040
Cr12  Cr    Cr6+3 0.614160 0.322500 0.747710 1.033823
H1    H     H_    0.477515 0.983485 0.062317 0.145225
H2    H     H_    0.343203 0.510729 0.566577 0.140488
H3    H     H_    0.152336 0.984776 0.430062 0.144086
H4    H     H_    0.844895 0.004725 0.567882 0.156897
H5    H     H_    0.656535 0.507124 0.563981 0.134823
H6    H     H_    0.352635 0.488662 0.437682 0.128522
H7    H     H_    0.140236 0.957618 0.558048 0.144047
H8    H     H_    0.853757 0.984145 0.438815 0.121782
H9    H     H_    0.523232 0.253257 0.056147 0.130291
H10   H     H_    0.477193 0.253523 0.944339 0.130140
H11   H     H_    0.023234 0.753255 0.056148 0.130327
H12   H     H_    0.522612 0.983730 0.937047 0.145663
H13   H     H_    0.977195 0.753525 0.944340 0.130187
H14   H     H_    0.684217 0.591342 0.055383 0.159459
H15   H     H_    0.316344 0.590713 0.945092 0.158878
H16   H     H_    0.184221 0.091350 0.055380 0.159328
H17   H     H_    0.816343 0.090713 0.945093 0.158864
H18   H     H_    0.875325 0.377407 0.050636 0.155450
H19   H     H_    0.124762 0.377079 0.949168 0.155546
H20   H     H_    0.375329 0.877419 0.050633 0.155473
H21   H     H_    0.624762 0.877079 0.949168 0.155663
H22   H     H_    0.858050 0.336203 0.927822 0.153938
H23   H     H_    0.977511 0.483486 0.062317 0.145121
H24   H     H_    0.142214 0.335244 0.071772 0.154680
H25   H     H_    0.358055 0.836218 0.927818 0.154666
H26   H     H_    0.642212 0.835244 0.071772 0.154726
H27   H     H_    0.460584 0.352526 0.575710 0.128546
H28   H     H_    0.451275 0.361563 0.449451 0.134497
H29   H     H_    0.967387 0.858675 0.574256 0.130242
H30   H     H_    0.960167 0.865827 0.448276 0.132146
H31   H     H_    0.509097 0.979259 0.432784 0.145719
H32   H     H_    0.526581 0.973671 0.561355 0.126726
H33   H     H_    0.995856 0.474491 0.435953 0.145230
H34   H     H_    0.022612 0.483731 0.937048 0.145365
H35   H     H_    0.012120 0.469857 0.564872 0.131301
H36   H     H_    0.662482 0.573985 0.872001 0.339846
H37   H     H_    0.338020 0.573593 0.128399 0.340538
H38   H     H_    0.162486 0.073989 0.871997 0.340304
H39   H     H_    0.838013 0.073601 0.128402 0.339937
H40   H     H_    0.883902 0.220345 0.526377 0.299313
H41   H     H_    0.086416 0.324334 0.450319 0.301102
H42   H     H_    0.416478 0.855027 0.554667 0.304723
H43   H     H_    0.588978 0.811790 0.453306 0.297413
H44   H     H_    0.837327 0.282850 0.425885 0.119753
H45   H     H_    0.130995 0.367308 0.555915 0.120566
H46   H     H_    0.373910 0.898932 0.447526 0.125516
H47   H     H_    0.634607 0.853039 0.558225 0.116792
H48   H     H_    0.664638 0.539000 0.435873 0.159709
O1    O     O_R   0.784320 0.290430 0.830510 -0.539630
O2    O     O_R   0.456080 0.282180 0.333210 -0.525694
O3    O     O_R   0.043920 0.782180 0.666790 -0.524305
O4    O     O_R   0.956080 0.782180 0.333210 -0.527993
O5    O     O_R   0.679040 0.374160 0.674430 -0.520957
O6    O     O_R   0.320960 0.374160 0.325570 -0.528011
O7    O     O_R   0.179040 0.874160 0.674430 -0.524486
O8    O     O_R   0.820960 0.874160 0.325570 -0.528037
O9    O     O_3   0.665350 0.165340 0.749070 -0.276486
O10   O     O_3   0.334650 0.165340 0.250930 -0.278868
O11   O     O_3   0.165350 0.665340 0.749070 -0.274477
O12   O     O_R   0.215680 0.290430 0.169490 -0.537125
O13   O     O_3   0.834650 0.665340 0.250930 -0.276798
O14   O     O_R   0.762640 0.040960 0.825200 -0.503123
O15   O     O_R   0.237360 0.040960 0.174800 -0.501345
O16   O     O_R   0.262640 0.540960 0.825200 -0.501425
O17   O     O_R   0.737360 0.540960 0.174800 -0.502458
O18   O     O_R   0.667400 0.923970 0.829950 -0.509318
O19   O     O_R   0.332600 0.923970 0.170050 -0.507282
O20   O     O_R   0.167400 0.423970 0.829950 -0.507930
O21   O     O_R   0.832600 0.423970 0.170050 -0.509827
O22   O     O_R   0.553960 0.081340 0.821780 -0.514886
O23   O     O_R   0.284320 0.790430 0.830510 -0.536479
O24   O     O_R   0.446040 0.081340 0.178220 -0.513759
O25   O     O_R   0.053960 0.581340 0.821780 -0.516801
O26   O     O_R   0.946040 0.581340 0.178220 -0.513670
O27   O     O_R   0.543180 0.283240 0.826740 -0.491740
O28   O     O_R   0.456820 0.283240 0.173260 -0.489282
O29   O     O_R   0.043180 0.783240 0.826740 -0.491447
O30   O     O_R   0.956820 0.783240 0.173260 -0.489542
O31   O     O_R   0.678360 0.375140 0.822710 -0.488806
O32   O     O_R   0.321640 0.375140 0.177290 -0.489478
O33   O     O_R   0.178360 0.875140 0.822710 -0.489021
O34   O     O_R   0.715680 0.790430 0.169490 -0.536996
O35   O     O_R   0.821640 0.875140 0.177290 -0.489779
O36   O     O_R   0.785050 0.289380 0.670560 -0.440238
O37   O     O_R   0.214950 0.289380 0.329440 -0.442248
O38   O     O_R   0.285050 0.789380 0.670560 -0.447928
O39   O     O_R   0.714950 0.789380 0.329440 -0.442654
O40   O     O_R   0.763320 0.039990 0.676930 -0.479892
O41   O     O_R   0.236680 0.039990 0.323070 -0.490389
O42   O     O_R   0.263320 0.539990 0.676930 -0.493873
O43   O     O_R   0.736680 0.539990 0.323070 -0.493511
O44   O     O_R   0.668130 0.922920 0.670000 -0.525884
O45   O     O_R   0.554640 0.080370 0.673500 -0.501413
O46   O     O_R   0.331870 0.922920 0.330000 -0.521408
O47   O     O_R   0.168130 0.422920 0.670000 -0.521495
O48   O     O_R   0.831870 0.422920 0.330000 -0.521151
O49   O     O_3   0.651787 0.562551 0.922951 -0.689089
O50   O     O_3   0.348744 0.561910 0.077436 -0.688592
O51   O     O_3   0.151792 0.062560 0.922947 -0.689123
O52   O     O_3   0.848740 0.061911 0.077439 -0.688879
O53   O     O_3   0.851241 0.254585 0.562248 -0.685042
O54   O     O_3   0.124515 0.350712 0.417930 -0.685509
O55   O     O_3   0.376205 0.874942 0.585920 -0.683098
O56   O     O_R   0.445360 0.080370 0.326500 -0.502643
O57   O     O_3   0.626403 0.839980 0.420615 -0.691113
O58   O     O_R   0.054640 0.580370 0.673500 -0.506336
O59   O     O_R   0.945360 0.580370 0.326500 -0.496596
O60   O     O_R   0.543920 0.282180 0.666790 -0.523621

loop_
_geom_bond_atom_site_label_1
_geom_bond_atom_site_label_2
_ccdc_geom_bond_type
C44   C49   A    
C45   H14   S    
Cr7   O39   S    
C65   O35   A    
C43   O26   A    
C8    C13   A    
C30   H35   S    
Cr7   O43   S    
C43   C83   S    
C47   C68   S    
C41   O28   A    
C75   O36   A    
C42   C82   S    
Cr12  O5    S    
C4    C8    A    
C12   O15   A    
Cr6   O11   S    
C72   O56   A    
C7    C11   A    
C76   O6    A    
C29   C30   A    
C18   C24   A    
C77   O38   A    
C31   C58   A    
Cr9   O10   S    
C31   O53   S    
C3    C7    A    
C10   C15   A    
C31   C36   A    
Cr12  O27   S    
C42   O25   A    
C82   C87   D    
C14   C62   S    
C39   H47   S    
C1    O18   A    
Cr11  O21   S    
C26   C73   S    
Cr4   O30   S    
Cr6   O42   S    
C68   O46   A    
C25   C74   S    
Cr5   O41   S    
C78   H17   S    
C46   C69   S    
C21   C25   A    
C76   O37   A    
C62   O31   A    
C36   H44   S    
C23   O20   A    
Cr10  O11   S    
C66   O40   A    
C13   H26   S    
C40   C80   S    
C44   C70   S    
C68   O41   A    
C3    C12   S    
C88   O49   S    
C45   C89   A    
C67   H16   S    
C7    H20   S    
C9    H22   S    
C51   C55   A    
C64   O33   A    
C92   O52   S    
Cr6   O38   S    
Cr8   O45   S    
C75   O5    A    
C56   C90   A    
H39   O52   S    
Cr2   O6    S    
C79   O39   A    
C55   C60   A    
C25   C29   A    
Cr4   O35   S    
C18   H27   S    
C2    C6    A    
C17   C92   A    
Cr2   O32   S    
C6    H19   S    
C10   H24   S    
C11   H25   S    
C22   C72   S    
H41   O54   S    
C58   C75   S    
C71   O45   A    
C12   O19   A    
C54   C59   A    
Cr8   O44   S    
C42   O29   A    
Cr10  O20   S    
C63   O12   A    
C60   C77   S    
C72   O2    A    
Cr8   O18   S    
C83   H11   S    
C73   O58   A    
C19   C22   A    
H43   O57   S    
C84   C85   S    
Cr11  O59   S    
Cr12  O9    S    
Cr9   O46   S    
C18   C19   A    
C47   C51   A    
C78   C92   A    
Cr5   O15   S    
C5    H18   S    
C54   H6    S    
Cr12  O31   S    
C35   C39   A    
C9    C14   A    
C5    C9    A    
C80   C85   D    
Cr9   O56   S    
Cr3   O11   S    
C40   O27   A    
C11   C16   A    
C70   O43   A    
C90   O50   S    
Cr1   O9    S    
Cr2   O2    S    
Cr5   O12   S    
C41   C81   S    
C73   O3    A    
Cr3   O29   S    
C67   C91   A    
C84   H1    S    
C74   O4    A    
C35   C61   A    
C50   C54   A    
C32   C37   A    
H37   O50   S    
C64   O23   A    
C38   C47   A    
Cr8   O9    S    
C34   O17   A    
C77   O7    A    
C45   C88   A    
Cr4   O8    S    
C41   O24   A    
C80   H10   S    
Cr1   O14   S    
Cr11  O13   S    
C33   C60   A    
C22   C27   A    
Cr8   O22   S    
C20   H29   S    
C56   H15   S    
Cr3   O7    S    
C36   C44   A    
Cr12  O60   S    
C87   H34   S    
C32   O54   S    
C21   H30   S    
C79   O8    A    
C81   C84   D    
Cr3   O33   S    
C2    C23   S    
C50   H2    S    
H40   O53   S    
Cr1   O40   S    
C53   H5    S    
C19   H28   S    
Cr2   O10   S    
C65   O34   A    
C33   O55   S    
C70   O48   A    
C63   O32   A    
C49   H48   S    
C55   H7    S    
C86   H23   S    
C86   C87   S    
C85   H12   S    
C3    C67   A    
C24   C28   A    
C37   H45   S    
H42   O55   S    
C5    C89   A    
C6    C10   A    
C66   O44   A    
C53   C58   A    
C57   C61   A    
Cr7   O17   S    
C4    C78   A    
C29   H33   S    
C46   C50   A    
C43   O30   A    
C17   C65   S    
C33   C38   A    
C82   H13   S    
C62   O1    A    
C13   C17   A    
C74   O59   A    
C28   H32   S    
Cr11  O26   S    
C27   H31   S    
H38   O51   S    
C1    C4    S    
Cr1   O1    S    
C35   O57   S    
C34   C89   S    
Cr10  O58   S    
C34   O21   A    
C2    C56   A    
Cr10  O47   S    
C15   C90   A    
C40   O22   A    
Cr6   O23   S    
Cr4   O4    S    
C20   C26   A    
C1    O14   A    
C61   C79   S    
Cr5   O10   S    
C49   C53   A    
Cr5   O37   S    
C69   O42   A    
Cr9   O19   S    
Cr3   O3    S    
Cr11  O48   S    
Cr6   O16   S    
Cr2   O28   S    
C52   C57   A    
C14   C88   A    
C23   O16   A    
C57   H8    S    
Cr1   O36   S    
C8    H21   S    
C48   C52   A    
C83   C86   D    
C20   C21   A    
C52   H4    S    
C16   C91   A    
C51   H3    S    
C71   O60   A    
C81   H9    S    
C27   C28   A    
C69   O47   A    
Cr10  O25   S    
C15   C63   S    
Cr4   O13   S    
Cr9   O24   S    
C16   C64   S    
C32   C59   A    
C48   C66   S    
C37   C46   A    
H36   O49   S    
C59   C76   S    
C38   H46   S    
Cr7   O34   S    
C91   O51   S    
C24   C71   S    
C39   C48   A    
Cr7   O13   S    
C26   C30   A    
