data_mof_unit_21261.cif
_audit_creation_date              2012-12-11T14:54:22-0500
_audit_creation_method            fapswitch 2.2
_symmetry_space_group_name_H-M    P1
_symmetry_Int_Tables_number       1
_space_group_crystal_system       triclinic
_cell_length_a                    18.856681
_cell_length_b                    10.930205
_cell_length_c                    18.770317
_cell_angle_alpha                 89.78637
_cell_angle_beta                  90.421897
_cell_angle_gamma                 90.055249
_cell_volume                      3868.56755625

loop_
_atom_site_label
_atom_site_type_symbol
_atom_type_description
_atom_site_fract_x
_atom_site_fract_y
_atom_site_fract_z
_atom_type_partial_charge
C1    C     C_R   0.728595 0.374351 0.644326 0.540378
C2    C     C_R   0.269090 0.377523 0.353453 0.537553
C3    C     C_R   0.228594 0.874351 0.644326 0.540377
C4    C     C_R   0.769090 0.877523 0.353453 0.537553
C5    C     C_3   0.443365 0.350266 0.475809 -0.245813
C6    C     C_3   0.466124 0.347946 0.553499 -0.273412
C7    C     C_3   0.943365 0.850266 0.475809 -0.245812
C8    C     C_3   0.966124 0.847946 0.553499 -0.273412
C9    C     C_R   0.707507 0.852158 0.539918 -0.200623
C10   C     C_R   0.309262 0.886863 0.463360 -0.149486
C11   C     C_R   0.207507 0.352158 0.539918 -0.200623
C12   C     C_R   0.809262 0.386863 0.463360 -0.149486
C13   C     C_R   0.707683 0.837210 0.466536 -0.160376
C14   C     C_R   0.304494 0.878972 0.536988 -0.100876
C15   C     C_R   0.207683 0.337210 0.466536 -0.160376
C16   C     C_R   0.804494 0.378973 0.536988 -0.100875
C17   C     C_R   0.748564 0.915737 0.423793 -0.025766
C18   C     C_R   0.239405 0.899955 0.569421 -0.015513
C19   C     C_R   0.248564 0.415737 0.423793 -0.025766
C20   C     C_R   0.739405 0.399955 0.569421 -0.015513
C21   C     C_R   0.785456 0.012749 0.453843 -0.086232
C22   C     C_R   0.178817 0.924077 0.527695 -0.074204
C23   C     C_R   0.285456 0.512749 0.453843 -0.086232
C24   C     C_R   0.678817 0.424077 0.527695 -0.074204
C25   C     C_R   0.790064 0.022822 0.526558 0.222217
C26   C     C_R   0.181874 0.923514 0.454549 0.220427
C27   C     C_R   0.290065 0.522822 0.526558 0.222218
C28   C     C_R   0.681874 0.423513 0.454549 0.220427
C29   C     C_R   0.749133 0.943883 0.570704 0.019219
C30   C     C_R   0.248535 0.913895 0.421978 0.004676
C31   C     C_R   0.249133 0.443883 0.570704 0.019219
C32   C     C_R   0.748535 0.413895 0.421978 0.004677
C33   C     C_R   0.502485 0.057115 0.964139 -0.153330
C34   C     C_R   0.498730 0.057448 0.036560 -0.152736
C35   C     C_R   0.002485 0.557115 0.964138 -0.153329
C36   C     C_R   0.998730 0.557449 0.036560 -0.152736
C37   C     C_R   0.494094 0.167401 0.073937 0.002185
C38   C     C_R   0.505824 0.166795 0.925937 0.001331
C39   C     C_R   0.994094 0.667401 0.073937 0.002185
C40   C     C_R   0.005824 0.666795 0.925937 0.001331
C41   C     C_R   0.497619 0.280383 0.036871 -0.045193
C42   C     C_R   0.501046 0.280041 0.962132 -0.044853
C43   C     C_R   0.997618 0.780383 0.036871 -0.045193
C44   C     C_R   0.001046 0.780041 0.962132 -0.044853
C45   C     C_R   0.564683 0.150907 0.639378 0.555483
C46   C     C_R   0.468901 0.155018 0.353232 0.537910
C47   C     C_R   0.064683 0.650907 0.639378 0.555483
C48   C     C_R   0.968901 0.655018 0.353232 0.537910
C49   C     C_R   0.781266 0.058613 0.978578 -0.133406
C50   C     C_R   0.218124 0.057307 0.021223 -0.133447
C51   C     C_R   0.281266 0.558613 0.978578 -0.133406
C52   C     C_R   0.718123 0.557306 0.021223 -0.133447
C53   C     C_R   0.788360 0.034030 0.051141 0.233405
C54   C     C_R   0.211044 0.032795 0.948747 0.234051
C55   C     C_R   0.288361 0.534030 0.051141 0.233404
C56   C     C_R   0.711043 0.532794 0.948747 0.234051
C57   C     C_R   0.743817 0.944823 0.082863 0.048080
C58   C     C_R   0.255928 0.944340 0.917188 0.048547
C59   C     C_R   0.243817 0.444823 0.082863 0.048080
C60   C     C_R   0.755928 0.444340 0.917188 0.048548
C61   C     C_R   0.683526 0.903394 0.044687 -0.081562
C62   C     C_R   0.316414 0.903776 0.955442 -0.082053
C63   C     C_R   0.183526 0.403395 0.044687 -0.081564
C64   C     C_R   0.816414 0.403776 0.955442 -0.082053
C65   C     C_R   0.676896 0.930998 0.972255 -0.150900
C66   C     C_R   0.323086 0.931502 0.027785 -0.150240
C67   C     C_R   0.176896 0.430998 0.972255 -0.150903
C68   C     C_R   0.823086 0.431503 0.027785 -0.150241
C69   C     C_R   0.728664 0.001952 0.938139 -0.023450
C70   C     C_R   0.271063 0.001569 0.061786 -0.022508
C71   C     C_R   0.228664 0.501952 0.938139 -0.023450
C72   C     C_R   0.771062 0.501569 0.061786 -0.022508
C73   C     C_R   0.740934 0.973576 0.645589 0.556496
C74   C     C_R   0.258159 0.966312 0.351652 0.542041
C75   C     C_R   0.240934 0.473576 0.645589 0.556496
C76   C     C_R   0.758159 0.466312 0.351652 0.542041
C77   C     C_R   0.731547 0.383362 0.851039 0.558812
C78   C     C_R   0.268414 0.383623 0.149008 0.556596
C79   C     C_R   0.231547 0.883362 0.851040 0.558813
C80   C     C_R   0.768414 0.883623 0.149008 0.556596
C81   C     C_R   0.531812 0.157436 0.853291 0.545519
C82   C     C_R   0.468140 0.157727 0.146646 0.535394
C83   C     C_R   0.031812 0.657436 0.853291 0.545519
C84   C     C_R   0.968140 0.657727 0.146646 0.535394
C85   C     C_R   0.726688 0.023694 0.861179 0.567258
C86   C     C_R   0.273210 0.023569 0.138689 0.564603
C87   C     C_R   0.226688 0.523694 0.861179 0.567258
C88   C     C_R   0.773211 0.523569 0.138689 0.564603
C89   C     C_R   0.509858 0.164317 0.418935 0.011178
C90   C     C_R   0.550466 0.158551 0.563226 0.005673
C91   C     C_R   0.009858 0.664317 0.418935 0.011178
C92   C     C_R   0.050466 0.658551 0.563226 0.005673
C93   C     C_R   0.505093 0.268872 0.461114 0.071884
C94   C     C_R   0.525551 0.266314 0.531778 0.030504
C95   C     C_R   0.005093 0.768872 0.461114 0.071884
C96   C     C_R   0.025551 0.766314 0.531778 0.030504
C97   C     C_R   0.564575 0.058133 0.519152 -0.155483
C98   C     C_R   0.545098 0.061208 0.447112 -0.152912
C99   C     C_R   0.064575 0.558133 0.519152 -0.155483
C100  C     C_R   0.045098 0.561208 0.447112 -0.152912
Cr1   Cr    Cr6+3 0.771950 0.169480 0.750100 1.062062
Cr2   Cr    Cr6+3 0.228050 0.169480 0.249900 1.060199
Cr3   Cr    Cr6+3 0.271950 0.669480 0.750100 1.062062
Cr4   Cr    Cr6+3 0.728050 0.669480 0.249900 1.060199
Cr5   Cr    Cr6+3 0.614930 0.323340 0.749170 1.062817
Cr6   Cr    Cr6+3 0.385070 0.323340 0.250830 1.072515
Cr7   Cr    Cr6+3 0.114930 0.823340 0.749170 1.062817
Cr8   Cr    Cr6+3 0.885070 0.823340 0.250830 1.072515
Cr9   Cr    Cr6+3 0.616590 0.010620 0.750610 1.041782
Cr10  Cr    Cr6+3 0.383410 0.010620 0.249390 1.042441
Cr11  Cr    Cr6+3 0.116590 0.510620 0.750610 1.041781
Cr12  Cr    Cr6+3 0.883410 0.510620 0.249390 1.042441
H1    H     H_    0.585793 0.974605 0.541507 0.143629
H2    H     H_    0.551674 0.979248 0.415584 0.146386
H3    H     H_    0.085793 0.474605 0.541507 0.143629
H4    H     H_    0.051674 0.479247 0.415584 0.146386
H5    H     H_    0.818354 0.119464 0.953147 0.146359
H6    H     H_    0.180815 0.117552 0.046468 0.146871
H7    H     H_    0.318354 0.619463 0.953147 0.146359
H8    H     H_    0.680814 0.617551 0.046468 0.146871
H9    H     H_    0.632503 0.894147 0.942256 0.150605
H10   H     H_    0.367789 0.895565 0.057800 0.151408
H11   H     H_    0.132502 0.394148 0.942256 0.150602
H12   H     H_    0.867789 0.395565 0.057800 0.151407
H13   H     H_    0.891566 0.804277 0.466166 0.140277
H14   H     H_    0.985610 0.937941 0.572901 0.143360
H15   H     H_    0.391566 0.304277 0.466166 0.140277
H16   H     H_    0.485610 0.437941 0.572901 0.143360
H17   H     H_    0.449227 0.441830 0.450558 0.177104
H18   H     H_    0.427289 0.301458 0.588794 0.147765
H19   H     H_    0.949227 0.941830 0.450558 0.177105
H20   H     H_    0.927289 0.801458 0.588794 0.147765
H21   H     H_    0.675303 0.792228 0.572515 0.138792
H22   H     H_    0.361142 0.878982 0.439408 0.152475
H23   H     H_    0.175303 0.292228 0.572515 0.138792
H24   H     H_    0.861142 0.378982 0.439408 0.152475
H25   H     H_    0.679052 0.760539 0.443843 0.169951
H26   H     H_    0.351359 0.858157 0.568463 0.168467
H27   H     H_    0.179052 0.260539 0.443843 0.169951
H28   H     H_    0.851359 0.358157 0.568463 0.168466
H29   H     H_    0.817485 0.073167 0.421241 0.156017
H30   H     H_    0.127424 0.937856 0.551605 0.162444
H31   H     H_    0.317485 0.573167 0.421241 0.156017
H32   H     H_    0.627424 0.437856 0.551605 0.162444
H33   H     H_    0.506165 0.968842 0.938532 0.167479
H34   H     H_    0.496026 0.969307 0.062832 0.168312
H35   H     H_    0.006164 0.468842 0.938532 0.167479
H36   H     H_    0.996026 0.469307 0.062832 0.168312
O1    O     O_R   0.787510 0.042610 0.670410 -0.486039
O2    O     O_R   0.212490 0.042610 0.329590 -0.485568
O3    O     O_R   0.287510 0.542610 0.670410 -0.486038
O4    O     O_R   0.712490 0.542610 0.329590 -0.485568
O5    O     O_R   0.556450 0.252890 0.823790 -0.487810
O6    O     O_R   0.443550 0.252890 0.176210 -0.491923
O7    O     O_R   0.056450 0.752890 0.823790 -0.487810
O8    O     O_R   0.943550 0.752890 0.176210 -0.491923
O9    O     O_R   0.545750 0.051070 0.830560 -0.520549
O10   O     O_R   0.454250 0.051070 0.169440 -0.525124
O11   O     O_R   0.045750 0.551070 0.830560 -0.520549
O12   O     O_R   0.954250 0.551070 0.169440 -0.525124
O13   O     O_R   0.681210 0.959150 0.825320 -0.486056
O14   O     O_R   0.318790 0.959150 0.174680 -0.488029
O15   O     O_R   0.181210 0.459150 0.825320 -0.486057
O16   O     O_R   0.818790 0.459150 0.174680 -0.488029
O17   O     O_3   0.667820 0.167810 0.749960 -0.310229
O18   O     O_3   0.332180 0.167810 0.250040 -0.287019
O19   O     O_3   0.167820 0.667810 0.749960 -0.310229
O20   O     O_3   0.832180 0.667810 0.250040 -0.287019
O21   O     O_R   0.765670 0.292090 0.675090 -0.475119
O22   O     O_R   0.234330 0.292090 0.324910 -0.499008
O23   O     O_R   0.265670 0.792090 0.675090 -0.475119
O24   O     O_R   0.734330 0.792090 0.324910 -0.499008
O25   O     O_R   0.670220 0.409020 0.668560 -0.536188
O26   O     O_R   0.329780 0.409020 0.331440 -0.524050
O27   O     O_R   0.170220 0.909020 0.668560 -0.536189
O28   O     O_R   0.829780 0.909020 0.331440 -0.524050
O29   O     O_R   0.556580 0.251590 0.674980 -0.500964
O30   O     O_R   0.443420 0.251590 0.325020 -0.493561
O31   O     O_R   0.056580 0.751590 0.674980 -0.500964
O32   O     O_R   0.943420 0.751590 0.325020 -0.493561
O33   O     O_R   0.545890 0.049670 0.670030 -0.508184
O34   O     O_R   0.454110 0.049670 0.329970 -0.520287
O35   O     O_R   0.045890 0.549670 0.670030 -0.508184
O36   O     O_R   0.954110 0.549670 0.329970 -0.520287
O37   O     O_R   0.681340 0.957860 0.676500 -0.517709
O38   O     O_R   0.318660 0.957860 0.323500 -0.503489
O39   O     O_R   0.181340 0.457860 0.676500 -0.517709
O40   O     O_R   0.818660 0.457860 0.323500 -0.503489
O41   O     O_R   0.787380 0.044010 0.830940 -0.490457
O42   O     O_R   0.212620 0.044010 0.169060 -0.492870
O43   O     O_R   0.287380 0.544010 0.830940 -0.490457
O44   O     O_R   0.712620 0.544010 0.169060 -0.492870
O45   O     O_R   0.765540 0.293390 0.823910 -0.523502
O46   O     O_R   0.234460 0.293390 0.176090 -0.523820
O47   O     O_R   0.265540 0.793390 0.823910 -0.523502
O48   O     O_R   0.734460 0.793390 0.176090 -0.523820
O49   O     O_R   0.670090 0.410410 0.829090 -0.433295
O50   O     O_R   0.329910 0.410410 0.170910 -0.434505
O51   O     O_R   0.170090 0.910410 0.829090 -0.433295
O52   O     O_R   0.829910 0.910410 0.170910 -0.434505
O53   O     O_3   0.839863 0.093127 0.091116 -0.650394
H37   H     H_    0.866105 0.151537 0.060489 0.327563
O54   O     O_3   0.159262 0.091390 0.908696 -0.649646
H38   H     H_    0.132868 0.149345 0.939177 0.327272
O55   O     O_3   0.339864 0.593127 0.091116 -0.650395
H39   H     H_    0.366106 0.651534 0.060488 0.327564
O56   O     O_3   0.659262 0.591389 0.908696 -0.649646
H40   H     H_    0.632863 0.649336 0.939179 0.327273
C101  C     C_1   0.627864 0.833333 0.078074 0.177666
N1    N     N_1   0.583186 0.777300 0.104826 -0.274442
C102  C     C_1   0.372329 0.834829 0.922145 0.178982
N2    N     N_1   0.417208 0.779670 0.895464 -0.273977
C103  C     C_1   0.127863 0.333333 0.078074 0.177666
N3    N     N_1   0.083186 0.277301 0.104827 -0.274441
C104  C     C_1   0.872329 0.334830 0.922145 0.178982
N4    N     N_1   0.917208 0.279670 0.895463 -0.273977
O57   O     O_3   0.835690 0.110274 0.552538 -0.697913
H41   H     H_    0.872631 0.065635 0.580025 0.332794
O58   O     O_3   0.119392 0.938630 0.416899 -0.698426
H42   H     H_    0.124463 0.897678 0.370170 0.337310
O59   O     O_3   0.335691 0.610274 0.552538 -0.697913
H43   H     H_    0.372630 0.565635 0.580025 0.332794
O60   O     O_3   0.619392 0.438630 0.416899 -0.698427
H44   H     H_    0.624463 0.397678 0.370170 0.337310
C105  C     C_1   0.499077 0.396243 0.074457 0.248465
N5    N     N_1   0.500475 0.488760 0.104238 -0.222114
C106  C     C_1   0.498348 0.395461 0.923642 0.249895
N6    N     N_1   0.495993 0.487621 0.893147 -0.224249
C107  C     C_1   0.999077 0.896243 0.074457 0.248466
N7    N     N_1   0.000475 0.988760 0.104238 -0.222111
C108  C     C_1   0.998348 0.895461 0.923642 0.249898
N8    N     N_1   0.995993 0.987622 0.893147 -0.224245

loop_
_geom_bond_atom_site_label_1
_geom_bond_atom_site_label_2
_ccdc_geom_bond_type
C76   O40   A    
Cr2   O22   S    
C87   O15   A    
O54   H38   S    
C58   C62   A    
C93   C94   A    
Cr10  O18   S    
C55   C59   A    
Cr6   O26   S    
C34   C37   A    
C85   O13   A    
C41   C42   A    
C14   C18   A    
C64   C104  S    
Cr5   O5    S    
O60   H44   S    
C8    C96   S    
Cr7   O19   S    
C6    H18   S    
Cr9   O9    S    
C68   H12   S    
C97   C98   A    
C84   O12   A    
C79   O47   A    
C7    C8    S    
Cr12  O36   S    
C46   C89   S    
C42   C106  S    
Cr3   O19   S    
C1    O25   A    
C50   C54   A    
Cr3   O47   S    
C46   O30   A    
C37   C41   A    
C64   C68   A    
C44   C108  S    
C39   C84   S    
C38   C42   A    
Cr1   O41   S    
C99   H3    S    
C5    C6    S    
C30   C74   S    
C49   C53   A    
C98   H2    S    
C83   O7    A    
C76   O4    A    
C85   O41   A    
C54   O54   S    
Cr12  O20   S    
C14   H26   S    
C92   C96   A    
C81   O5    A    
Cr8   O32   S    
C3    C18   S    
C25   O57   S    
C47   C92   S    
C4    O28   A    
Cr1   O1    S    
C106  N6    T    
C9    C13   A    
Cr9   O17   S    
C77   O45   A    
C83   O11   A    
C11   C15   A    
C36   H36   S    
C49   H5    S    
C95   C96   A    
C75   O3    A    
Cr6   O6    S    
C48   C91   S    
C100  H4    S    
C8    H20   S    
C51   H7    S    
C62   C102  S    
C66   H10   S    
Cr1   O21   S    
C86   O14   A    
C23   C27   A    
C91   C100  A    
Cr12  O12   S    
C90   C97   A    
C7    H19   S    
Cr10  O10   S    
C9    C29   A    
Cr6   O30   S    
Cr6   O50   S    
Cr7   O31   S    
Cr5   O49   S    
Cr8   O20   S    
C11   C31   A    
Cr2   O18   S    
Cr5   O25   S    
C12   C32   A    
Cr3   O23   S    
C57   C80   S    
C40   C83   S    
C16   H28   S    
C51   C71   A    
Cr12  O16   S    
Cr2   O46   S    
C59   C78   S    
C73   O37   A    
C72   C88   S    
Cr1   O45   S    
C90   C94   A    
C15   H27   S    
Cr10  O14   S    
C80   O48   A    
C63   C67   A    
C60   C77   S    
C23   H31   S    
C86   O42   A    
C47   O31   A    
C45   O33   A    
O56   H40   S    
C12   C16   A    
C28   C32   A    
C81   O9    A    
C101  N1    T    
C21   C25   A    
C10   C14   A    
O58   H42   S    
C48   O36   A    
C62   C66   A    
C19   C23   A    
C39   C43   A    
C26   O58   S    
C51   C55   A    
C6    C94   S    
O57   H41   S    
C88   O16   A    
C27   C31   A    
C41   C105  S    
C17   C21   A    
C56   C60   A    
C68   C72   A    
C35   C36   A    
C13   H25   S    
Cr8   O52   S    
C15   C19   A    
C43   C44   A    
C46   O34   A    
Cr12  O40   S    
C107  N7    T    
C52   C72   A    
C11   H23   S    
C63   C103  S    
O59   H43   S    
C10   C30   A    
C31   C75   S    
C102  N2    T    
Cr8   O8    S    
C103  N3    T    
C16   C20   A    
C5    H15   S    
Cr11  O35   S    
C105  N5    T    
Cr4   O48   S    
Cr11  O15   S    
C82   O10   A    
C61   C101  S    
C7    H13   S    
Cr1   O17   S    
C45   C90   S    
C47   O35   A    
C35   H35   S    
C33   H33   S    
C58   C79   S    
C2    O22   A    
C71   C87   S    
C4    C17   S    
C52   H8    S    
C8    H14   S    
C6    H16   S    
Cr2   O2    S    
C26   C30   A    
C65   H9    S    
C3    O23   A    
C38   C81   S    
C78   O46   A    
C5    H17   S    
Cr3   O43   S    
C97   H1    S    
C70   C86   S    
Cr6   O18   S    
C48   O32   A    
C69   C85   S    
Cr9   O33   S    
C87   O43   A    
C12   H24   S    
C54   C58   A    
C3    O27   A    
C88   O44   A    
O55   H39   S    
Cr10  O38   S    
C1    C20   S    
C53   C57   A    
C4    O24   A    
C79   O51   A    
C73   O1    A    
C2    C19   S    
C50   H6    S    
C59   C63   A    
C36   C39   A    
C75   O39   A    
C24   C28   A    
Cr5   O29   S    
C67   H11   S    
C32   C76   S    
C5    C93   S    
C22   H30   S    
C43   C107  S    
C57   C61   A    
Cr3   O3    S    
C7    C95   S    
Cr11  O39   S    
C33   C38   A    
C99   C100  A    
Cr4   O24   S    
C89   C98   A    
C60   C64   A    
Cr9   O37   S    
Cr4   O4    S    
C18   C22   A    
C35   C40   A    
C50   C70   A    
C27   O59   S    
C21   H29   S    
Cr4   O20   S    
Cr9   O13   S    
C2    O26   A    
Cr7   O51   S    
C45   O29   A    
C84   O8    A    
C25   C29   A    
C66   C70   A    
C56   O56   S    
Cr7   O27   S    
C24   H32   S    
C28   O60   S    
C65   C69   A    
Cr8   O28   S    
C1    O21   A    
Cr2   O42   S    
C33   C34   A    
C67   C71   A    
C104  N4    T    
C89   C93   A    
C37   C82   S    
C53   O53   S    
C55   O55   S    
Cr11  O19   S    
C91   C95   A    
C13   C17   A    
C82   O6    A    
C61   C65   A    
C40   C44   A    
C10   H22   S    
C29   C73   S    
O53   H37   S    
Cr10  O34   S    
C22   C26   A    
C80   O52   A    
C108  N8    T    
Cr5   O17   S    
C34   H34   S    
C74   O2    A    
C49   C69   A    
C78   O50   A    
C77   O49   A    
C20   C24   A    
Cr7   O7    S    
C52   C56   A    
C92   C99   A    
C9    H21   S    
C74   O38   A    
Cr11  O11   S    
Cr4   O44   S    
