data_mof_unit_29833.cif
_audit_creation_date              2012-12-11T14:39:26-0500
_audit_creation_method            fapswitch 2.2
_symmetry_space_group_name_H-M    P1
_symmetry_Int_Tables_number       1
_space_group_crystal_system       triclinic
_cell_length_a                    7.226276
_cell_length_b                    13.805049
_cell_length_c                    16.696077
_cell_angle_alpha                 89.999985
_cell_angle_beta                  96.648691
_cell_angle_gamma                 90.000053
_cell_volume                      1654.38400905

loop_
_atom_site_label
_atom_site_type_symbol
_atom_type_description
_atom_site_fract_x
_atom_site_fract_y
_atom_site_fract_z
_atom_type_partial_charge
O1    O     O_R   0.525340 0.338340 0.164530 -0.546229
O2    O     O_R   0.474660 0.661660 0.835470 -0.552253
O3    O     O_R   0.974660 0.838340 0.835470 -0.546230
O4    O     O_R   0.025340 0.161660 0.164530 -0.552251
O5    O     O_R   0.253520 0.352000 0.336710 -0.548945
O6    O     O_R   0.746480 0.648000 0.663290 -0.545352
O7    O     O_R   0.246480 0.852000 0.663290 -0.548949
O8    O     O_R   0.753520 0.148000 0.336710 -0.545359
O9    O     O_R   0.083330 0.168380 0.337300 -0.532031
O10   O     O_R   0.916670 0.831620 0.662700 -0.512432
O11   O     O_R   0.416670 0.668380 0.662700 -0.532031
O12   O     O_R   0.583330 0.331620 0.337300 -0.512432
C1    C     C_R   0.432464 0.372734 0.361017 0.723947
C2    C     C_R   0.568082 0.628546 0.638158 0.775461
C3    C     C_R   0.067536 0.872734 0.638982 0.723961
C4    C     C_R   0.931917 0.128548 0.361843 0.775458
O13   O     O_R   0.195840 0.349670 0.165140 -0.548489
O14   O     O_R   0.804160 0.650330 0.834860 -0.538455
O15   O     O_R   0.304160 0.849670 0.834860 -0.548491
O16   O     O_R   0.695840 0.150330 0.165140 -0.538466
C5    C     C_R   0.357912 0.374318 0.139617 0.643965
C6    C     C_R   0.643747 0.627423 0.862656 0.724977
C7    C     C_R   0.142089 0.874317 0.860384 0.643980
C8    C     C_R   0.856253 0.127422 0.137345 0.724958
O17   O     O_3   0.387830 0.193120 0.250910 -0.377779
O18   O     O_3   0.612170 0.806880 0.749090 -0.373081
O19   O     O_3   0.112170 0.693120 0.749090 -0.377778
O20   O     O_3   0.887830 0.306880 0.250910 -0.373075
V1    V     V_3+5 0.113010 0.264540 0.250910 1.384074
V2    V     V_3+5 0.886990 0.735460 0.749090 1.401435
V3    V     V_3+5 0.386990 0.764540 0.749090 1.384066
V4    V     V_3+5 0.613010 0.235460 0.250910 1.401417
H1    H     H_    0.229713 0.817147 0.289755 0.118735
H2    H     H_    0.763854 0.193315 0.707043 0.119948
H3    H     H_    0.270215 0.317157 0.710234 0.118736
H4    H     H_    0.736199 0.693312 0.292966 0.119965
C9    C     C_R   0.840514 0.187990 0.513627 -0.150351
C10   C     C_R   0.175828 0.819374 0.487292 -0.145608
C11   C     C_R   0.659489 0.687989 0.486376 -0.150343
C12   C     C_R   0.324174 0.319374 0.512705 -0.145598
C13   C     C_R   0.788761 0.222025 0.585260 -0.177697
C14   C     C_R   0.232263 0.788903 0.414932 -0.167978
C15   C     C_R   0.711260 0.722021 0.414747 -0.177701
C16   C     C_R   0.267716 0.288906 0.585062 -0.167977
C17   C     C_R   0.805056 0.163198 0.652194 -0.157984
C18   C     C_R   0.195586 0.845287 0.346832 -0.178927
C19   C     C_R   0.694977 0.663195 0.347812 -0.157983
C20   C     C_R   0.304363 0.345295 0.653159 -0.178946
C21   C     C_R   0.874842 0.068129 0.649629 0.270463
C22   C     C_R   0.096219 0.932005 0.349492 0.287813
C23   C     C_R   0.625177 0.568127 0.350374 0.270470
C24   C     C_R   0.403742 0.432010 0.650504 0.287824
C25   C     C_R   0.939884 0.032419 0.576520 0.007568
C26   C     C_R   0.050160 0.969445 0.424698 0.034196
C27   C     C_R   0.560123 0.532418 0.423481 0.007561
C28   C     C_R   0.449826 0.469447 0.575300 0.034198
C29   C     C_R   0.914177 0.093448 0.506885 0.006191
C30   C     C_R   0.088303 0.910686 0.494765 0.010060
C31   C     C_R   0.585825 0.593447 0.493117 0.006200
C32   C     C_R   0.411693 0.410687 0.505234 0.010070
C33   C     C_R   0.031654 0.940661 0.569904 -0.162157
C34   C     C_R   0.964634 0.061608 0.431593 -0.162058
C35   C     C_R   0.468349 0.440661 0.430095 -0.162157
C36   C     C_R   0.535362 0.561607 0.568408 -0.162082
H5    H     H_    0.826443 0.239009 0.464241 0.134481
H6    H     H_    0.199582 0.768553 0.536494 0.138416
H7    H     H_    0.673550 0.739009 0.535761 0.134479
H8    H     H_    0.300441 0.268549 0.463505 0.138412
H9    H     H_    0.736242 0.295114 0.588870 0.146093
H10   H     H_    0.296212 0.718599 0.410608 0.145730
H11   H     H_    0.763784 0.795109 0.411140 0.146078
H12   H     H_    0.203772 0.218601 0.589384 0.145733
H13   H     H_    0.123552 0.083810 0.046628 0.158600
H14   H     H_    0.916737 0.900248 0.970783 0.125641
H15   H     H_    0.376445 0.583807 0.953370 0.158593
H16   H     H_    0.583277 0.400256 0.029224 0.125646
C37   C     C_2   0.144133 0.956585 0.918464 0.132386
C38   C     C_2   0.847557 0.053867 0.069876 0.110701
C39   C     C_2   0.355867 0.456586 0.081536 0.132392
C40   C     C_2   0.652445 0.553872 0.930127 0.110660
C41   C     C_2   0.014576 0.959987 0.971113 -0.169551
C42   C     C_2   0.002017 0.038475 0.031984 -0.203018
C43   C     C_2   0.485430 0.459992 0.028890 -0.169535
C44   C     C_2   0.497984 0.538478 0.968017 -0.203014
N1    N     N_2   0.882627 0.010904 0.721012 -0.500100
H17   H     H_    0.015416 0.004735 0.750012 0.227854
C45   C     C_3   0.741074 0.026472 0.774935 -0.465028
H18   H     H_    0.737842 0.965023 0.817106 0.209673
H19   H     H_    0.600708 0.032462 0.740196 0.186620
H20   H     H_    0.772946 0.092321 0.812156 0.152142
N2    N     N_2   0.014403 0.969585 0.274699 -0.528365
H21   H     H_    0.103496 0.969066 0.230620 0.249234
C46   C     C_3   0.835679 0.925604 0.248001 -0.590577
H22   H     H_    0.722827 0.974103 0.263233 0.212554
H23   H     H_    0.817991 0.854508 0.277097 0.185662
H24   H     H_    0.822838 0.911842 0.182263 0.215025
N3    N     N_2   0.617385 0.510903 0.278990 -0.500095
H25   H     H_    0.484593 0.504728 0.249995 0.227842
C47   C     C_3   0.758924 0.526476 0.225061 -0.465042
H26   H     H_    0.762146 0.465028 0.182887 0.209671
H27   H     H_    0.899296 0.532464 0.259794 0.186620
H28   H     H_    0.727041 0.592327 0.187843 0.152159
N4    N     N_2   0.485549 0.469584 0.725301 -0.528351
H29   H     H_    0.396437 0.469071 0.769372 0.249238
C48   C     C_3   0.664236 0.425573 0.752008 -0.590627
H30   H     H_    0.777134 0.474003 0.736711 0.212524
H31   H     H_    0.681796 0.354424 0.722979 0.185673
H32   H     H_    0.677119 0.411900 0.817759 0.215051
N5    N     N_2   0.682541 0.997895 0.044333 -0.535589
H33   H     H_    0.659020 0.985054 0.983237 0.258731
C49   C     C_3   0.511861 0.007172 0.081225 -0.472579
H34   H     H_    0.412933 0.949859 0.057370 0.190326
H35   H     H_    0.448053 0.079121 0.066962 0.217906
H36   H     H_    0.535488 0.995849 0.147004 0.188195
N6    N     N_2   0.278913 0.032072 0.915938 -0.521873
H37   H     H_    0.398161 0.011194 0.892251 0.257102
C50   C     C_3   0.210261 0.124111 0.882975 -0.578861
H38   H     H_    0.310763 0.181974 0.904286 0.197387
H39   H     H_    0.072903 0.142962 0.902295 0.213124
H40   H     H_    0.198282 0.122351 0.816138 0.180961
N7    N     N_2   0.817463 0.497902 0.955671 -0.535595
H41   H     H_    0.840997 0.485070 0.016767 0.258736
C51   C     C_3   0.988126 0.507161 0.918762 -0.472561
H42   H     H_    0.087048 0.449843 0.942614 0.190317
H43   H     H_    0.051960 0.579106 0.933016 0.217909
H44   H     H_    0.964464 0.495834 0.852984 0.188196
N8    N     N_2   0.221076 0.532069 0.084057 -0.521861
H45   H     H_    0.101834 0.511188 0.107748 0.257098
C52   C     C_3   0.289716 0.624111 0.117020 -0.578854
H46   H     H_    0.189163 0.681964 0.095740 0.197377
H47   H     H_    0.427028 0.642989 0.097666 0.213122
H48   H     H_    0.301782 0.622337 0.183857 0.180966

loop_
_geom_bond_atom_site_label_1
_geom_bond_atom_site_label_2
_ccdc_geom_bond_type
C23   N3    S    
C45   H18   S    
C24   N4    S    
O1    C5    A    
C46   H22   S    
C12   C32   A    
C27   C31   A    
O13   V1    S    
O3    C7    A    
C49   H34   S    
C40   C44   D    
O15   V3    S    
C41   C42   S    
C29   C34   A    
N1    H17   S    
C48   H31   S    
C31   C36   A    
C22   C26   A    
C32   C35   A    
O20   V1    S    
O9    C4    A    
C10   C14   A    
O10   C3    A    
N5    C49   S    
O16   V4    S    
O4    C8    A    
O11   C2    A    
H15   C44   S    
C51   H43   S    
O6    C2    A    
N6    H37   S    
C14   H10   S    
H4    C19   S    
C14   C18   A    
C38   C42   D    
C10   C30   A    
C25   C33   A    
O16   C8    A    
N6    C50   S    
C9    H5    S    
O2    C6    A    
C28   C36   A    
O14   V2    S    
C37   C41   D    
C49   H36   S    
C12   C16   A    
O5    C1    A    
O4    V1    S    
O9    V1    S    
C52   H48   S    
C30   C33   A    
O7    C3    A    
O11   V3    S    
O18   V3    S    
C46   H23   S    
O12   V4    S    
O19   V2    S    
H1    C18   S    
C4    C34   S    
H3    C20   S    
H16   C43   S    
N3    C47   S    
N3    H25   S    
O5    V1    S    
C40   N7    S    
N1    C45   S    
C48   H32   S    
O7    V3    S    
O8    V4    S    
C10   H6    S    
C51   H42   S    
N4    C48   S    
C50   H40   S    
N2    H21   S    
C25   C29   A    
C51   H44   S    
C19   C23   A    
C26   C34   A    
O1    V4    S    
O13   C5    A    
C28   C32   A    
C27   C35   A    
O2    V3    S    
O3    V2    S    
O15   C7    A    
N8    C52   S    
C21   N1    S    
N2    C46   S    
O10   V2    S    
C47   H26   S    
C1    C35   S    
C17   C21   A    
C11   C31   A    
C5    C39   S    
C3    C33   S    
C49   H35   S    
H2    C17   S    
C7    C37   S    
N7    H41   S    
C2    C36   S    
C8    C38   S    
O6    V2    S    
C46   H24   S    
C45   H19   S    
C43   C44   S    
H14   C41   S    
N8    H45   S    
H13   C42   S    
C13   H9    S    
C52   H46   S    
C26   C30   A    
C39   N8    S    
C15   H11   S    
C47   H27   S    
O14   C6    A    
C11   H7    S    
C11   C15   A    
C48   H30   S    
C18   C22   A    
C50   H39   S    
C6    C40   S    
C50   H38   S    
C39   C43   D    
O17   V4    S    
C21   C25   A    
C16   H12   S    
C38   N5    S    
C23   C27   A    
C9    C13   A    
N7    C51   S    
C16   C20   A    
C22   N2    S    
C20   C24   A    
C47   H28   S    
O12   C1    A    
O8    C4    A    
C12   H8    S    
C45   H20   S    
N5    H33   S    
N4    H29   S    
C13   C17   A    
C37   N6    S    
C15   C19   A    
C9    C29   A    
C24   C28   A    
C52   H47   S    
