data_mof_unit_20496.cif
_audit_creation_date              2012-12-10T17:46:59-0500
_audit_creation_method            fapswitch 2.2
_symmetry_space_group_name_H-M    P1
_symmetry_Int_Tables_number       1
_space_group_crystal_system       triclinic
_cell_length_a                    9.940819
_cell_length_b                    10.635787
_cell_length_c                    13.612021
_cell_angle_alpha                 91.614071
_cell_angle_beta                  82.857212
_cell_angle_gamma                 89.86323
_cell_volume                      1427.41695337

loop_
_atom_site_label
_atom_site_type_symbol
_atom_type_description
_atom_site_fract_x
_atom_site_fract_y
_atom_site_fract_z
_atom_type_partial_charge
C1    C     C_R   0.500294 0.739234 0.497229 0.842986
C2    C     C_1   0.456831 0.501501 0.789570 -0.186902
C3    C     C_R   0.396958 0.863333 0.333950 -0.174267
C4    C     C_R   0.346208 0.926379 0.257857 -0.133870
C5    C     C_R   0.346659 0.057175 0.257679 -0.142739
C6    C     C_R   0.397974 0.125397 0.333547 -0.189156
C7    C     C_R   0.448003 0.062959 0.412168 0.096803
C8    C     C_R   0.447475 0.931095 0.412403 0.097114
C9    C     C_R   0.501580 0.871349 0.490201 -0.086162
C10   C     C_R   0.560047 0.937998 0.563209 -0.216074
C11   C     C_R   0.560580 0.066435 0.562944 -0.205519
C12   C     C_R   0.475534 0.500386 0.685601 0.877512
C13   C     C_R   0.502555 0.128033 0.489722 -0.099761
C14   C     C_R   0.839055 0.667620 0.628071 -0.127538
C15   C     C_R   0.898703 0.749337 0.691295 -0.198598
C16   C     C_R   0.037797 0.747707 0.692034 -0.189232
C17   C     C_R   0.118193 0.664769 0.629187 -0.129604
C18   C     C_R   0.061528 0.581760 0.563275 0.150683
C19   C     C_R   0.917202 0.582319 0.563018 0.114979
C20   C     C_R   0.939081 0.421065 0.439251 0.246670
C21   C     C_R   0.082327 0.420766 0.440193 -0.171793
C22   C     C_R   0.500724 0.260615 0.496817 0.869656
C23   C     C_R   0.524488 0.499509 0.314404 0.871495
C24   C     C_1   0.543265 0.499420 0.210485 -0.196357
C25   C     C_2   0.558683 0.499760 0.018612 -0.162507
C26   C     C_2   0.441597 0.503077 0.981505 -0.170299
C27   C     C_1   0.445063 0.502422 0.877509 0.004350
C28   C     C_1   0.555152 0.499487 0.122580 0.001549
H1    H     H_    0.344665 0.505816 0.028394 0.155962
H2    H     H_    0.836301 0.813921 0.740412 0.143765
H3    H     H_    0.083815 0.810819 0.741838 0.147864
H4    H     H_    0.224032 0.667716 0.634722 0.199545
H5    H     H_    0.145166 0.355992 0.391632 0.153892
H6    H     H_    0.655620 0.496904 0.971735 0.159949
H7    H     H_    0.602582 0.890339 0.621765 0.138166
H8    H     H_    0.398009 0.761757 0.329572 0.153506
H9    H     H_    0.307817 0.873518 0.198271 0.137812
H10   H     H_    0.308583 0.105942 0.197981 0.135947
H11   H     H_    0.399932 0.226678 0.328867 0.142999
N1    N     N_R   0.857120 0.501200 0.500900 -0.132617
N2    N     N_R   0.142720 0.501280 0.500940 -0.128220
O1    O     O_R   0.385310 0.683220 0.500000 -0.638154
O2    O     O_R   0.614640 0.683250 0.500010 -0.630625
O3    O     O_R   0.368830 0.499960 0.640340 -0.623436
O4    O     O_R   0.598160 0.499980 0.640350 -0.628970
O5    O     O_R   0.385360 0.316750 0.499990 -0.616104
O6    O     O_R   0.614690 0.316780 0.500000 -0.593903
O7    O     O_R   0.401840 0.500020 0.359650 -0.622191
O8    O     O_R   0.631170 0.500040 0.359660 -0.582480
Zn1   Zn    Zn3+2 0.346870 0.499980 0.499990 0.930144
Zn2   Zn    Zn3+2 0.653130 0.500020 0.500010 0.953363
H12   H     H_    0.731702 0.674196 0.632812 0.194773
H13   H     H_    0.603398 0.118214 0.621334 0.153090
N3    N     N_2   0.879899 0.336257 0.375024 -0.256023
H14   H     H_    0.904099 0.243747 0.385890 0.213736
C29   C     C_3   0.904021 0.367217 0.271533 -0.762106
H15   H     H_    0.841876 0.305247 0.228308 0.237497
H16   H     H_    0.012705 0.352945 0.242610 0.209835
H17   H     H_    0.875055 0.466500 0.261198 0.259566

loop_
_geom_bond_atom_site_label_1
_geom_bond_atom_site_label_2
_ccdc_geom_bond_type
C23   C24   S    
C2    C27   T    
C12   O4    A    
N1    Zn2   S    
C18   C19   A    
C9    C10   A    
N2    Zn1   S    
C15   H2    S    
C11   H13   S    
C29   H17   S    
C25   H6    S    
C2    C12   S    
O7    Zn1   S    
C22   O6    A    
C7    C8    A    
C12   O3    A    
C5    H10   S    
C4    H9    S    
C16   H3    S    
C11   C13   A    
O2    Zn2   S    
C26   C27   S    
C6    C7    A    
C3    H8    S    
O1    Zn1   S    
C21   N2    A    
C22   O5    A    
C29   H16   S    
C13   C22   S    
C17   C18   A    
C5    C6    A    
C20   N1    A    
C10   H7    S    
N3    C29   S    
C23   O8    A    
C21   H5    S    
C19   N1    A    
O4    Zn2   S    
C15   C16   A    
C24   C28   T    
C1    O1    A    
C7    C13   A    
C1    C9    S    
C20   C21   A    
C26   H1    S    
C20   N3    S    
C3    C8    A    
C10   C11   A    
C18   N2    A    
O3    Zn1   S    
C29   H15   S    
C17   H4    S    
O5    Zn1   S    
C6    H11   S    
C4    C5    A    
O6    Zn2   S    
C23   O7    A    
O8    Zn2   S    
C25   C26   D    
N3    H14   S    
C14   C19   A    
C1    O2    A    
C14   H12   S    
C3    C4    A    
C14   C15   A    
C16   C17   A    
C8    C9    A    
C25   C28   S    
