data_mof_unit_46836.cif
_audit_creation_date              2012-12-10T17:33:04-0500
_audit_creation_method            fapswitch 2.2
_symmetry_space_group_name_H-M    P1
_symmetry_Int_Tables_number       1
_space_group_crystal_system       triclinic
_cell_length_a                    12.338161
_cell_length_b                    13.40696
_cell_length_c                    14.248506
_cell_angle_alpha                 93.399232
_cell_angle_beta                  107.458395
_cell_angle_gamma                 117.111227
_cell_volume                      1947.27738094

loop_
_atom_site_label
_atom_site_type_symbol
_atom_type_description
_atom_site_fract_x
_atom_site_fract_y
_atom_site_fract_z
_atom_type_partial_charge
C1    C     C_R   0.649309 0.712691 0.505052 0.783943
C2    C     C_R   0.878806 0.543442 0.924570 0.089819
C3    C     C_R   0.832513 0.565476 0.998799 0.168459
C4    C     C_R   0.995370 0.536130 0.954175 0.064852
C5    C     C_R   0.054831 0.536791 0.056629 0.069246
C6    C     C_R   0.007316 0.561388 0.128816 -0.218695
C7    C     C_R   0.899098 0.576713 0.100223 -0.225317
C8    C     C_R   0.055577 0.530076 0.885211 -0.224870
C9    C     C_R   0.165442 0.517151 0.914200 -0.226324
C10   C     C_R   0.217726 0.507425 0.012040 0.164381
C11   C     C_R   0.161713 0.515300 0.083779 0.086527
C12   C     C_R   0.619468 0.518309 0.686876 0.795553
C13   C     C_R   0.325992 0.490134 0.039107 -0.194691
C14   C     C_R   0.379327 0.480253 0.136822 -0.196918
C15   C     C_R   0.213103 0.499091 0.179940 -0.231316
C16   C     C_R   0.198864 0.963530 0.436717 -0.188183
C17   C     C_R   0.251062 0.162882 0.465327 -0.096901
C18   C     C_R   0.711662 0.917853 0.541498 -0.193361
C19   C     C_R   0.799527 0.033562 0.555360 -0.150069
C20   C     C_R   0.908237 0.066002 0.528686 -0.126487
C21   C     C_R   0.926495 0.982859 0.480474 0.100662
C22   C     C_R   0.835576 0.864499 0.463626 0.080455
C23   C     C_R   0.343757 0.285488 0.482760 0.850891
C24   C     C_R   0.039737 0.014414 0.456823 0.035300
C25   C     C_R   0.073049 0.930128 0.435523 0.133929
C26   C     C_R   0.977674 0.814583 0.408557 -0.222138
C27   C     C_R   0.856104 0.783417 0.413749 -0.195079
C28   C     C_R   0.120501 0.126860 0.452404 0.170584
C29   C     C_R   0.290287 0.080281 0.458190 -0.236683
C30   C     C_R   0.730825 0.832275 0.499929 -0.104202
C31   C     C_R   0.252869 0.679295 0.665906 -0.309396
C32   C     C_R   0.655537 0.346235 0.361021 0.056027
C33   C     C_R   0.734634 0.318312 0.326270 -0.239358
C34   C     C_R   0.382339 0.484195 0.313392 0.811384
C35   C     C_R   0.870215 0.379241 0.376324 -0.169731
C36   C     C_R   0.928987 0.468169 0.463410 -0.016671
C37   C     C_R   0.843948 0.495851 0.494642 0.283005
C38   C     C_R   0.068248 0.530597 0.520476 -0.039934
C39   C     C_R   0.118717 0.619376 0.606643 0.174221
C40   C     C_R   0.035266 0.648268 0.633213 -0.296722
C41   C     C_R   0.901484 0.588576 0.578233 -0.197508
C42   C     C_R   0.160567 0.508356 0.497156 0.033637
C43   C     C_R   0.337368 0.651044 0.640396 0.056843
C44   C     C_R   0.690893 0.534527 0.794584 -0.050782
C45   C     C_R   0.323122 0.485148 0.207763 -0.046424
C46   C     C_R   0.719193 0.575231 0.970642 -0.195562
C47   C     C_R   0.649247 0.560671 0.869112 -0.193247
C48   C     C_R   0.804078 0.525298 0.822678 -0.260431
Cu1   Cu    Cu3+1 0.416420 0.526630 0.522910 0.954285
Cu2   Cu    Cu3+1 0.583580 0.473370 0.477090 0.921493
H1    H     H_    0.865982 0.595505 0.157890 0.141989
H2    H     H_    0.370164 0.485396 0.984925 0.131630
H3    H     H_    0.389405 0.105453 0.464364 0.170419
H4    H     H_    0.995465 0.748728 0.380427 0.143650
H5    H     H_    0.227141 0.899920 0.423710 0.144959
H6    H     H_    0.631887 0.895625 0.568207 0.157943
H7    H     H_    0.980249 0.156618 0.549964 0.171873
H8    H     H_    0.786562 0.098605 0.591354 0.147466
H9    H     H_    0.781223 0.695181 0.378731 0.182552
H10   H     H_    0.440692 0.696458 0.686533 0.124869
H11   H     H_    0.167813 0.495277 0.234497 0.152383
H12   H     H_    0.073748 0.717713 0.697978 0.158052
H13   H     H_    0.292032 0.747104 0.732133 0.143092
H14   H     H_    0.131197 0.445119 0.431362 0.163731
H15   H     H_    0.550599 0.299376 0.320890 0.134801
H16   H     H_    0.926673 0.355888 0.344694 0.182219
H17   H     H_    0.690763 0.249812 0.259689 0.160495
H18   H     H_    0.846926 0.618672 0.604291 0.210260
H19   H     H_    0.464930 0.469925 0.157007 0.151529
H20   H     H_    0.208801 0.513379 0.859134 0.148812
H21   H     H_    0.684158 0.593290 0.027165 0.132840
H22   H     H_    0.562027 0.568529 0.848990 0.150379
H23   H     H_    0.830005 0.500299 0.763304 0.158400
H24   H     H_    0.054071 0.573039 0.208903 0.140374
H25   H     H_    0.022731 0.538804 0.808695 0.154691
N1    N     N_R   0.290690 0.566960 0.557640 -0.179726
N2    N     N_R   0.709100 0.433710 0.442970 -0.208638
O1    O     O_R   0.545970 0.684450 0.528810 -0.582189
O2    O     O_R   0.687130 0.639470 0.490120 -0.613451
O3    O     O_R   0.519670 0.535100 0.660030 -0.585929
O4    O     O_R   0.660830 0.490120 0.621340 -0.601567
O5    O     O_R   0.312870 0.360530 0.509880 -0.543301
O6    O     O_R   0.454030 0.315550 0.471190 -0.593249
O7    O     O_R   0.339170 0.509880 0.378660 -0.583343
O8    O     O_R   0.480330 0.464900 0.339970 -0.599396
Br1   Br    Br    0.037156 0.206839 0.382153 -0.607119

loop_
_geom_bond_atom_site_label_1
_geom_bond_atom_site_label_2
_ccdc_geom_bond_type
C23   O5    A    
C17   C29   A    
C35   C36   A    
C4    C8    A    
Cu2   O2    S    
C26   C27   A    
C17   C23   S    
C31   C43   A    
Cu1   O7    S    
C36   C37   A    
C5    C11   A    
C3    C7    A    
C5    C6    A    
C16   C25   A    
C40   H12   S    
Cu1   O1    S    
C18   C19   A    
Cu2   O8    S    
C32   N2    A    
C11   C15   A    
C19   C20   A    
C8    C9    A    
C18   C30   A    
C41   H18   S    
C9    C10   A    
C44   C47   A    
C18   H6    S    
C21   C22   A    
C1    O1    A    
C34   O7    A    
C26   H4    S    
Cu2   O6    S    
C6    H24   S    
C14   C45   A    
C19   H8    S    
C31   H13   S    
C24   C25   A    
C39   C40   A    
C35   H16   S    
C2    C48   A    
C16   C29   A    
C37   N2    A    
C8    H25   S    
C34   O8    A    
Cu1   O5    S    
C2    C4    A    
C13   H2    S    
C15   H11   S    
Cu1   N1    S    
C34   C45   S    
C9    H20   S    
C46   H21   S    
C23   O6    A    
C43   H10   S    
C40   C41   A    
C22   C27   A    
C28   Br1   S    
C1    O2    A    
C14   H19   S    
C15   C45   A    
Cu2   N2    S    
C42   H14   S    
C33   H17   S    
C43   N1    A    
C46   C47   A    
C22   C30   A    
C17   C28   A    
C48   H23   S    
C24   C28   A    
C4    C5    A    
C10   C13   A    
C38   C42   A    
C6    C7    A    
C3    C46   A    
C42   N1    A    
Cu1   O3    S    
C32   C33   A    
C36   C38   A    
C2    C3    A    
C25   C26   A    
C16   H5    S    
C7    H1    S    
C12   C44   S    
C27   H9    S    
C38   C39   A    
C29   H3    S    
C12   O3    A    
C1    C30   S    
C33   C35   A    
C31   C39   A    
C12   O4    A    
C37   C41   A    
C47   H22   S    
C10   C11   A    
C20   C21   A    
Cu1   Cu2   S    
C21   C24   A    
C20   H7    S    
C13   C14   A    
C44   C48   A    
Cu2   O4    S    
C32   H15   S    
