data_mof_unit_14874.cif
_audit_creation_date              2012-12-10T18:59:16-0500
_audit_creation_method            fapswitch 2.2
_symmetry_space_group_name_H-M    P1
_symmetry_Int_Tables_number       1
_space_group_crystal_system       triclinic
_cell_length_a                    10.790709
_cell_length_b                    10.821829
_cell_length_c                    9.541874
_cell_angle_alpha                 90.514878
_cell_angle_beta                  90.137115
_cell_angle_gamma                 89.659052
_cell_volume                      1114.18655016

loop_
_atom_site_label
_atom_site_type_symbol
_atom_type_description
_atom_site_fract_x
_atom_site_fract_y
_atom_site_fract_z
_atom_type_partial_charge
C1    C     C_R   0.492628 0.262298 0.499211 0.779276
C2    C     C_R   0.066983 0.397793 0.581967 0.103178
C3    C     C_R   0.129185 0.485546 0.499072 -0.102188
C4    C     C_R   0.063344 0.566949 0.413760 -0.202735
C5    C     C_R   0.935567 0.567016 0.414345 -0.215323
C6    C     C_R   0.871466 0.486383 0.501054 -0.106712
C7    C     C_R   0.500286 0.064491 0.622314 0.093549
C8    C     C_R   0.474213 0.128889 0.499197 -0.144685
C9    C     C_R   0.426887 0.060793 0.382256 0.144272
C10   C     C_R   0.433217 0.931186 0.384934 -0.246775
C11   C     C_R   0.479996 0.869972 0.502749 -0.138933
C12   C     C_R   0.262671 0.495306 0.499784 0.778279
C13   C     C_R   0.501354 0.937644 0.624796 0.133775
C14   C     C_3   0.607648 0.932659 0.724885 -0.468859
C15   C     C_3   0.607733 0.072859 0.720949 -0.468933
C16   C     C_R   0.576542 0.577325 0.074553 0.259236
C17   C     C_R   0.414931 0.434700 0.073432 -0.078605
C18   C     C_R   0.415657 0.433654 0.924602 -0.074356
C19   C     C_R   0.576403 0.577450 0.927184 0.251271
C20   C     C_3   0.714470 0.579920 0.921609 -0.493524
C21   C     C_3   0.714631 0.579842 0.080500 -0.503759
C22   C     C_R   0.496584 0.737499 0.500653 0.818737
C23   C     C_R   0.737524 0.495093 0.500281 0.795018
C24   C     C_R   0.131764 0.306151 0.658234 -0.194679
C25   C     C_R   0.068286 0.221508 0.740012 -0.137424
C26   C     C_R   0.939622 0.224553 0.745120 -0.145929
C27   C     C_R   0.873680 0.311306 0.667121 -0.211949
C28   C     C_R   0.935933 0.399339 0.584713 0.103916
Cu1   Cu    Cu3+1 0.499990 0.499980 0.640670 0.931993
Cu2   Cu    Cu3+1 0.500010 0.500020 0.359330 0.931786
H1    H     H_    0.111254 0.632994 0.348857 0.151377
H2    H     H_    0.692033 0.889682 0.678168 0.191552
H3    H     H_    0.582222 0.116873 0.822649 0.204166
H4    H     H_    0.691654 0.109983 0.669845 0.191413
H5    H     H_    0.346948 0.380800 0.128243 0.144724
H6    H     H_    0.349401 0.377413 0.868200 0.137975
H7    H     H_    0.755250 0.494076 0.875946 0.225810
H8    H     H_    0.749574 0.667360 0.876583 0.192707
H9    H     H_    0.755607 0.494024 0.124549 0.224734
H10   H     H_    0.749750 0.667348 0.127251 0.188038
H11   H     H_    0.231387 0.296849 0.653420 0.137221
H12   H     H_    0.119142 0.152374 0.798371 0.130074
H13   H     H_    0.890593 0.158042 0.808003 0.135369
H14   H     H_    0.774003 0.306960 0.670972 0.153005
H15   H     H_    0.886321 0.632919 0.349589 0.147058
H16   H     H_    0.403801 0.878468 0.293705 0.166073
H17   H     H_    0.580117 0.895415 0.828400 0.195313
N1    N     N_R   0.500790 0.500930 0.147930 -0.185952
N2    N     N_R   0.500790 0.500890 0.852020 -0.185859
O1    O     O_R   0.500000 0.319640 0.618810 -0.590743
O2    O     O_R   0.500010 0.319680 0.381230 -0.574224
O3    O     O_R   0.319640 0.499980 0.618820 -0.583879
O4    O     O_R   0.319650 0.500020 0.381230 -0.589791
O5    O     O_R   0.499990 0.680320 0.618770 -0.571660
O6    O     O_R   0.500000 0.680360 0.381190 -0.584045
O7    O     O_R   0.680350 0.499980 0.618770 -0.589667
O8    O     O_R   0.680360 0.500020 0.381180 -0.578098
C29   C     C_3   0.368331 0.118967 0.254499 -0.376688
C30   C     C_3   0.459273 0.122476 0.132070 -0.814366
H18   H     H_    0.412474 0.161758 0.038667 0.221789
H19   H     H_    0.540657 0.180405 0.158814 0.271514
H20   H     H_    0.491802 0.027708 0.104804 0.239561
H21   H     H_    0.286398 0.063745 0.221946 0.184113
H22   H     H_    0.330760 0.212182 0.278307 0.202470

loop_
_geom_bond_atom_site_label_1
_geom_bond_atom_site_label_2
_ccdc_geom_bond_type
C25   H12   S    
C10   H16   S    
Cu2   O2    S    
C15   H4    S    
C14   H17   S    
C20   H7    S    
Cu1   O7    S    
C1    C8    S    
C20   H8    S    
C9    C10   A    
C19   N2    A    
C11   C22   S    
C12   O4    A    
C21   H9    S    
C17   N1    A    
C7    C13   A    
C10   C11   A    
C16   N1    A    
C7    C15   S    
C2    C3    A    
C25   C26   A    
C22   O6    A    
C30   H18   S    
C22   O5    A    
Cu1   N2    S    
C13   C14   S    
C20   C21   S    
C29   H22   S    
C24   H11   S    
C1    O2    A    
C26   C27   A    
C16   C21   S    
C21   H10   S    
C18   H6    S    
C16   C19   A    
C6    C23   S    
C27   H14   S    
Cu2   N1    S    
C12   O3    A    
C26   H13   S    
C17   C18   A    
Cu1   O1    S    
C2    C24   A    
C5    C6    A    
Cu2   O4    S    
C30   H19   S    
C11   C13   A    
C7    C8    A    
Cu1   O5    S    
Cu1   Cu2   S    
C3    C4    A    
C4    H1    S    
Cu2   O8    S    
C23   O7    A    
C24   C25   A    
C9    C29   S    
C1    O1    A    
C29   H21   S    
C23   O8    A    
C14   C15   S    
C4    C5    A    
C30   H20   S    
C2    C28   A    
C3    C12   S    
C17   H5    S    
C29   C30   S    
C5    H15   S    
Cu2   O6    S    
C15   H3    S    
C6    C28   A    
C19   C20   S    
C18   N2    A    
C14   H2    S    
C8    C9    A    
C27   C28   A    
Cu1   O3    S    
