data_mof_unit_19868.cif
_audit_creation_date              2012-12-10T18:06:49-0500
_audit_creation_method            fapswitch 2.2
_symmetry_space_group_name_H-M    P1
_symmetry_Int_Tables_number       1
_space_group_crystal_system       triclinic
_cell_length_a                    21.657491
_cell_length_b                    21.650445
_cell_length_c                    39.080419
_cell_angle_alpha                 89.609281
_cell_angle_beta                  89.817267
_cell_angle_gamma                 89.752266
_cell_volume                      18323.8975607

loop_
_atom_site_label
_atom_site_type_symbol
_atom_type_description
_atom_site_fract_x
_atom_site_fract_y
_atom_site_fract_z
_atom_type_partial_charge
C1    C     C_R   0.620239 0.999770 0.500327 0.911741
C2    C     C_R   0.999925 0.620634 0.500651 0.890176
C3    C     C_R   0.379783 0.000185 0.500208 0.912816
C4    C     C_R   0.000125 0.379992 0.499962 0.920337
C5    C     C_R   0.120669 0.499908 0.999910 0.877018
C6    C     C_R   0.499809 0.120245 0.999669 0.911975
C7    C     C_R   0.879810 0.500030 0.999857 0.915000
C8    C     C_R   0.500219 0.879764 0.999762 0.911390
C9    C     C_R   0.783704 0.956747 0.480815 0.367501
C10   C     C_R   0.054463 0.784812 0.494323 0.353602
C11   C     C_R   0.216666 0.042749 0.479883 0.362878
C12   C     C_R   0.962953 0.218158 0.476208 0.371793
C13   C     C_R   0.782645 0.043393 0.520917 0.363588
C14   C     C_R   0.038259 0.217217 0.523124 0.374847
C15   C     C_R   0.217153 0.956950 0.521197 0.368410
C16   C     C_R   0.944417 0.784881 0.508531 0.349612
C17   C     C_R   0.285126 0.444080 0.995471 0.350825
C18   C     C_R   0.544656 0.283037 0.979614 0.367869
C19   C     C_R   0.717141 0.542768 0.978388 0.370765
C20   C     C_R   0.457059 0.717415 0.978969 0.364250
C21   C     C_R   0.284533 0.555594 0.004560 0.351689
C22   C     C_R   0.544165 0.716184 0.018930 0.365922
C23   C     C_R   0.716841 0.458204 0.020513 0.368378
C24   C     C_R   0.457353 0.283375 0.019746 0.362014
C25   C     C_R   0.814257 0.001039 0.500260 -0.276035
C26   C     C_R   0.999078 0.815437 0.500567 -0.260399
C27   C     C_R   0.185790 0.999339 0.500200 -0.279426
C28   C     C_R   0.000503 0.186301 0.499703 -0.256348
C29   C     C_R   0.315467 0.499831 0.000132 -0.263439
C30   C     C_R   0.501918 0.314274 0.000255 -0.278184
C31   C     C_R   0.685835 0.500963 0.999731 -0.256242
C32   C     C_R   0.500073 0.685716 0.999319 -0.278031
C33   C     C_R   0.686944 0.999179 0.501104 -0.239206
C34   C     C_R   0.999844 0.688013 0.501761 -0.261574
C35   C     C_R   0.313110 0.000603 0.500749 -0.238886
C36   C     C_R   0.000425 0.313642 0.499787 -0.233062
C37   C     C_R   0.188070 0.499822 0.999832 -0.263255
C38   C     C_R   0.499468 0.186981 0.999047 -0.238943
C39   C     C_R   0.813179 0.499949 0.999433 -0.238531
C40   C     C_R   0.500851 0.813057 0.999045 -0.239189
C41   C     C_R   0.000131 0.120241 0.499899 1.044528
C42   C     C_R   0.879965 0.001092 0.500061 1.056127
C43   C     C_R   0.999047 0.880388 0.500129 1.064368
C44   C     C_R   0.120056 0.999227 0.500011 1.060593
C45   C     C_R   0.499511 0.620031 0.999837 1.059072
C46   C     C_R   0.380386 0.499919 0.000048 1.066049
C47   C     C_R   0.501439 0.379981 0.000094 1.062629
C48   C     C_R   0.620066 0.500927 0.999922 1.055010
C49   C     C_R   0.500040 0.999804 0.567319 0.995230
C50   C     C_R   0.999861 0.500463 0.567284 1.004579
C51   C     C_R   0.500233 0.000206 0.432642 0.982044
C52   C     C_R   0.000032 0.500710 0.432710 0.976445
C53   C     C_R   0.002793 0.499697 0.067329 0.962945
C54   C     C_R   0.499901 0.999974 0.067354 0.980195
C55   C     C_R   0.000403 0.500296 0.932659 0.971138
C56   C     C_R   0.500088 0.999938 0.932686 0.995202
C57   C     C_R   0.552537 0.020764 0.876694 0.290999
C58   C     C_R   0.983116 0.554959 0.876909 0.295282
C59   C     C_R   0.448264 0.977590 0.877056 0.291241
C60   C     C_R   0.023796 0.449340 0.876608 0.341324
C61   C     C_R   0.556026 0.995955 0.123299 0.323460
C62   C     C_R   0.002146 0.443002 0.123638 0.325688
C63   C     C_R   0.442972 0.004812 0.123186 0.322800
C64   C     C_R   0.020856 0.554488 0.122734 0.346371
C65   C     C_R   0.050020 0.530853 0.377259 0.336965
C66   C     C_R   0.496932 0.057617 0.376804 0.324661
C67   C     C_R   0.948488 0.481818 0.376755 0.293148
C68   C     C_R   0.504847 0.944444 0.376711 0.322372
C69   C     C_R   0.049209 0.476377 0.623540 0.286947
C70   C     C_R   0.478941 0.946919 0.623226 0.291104
C71   C     C_R   0.948391 0.527834 0.622433 0.291188
C72   C     C_R   0.521892 0.051310 0.623050 0.291023
C73   C     C_R   0.550928 0.023536 0.840875 0.325130
C74   C     C_R   0.979691 0.554043 0.841161 0.336714
C75   C     C_R   0.450306 0.973661 0.841306 0.324714
C76   C     C_R   0.024071 0.450166 0.840793 0.365960
C77   C     C_R   0.554636 0.989595 0.158952 0.348739
C78   C     C_R   0.997408 0.444557 0.159502 0.352734
C79   C     C_R   0.443874 0.012352 0.158728 0.348112
C80   C     C_R   0.021483 0.554978 0.158439 0.369513
C81   C     C_R   0.048989 0.534938 0.341514 0.363011
C82   C     C_R   0.489776 0.057015 0.341200 0.345749
C83   C     C_R   0.950921 0.479655 0.341014 0.336383
C84   C     C_R   0.511565 0.946015 0.341095 0.348597
C85   C     C_R   0.045870 0.473109 0.659313 0.324323
C86   C     C_R   0.475827 0.948312 0.659031 0.324843
C87   C     C_R   0.949306 0.531271 0.658250 0.325954
C88   C     C_R   0.525486 0.049064 0.658821 0.324682
C89   C     C_R   0.500687 0.998371 0.823359 -0.222311
C90   C     C_R   0.001247 0.502410 0.823191 -0.250471
C91   C     C_R   0.499141 0.001304 0.176631 -0.242252
C92   C     C_R   0.007566 0.500553 0.176761 -0.258360
C93   C     C_R   0.000147 0.507534 0.323446 -0.252298
C94   C     C_R   0.500425 0.001722 0.323360 -0.241450
C95   C     C_R   0.997035 0.502295 0.676511 -0.219877
C96   C     C_R   0.500734 0.998502 0.676659 -0.222193
C97   C     C_R   0.500284 0.999483 0.895013 -0.388066
C98   C     C_R   0.002297 0.501390 0.894940 -0.415713
C99   C     C_R   0.499635 0.000185 0.105092 -0.400996
C100  C     C_R   0.008416 0.499045 0.105045 -0.422232
C101  C     C_R   0.999752 0.504154 0.395107 -0.409764
C102  C     C_R   0.500690 0.000746 0.394902 -0.399927
C103  C     C_R   0.999241 0.501607 0.604902 -0.382509
C104  C     C_R   0.500271 0.999343 0.604996 -0.388136
C105  C     C_R   0.460616 0.038427 0.767856 -0.044311
C106  C     C_R   0.955479 0.466706 0.768372 -0.062095
C107  C     C_R   0.540590 0.958044 0.768008 -0.044573
C108  C     C_R   0.040697 0.540763 0.767167 -0.051268
C109  C     C_R   0.460565 0.960710 0.232563 -0.057643
C110  C     C_R   0.958446 0.535677 0.231001 -0.075248
C111  C     C_R   0.537391 0.043474 0.231803 -0.058278
C112  C     C_R   0.050463 0.469527 0.233492 -0.059251
C113  C     C_R   0.957320 0.538327 0.266774 -0.048278
C114  C     C_R   0.457636 0.964155 0.268187 -0.057485
C115  C     C_R   0.047495 0.469704 0.269277 -0.067775
C116  C     C_R   0.541110 0.040205 0.267425 -0.057595
C117  C     C_R   0.954568 0.466586 0.732511 -0.044666
C118  C     C_R   0.460328 0.038160 0.732017 -0.044368
C119  C     C_R   0.039435 0.541020 0.731345 -0.046999
C120  C     C_R   0.540858 0.958335 0.732158 -0.044531
C121  C     C_R   0.500620 0.998288 0.714252 0.114063
C122  C     C_R   0.996738 0.503529 0.714096 0.118962
C123  C     C_R   0.499675 0.002099 0.285717 0.067797
C124  C     C_R   0.001576 0.504958 0.285869 0.084075
C125  C     C_R   0.005430 0.501838 0.214385 0.060493
C126  C     C_R   0.498923 0.001927 0.214271 0.066592
C127  C     C_R   0.998909 0.503369 0.785608 0.086816
C128  C     C_R   0.500629 0.998252 0.785767 0.114032
C129  C     C_R   0.719889 0.953213 0.482980 -0.139839
C130  C     C_R   0.056141 0.721019 0.497401 -0.142636
C131  C     C_R   0.280510 0.045978 0.481801 -0.130412
C132  C     C_R   0.960670 0.282240 0.477393 -0.142971
C133  C     C_R   0.718479 0.044632 0.520009 -0.137703
C134  C     C_R   0.040458 0.281314 0.522010 -0.145292
C135  C     C_R   0.281310 0.955429 0.520155 -0.147322
C136  C     C_R   0.943499 0.720854 0.507049 -0.133047
C137  C     C_R   0.221298 0.442954 0.998376 -0.142086
C138  C     C_R   0.545559 0.218824 0.980338 -0.139168
C139  C     C_R   0.781310 0.544326 0.979453 -0.138524
C140  C     C_R   0.455295 0.781536 0.980188 -0.148933
C141  C     C_R   0.220817 0.556709 0.001265 -0.139274
C142  C     C_R   0.547093 0.780099 0.017116 -0.131819
C143  C     C_R   0.780751 0.455230 0.018840 -0.132961
C144  C     C_R   0.453452 0.219649 0.017332 -0.141262
O1    O     O_R   0.591570 0.051800 0.500070 -0.611792
O2    O     O_R   0.948200 0.591570 0.500070 -0.623657
O3    O     O_R   0.408430 0.948200 0.500070 -0.614116
O4    O     O_R   0.051800 0.408430 0.500070 -0.616129
O5    O     O_R   0.591570 0.948200 0.499930 -0.636093
O6    O     O_R   0.948200 0.408430 0.499930 -0.625614
O7    O     O_R   0.408430 0.051800 0.499930 -0.634292
O8    O     O_R   0.051800 0.591570 0.499930 -0.632698
O9    O     O_R   0.091570 0.551800 0.000070 -0.635362
O10   O     O_R   0.448200 0.091570 0.000070 -0.636134
O11   O     O_R   0.908430 0.448200 0.000070 -0.624244
O12   O     O_R   0.551800 0.908430 0.000070 -0.634079
O13   O     O_R   0.091570 0.448200 0.999930 -0.623834
O14   O     O_R   0.448200 0.908430 0.999930 -0.614388
O15   O     O_R   0.908430 0.551800 0.999930 -0.614121
O16   O     O_R   0.551800 0.091570 0.999930 -0.611860
O17   O     O_R   0.499930 0.051800 0.550990 -0.598859
O18   O     O_R   0.948200 0.499930 0.550990 -0.604389
O19   O     O_R   0.500070 0.948200 0.550990 -0.599321
O20   O     O_R   0.051800 0.500070 0.550990 -0.599684
O21   O     O_R   0.499930 0.948200 0.449010 -0.589106
O22   O     O_R   0.948200 0.500070 0.449010 -0.598387
O23   O     O_R   0.500070 0.051800 0.449010 -0.587608
O24   O     O_R   0.051800 0.499930 0.449010 -0.582427
O25   O     O_R   0.999930 0.551800 0.050990 -0.582948
O26   O     O_R   0.448200 0.999930 0.050990 -0.588813
O27   O     O_R   0.000070 0.448200 0.050990 -0.586771
O28   O     O_R   0.551800 0.000070 0.050990 -0.587998
O29   O     O_R   0.999930 0.448200 0.949010 -0.581985
O30   O     O_R   0.448200 0.000070 0.949010 -0.599122
O31   O     O_R   0.000070 0.551800 0.949010 -0.594197
O32   O     O_R   0.551800 0.999930 0.949010 -0.599054
O33   O     O_R   0.999990 0.091790 0.471350 -0.626616
O34   O     O_R   0.908210 0.999990 0.471350 -0.626768
O35   O     O_R   0.000010 0.908210 0.471350 -0.654381
O36   O     O_R   0.091790 0.000010 0.471350 -0.635909
O37   O     O_R   0.999990 0.908210 0.528650 -0.650051
O38   O     O_R   0.908210 0.000010 0.528650 -0.638989
O39   O     O_R   0.000010 0.091790 0.528650 -0.629315
O40   O     O_R   0.091790 0.999990 0.528650 -0.627370
O41   O     O_R   0.499990 0.591790 0.971350 -0.630619
O42   O     O_R   0.408210 0.499990 0.971350 -0.651339
O43   O     O_R   0.500010 0.408210 0.971350 -0.640086
O44   O     O_R   0.591790 0.500010 0.971350 -0.636424
O45   O     O_R   0.499990 0.408210 0.028650 -0.628138
O46   O     O_R   0.408210 0.500010 0.028650 -0.647002
O47   O     O_R   0.500010 0.591790 0.028650 -0.639032
O48   O     O_R   0.591790 0.499990 0.028650 -0.633490
Zn1   Zn    Zn3+2 0.500000 0.069140 0.500000 0.970608
Zn2   Zn    Zn3+2 0.930860 0.500000 0.500000 0.963354
Zn3   Zn    Zn3+2 0.500000 0.930860 0.500000 0.966901
Zn4   Zn    Zn3+2 0.069140 0.500000 0.500000 0.992460
Zn5   Zn    Zn3+2 0.000000 0.569140 0.000000 0.983724
Zn6   Zn    Zn3+2 0.430860 0.000000 0.000000 0.966337
Zn7   Zn    Zn3+2 0.000000 0.430860 0.000000 0.991126
Zn8   Zn    Zn3+2 0.569140 0.000000 0.000000 0.971243
Zn9   Zn    Zn3+2 0.000000 0.000000 0.461700 0.927534
Zn10  Zn    Zn3+2 0.000000 0.000000 0.538300 0.926218
Zn11  Zn    Zn3+2 0.500000 0.500000 0.961700 0.926035
Zn12  Zn    Zn3+2 0.500000 0.500000 0.038300 0.931266
O49   O     O_3   0.602953 0.044452 0.893787 -0.573863
C145  C     C_3   0.651219 0.000316 0.893286 0.185190
H1    H     H_    0.670087 0.994808 0.866974 0.176681
H2    H     H_    0.635296 0.954480 0.902982 0.126841
C146  C     C_3   0.703140 0.022147 0.916278 -0.791839
H3    H     H_    0.686022 0.027202 0.942943 0.261044
H4    H     H_    0.741510 0.987965 0.916032 0.195727
H5    H     H_    0.720779 0.067378 0.907004 0.260082
O50   O     O_3   0.961661 0.606332 0.894231 -0.568867
C147  C     C_3   0.008206 0.651876 0.894006 0.180220
H6    H     H_    0.015626 0.670559 0.867731 0.173775
H7    H     H_    0.052768 0.633119 0.903954 0.124044
C148  C     C_3   0.988235 0.704857 0.916921 -0.787201
H8    H     H_    0.981230 0.687820 0.943523 0.261163
H9    H     H_    0.024369 0.741089 0.916955 0.196900
H10   H     H_    0.944376 0.725307 0.907377 0.255780
O51   O     O_3   0.397574 0.954543 0.894524 -0.572558
C149  C     C_3   0.349460 0.998810 0.893291 0.186951
H11   H     H_    0.331036 0.003741 0.866873 0.176110
H12   H     H_    0.365386 0.044819 0.902319 0.124573
C150  C     C_3   0.297089 0.977719 0.916531 -0.797475
H13   H     H_    0.313766 0.973225 0.943288 0.261074
H14   H     H_    0.258859 0.012036 0.915731 0.195015
H15   H     H_    0.279416 0.932350 0.907899 0.259189
O52   O     O_3   0.041180 0.395560 0.893345 -0.531892
C151  C     C_3   0.104515 0.398862 0.901601 0.136889
H16   H     H_    0.113061 0.435522 0.920832 0.114365
H17   H     H_    0.133382 0.408249 0.878582 0.115672
C152  C     C_3   0.124755 0.337208 0.916726 -0.764003
H18   H     H_    0.117031 0.299768 0.897952 0.253785
H19   H     H_    0.174562 0.338628 0.923117 0.181990
H20   H     H_    0.097852 0.327145 0.940335 0.265314
O53   O     O_3   0.611807 0.006804 0.106783 -0.551671
C153  C     C_3   0.646172 0.951582 0.103568 0.175999
H21   H     H_    0.616434 0.911388 0.097222 0.111456
H22   H     H_    0.671913 0.941839 0.127470 0.174564
C154  C     C_3   0.694039 0.959922 0.075320 -0.765657
H23   H     H_    0.723469 0.000532 0.080821 0.250239
H24   H     H_    0.723965 0.918251 0.073838 0.206197
H25   H     H_    0.670972 0.967056 0.050268 0.262803
O54   O     O_3   0.011893 0.387134 0.107203 -0.551145
C155  C     C_3   0.956790 0.352795 0.105388 0.172526
H26   H     H_    0.915597 0.382654 0.100689 0.112244
H27   H     H_    0.950179 0.325788 0.129260 0.174269
C156  C     C_3   0.962492 0.306302 0.076483 -0.760338
H28   H     H_    0.003810 0.276573 0.080469 0.249600
H29   H     H_    0.920921 0.276491 0.075968 0.205631
H30   H     H_    0.966845 0.330545 0.051481 0.266315
O55   O     O_3   0.387484 0.993182 0.106797 -0.554396
C157  C     C_3   0.352441 0.047926 0.103028 0.179131
H31   H     H_    0.381769 0.088548 0.096530 0.112249
H32   H     H_    0.325938 0.057257 0.126747 0.175883
C158  C     C_3   0.305421 0.038960 0.074635 -0.771137
H33   H     H_    0.276454 0.997900 0.080282 0.249212
H34   H     H_    0.274928 0.080191 0.072748 0.206873
H35   H     H_    0.329208 0.032252 0.049725 0.263095
O56   O     O_3   0.031825 0.609348 0.105413 -0.534051
C159  C     C_3   0.095227 0.612315 0.096800 0.145875
H36   H     H_    0.108912 0.573869 0.079529 0.121320
H37   H     H_    0.124666 0.610398 0.120019 0.118044
C160  C     C_3   0.107834 0.673017 0.078368 -0.764325
H38   H     H_    0.095203 0.712385 0.095104 0.253102
H39   H     H_    0.157643 0.676196 0.071804 0.190117
H40   H     H_    0.080306 0.675714 0.054470 0.263120
O57   O     O_3   0.103094 0.548120 0.394215 -0.533948
C161  C     C_3   0.099306 0.611218 0.402859 0.139010
H41   H     H_    0.068078 0.617628 0.425216 0.122689
H42   H     H_    0.082387 0.640530 0.381323 0.111574
C162  C     C_3   0.163530 0.633309 0.412277 -0.758061
H43   H     H_    0.195459 0.627096 0.390264 0.259152
H44   H     H_    0.162106 0.682919 0.418994 0.183727
H45   H     H_    0.181235 0.606323 0.434454 0.264329
O58   O     O_3   0.509046 0.112805 0.393364 -0.554179
C163  C     C_3   0.455307 0.149703 0.395747 0.180530
H46   H     H_    0.412983 0.121687 0.400282 0.110865
H47   H     H_    0.449694 0.177835 0.372148 0.179272
C164  C     C_3   0.462699 0.194810 0.425155 -0.773017
H48   H     H_    0.504991 0.222888 0.421311 0.249535
H49   H     H_    0.422156 0.226317 0.426217 0.205714
H50   H     H_    0.466275 0.169465 0.449857 0.265244
O59   O     O_3   0.898813 0.455695 0.393746 -0.568141
C165  C     C_3   0.848820 0.497845 0.393010 0.181293
H51   H     H_    0.830610 0.503425 0.366576 0.174564
H52   H     H_    0.862592 0.543968 0.402909 0.122131
C166  C     C_3   0.797103 0.473227 0.415623 -0.790290
H53   H     H_    0.813598 0.467930 0.442373 0.259706
H54   H     H_    0.757451 0.505909 0.415234 0.194839
H55   H     H_    0.781520 0.427661 0.406121 0.260224
O60   O     O_3   0.493750 0.888558 0.393170 -0.552348
C167  C     C_3   0.548959 0.854273 0.396827 0.177540
H56   H     H_    0.588918 0.884048 0.403565 0.112317
H57   H     H_    0.559299 0.828813 0.372977 0.172924
C168  C     C_3   0.540134 0.806078 0.424946 -0.771272
H58   H     H_    0.499687 0.776652 0.419083 0.249927
H59   H     H_    0.581791 0.776172 0.426723 0.204392
H60   H     H_    0.532494 0.828878 0.449971 0.263002
O61   O     O_3   0.099038 0.450126 0.606744 -0.575053
C169  C     C_3   0.149410 0.491316 0.608146 0.186001
H61   H     H_    0.167056 0.495270 0.634742 0.175349
H62   H     H_    0.136322 0.538173 0.598508 0.129773
C170  C     C_3   0.201442 0.466891 0.585730 -0.792963
H63   H     H_    0.185548 0.463193 0.558827 0.262631
H64   H     H_    0.241357 0.498851 0.586648 0.196282
H65   H     H_    0.216413 0.420609 0.595009 0.258427
O62   O     O_3   0.455540 0.896527 0.606035 -0.572715
C171  C     C_3   0.499808 0.848381 0.606723 0.186712
H66   H     H_    0.505235 0.829402 0.633068 0.175745
H67   H     H_    0.545625 0.864503 0.597184 0.124671
C172  C     C_3   0.478268 0.796485 0.583678 -0.798673
H68   H     H_    0.473265 0.813732 0.556990 0.261183
H69   H     H_    0.512572 0.758222 0.584054 0.194052
H70   H     H_    0.433077 0.778634 0.592809 0.259209
O63   O     O_3   0.901109 0.556291 0.604417 -0.583757
C173  C     C_3   0.848297 0.518211 0.605492 0.181873
H71   H     H_    0.827523 0.517616 0.631546 0.179424
H72   H     H_    0.859464 0.469903 0.597794 0.129280
C174  C     C_3   0.800472 0.543768 0.580688 -0.807041
H73   H     H_    0.819446 0.543958 0.554246 0.265540
H74   H     H_    0.758458 0.514567 0.581428 0.196553
H75   H     H_    0.787675 0.591703 0.587881 0.255799
O64   O     O_3   0.545032 0.102143 0.605683 -0.572953
C175  C     C_3   0.500734 0.150232 0.606697 0.188195
H76   H     H_    0.495530 0.168488 0.633089 0.176000
H77   H     H_    0.454845 0.134324 0.597438 0.126646
C176  C     C_3   0.522009 0.202786 0.583564 -0.798354
H78   H     H_    0.526776 0.186282 0.556829 0.261460
H79   H     H_    0.487675 0.241004 0.584193 0.195273
H80   H     H_    0.567266 0.220431 0.592424 0.258411
O65   O     O_3   0.600699 0.047121 0.822882 -0.595273
C177  C     C_3   0.592581 0.111478 0.819050 0.139758
H81   H     H_    0.586805 0.134495 0.844297 0.161493
H82   H     H_    0.551709 0.121846 0.802753 0.133595
C178  C     C_3   0.649451 0.138296 0.801680 -0.815655
H83   H     H_    0.657512 0.115137 0.776791 0.257236
H84   H     H_    0.642771 0.188564 0.797137 0.205028
H85   H     H_    0.690551 0.131213 0.818199 0.262249
O66   O     O_3   0.958155 0.605409 0.823569 -0.593665
C179  C     C_3   0.893309 0.601629 0.821022 0.148360
H86   H     H_    0.871195 0.599148 0.846780 0.167121
H87   H     H_    0.879608 0.560561 0.805878 0.133562
C180  C     C_3   0.869304 0.659119 0.802821 -0.821340
H88   H     H_    0.891473 0.663596 0.777273 0.257781
H89   H     H_    0.818515 0.655914 0.799520 0.205675
H90   H     H_    0.879986 0.700758 0.818120 0.260864
O67   O     O_3   0.400757 0.949462 0.823733 -0.594985
C181  C     C_3   0.409076 0.885028 0.820963 0.141300
H91   H     H_    0.414523 0.862769 0.846591 0.160837
H92   H     H_    0.450219 0.874285 0.804882 0.133422
C182  C     C_3   0.352532 0.857563 0.803984 -0.819074
H93   H     H_    0.344867 0.879871 0.778678 0.257519
H94   H     H_    0.359353 0.807168 0.800345 0.204519
H95   H     H_    0.311145 0.865131 0.820308 0.261069
O68   O     O_3   0.041592 0.397006 0.823632 -0.556199
C183  C     C_3   0.099017 0.405890 0.806960 0.112726
H96   H     H_    0.129450 0.439739 0.820096 0.101509
H97   H     H_    0.091201 0.422010 0.780309 0.158455
C184  C     C_3   0.133088 0.344411 0.805273 -0.817859
H98   H     H_    0.105144 0.310343 0.790984 0.263671
H99   H     H_    0.178018 0.350611 0.791944 0.203416
H100  H     H_    0.141753 0.326421 0.831500 0.257140
O69   O     O_3   0.609066 0.979111 0.176615 -0.578586
C185  C     C_3   0.610554 0.916956 0.188075 0.075847
H101  H     H_    0.609330 0.884525 0.166099 0.107712
H102  H     H_    0.571279 0.906021 0.205403 0.149902
C186  C     C_3   0.669782 0.905735 0.207980 -0.812236
H103  H     H_    0.671114 0.936411 0.230638 0.255602
H104  H     H_    0.671803 0.856919 0.216824 0.206552
H105  H     H_    0.710465 0.915268 0.191431 0.255966
O70   O     O_3   0.989936 0.389933 0.177703 -0.573750
C187  C     C_3   0.928070 0.385505 0.189237 0.081169
H106  H     H_    0.894819 0.390154 0.167675 0.104078
H107  H     H_    0.916985 0.421349 0.208472 0.157810
C188  C     C_3   0.918673 0.322861 0.206270 -0.820255
H108  H     H_    0.949648 0.318169 0.228751 0.261902
H109  H     H_    0.870040 0.318417 0.214995 0.209579
H110  H     H_    0.929060 0.285269 0.187921 0.253810
O71   O     O_3   0.389242 0.023397 0.176200 -0.580149
C189  C     C_3   0.387572 0.085938 0.186510 0.075416
H111  H     H_    0.388089 0.117514 0.163909 0.108719
H112  H     H_    0.427139 0.097818 0.203215 0.149083
C190  C     C_3   0.328701 0.097491 0.206802 -0.810701
H113  H     H_    0.327999 0.067534 0.229995 0.255979
H114  H     H_    0.326602 0.146563 0.214825 0.207191
H115  H     H_    0.287740 0.087226 0.190826 0.255595
O72   O     O_3   0.031112 0.610742 0.174860 -0.558670
C191  C     C_3   0.089319 0.610633 0.191272 0.114725
H116  H     H_    0.124388 0.580801 0.178368 0.103683
H117  H     H_    0.084126 0.594733 0.218168 0.150281
C192  C     C_3   0.113949 0.676276 0.192043 -0.808277
H118  H     H_    0.081194 0.706674 0.206035 0.260487
H119  H     H_    0.159258 0.676935 0.205260 0.204493
H120  H     H_    0.119967 0.694216 0.165562 0.257566
O73   O     O_3   0.099631 0.560087 0.324736 -0.558498
C193  C     C_3   0.083063 0.616731 0.308868 0.104711
H121  H     H_    0.048064 0.643434 0.323763 0.103100
H122  H     H_    0.064648 0.608313 0.282875 0.149307
C194  C     C_3   0.140387 0.656467 0.304894 -0.811272
H123  H     H_    0.175630 0.631834 0.289352 0.261509
H124  H     H_    0.128212 0.700536 0.291810 0.204682
H125  H     H_    0.159983 0.666929 0.330410 0.253575
O74   O     O_3   0.479553 0.111829 0.323607 -0.582109
C195  C     C_3   0.417102 0.114422 0.313084 0.073538
H126  H     H_    0.385620 0.116432 0.335612 0.109437
H127  H     H_    0.403988 0.074001 0.297351 0.148282
C196  C     C_3   0.407181 0.172091 0.291355 -0.808767
H128  H     H_    0.437115 0.170273 0.268238 0.255278
H129  H     H_    0.358189 0.174972 0.283175 0.206645
H130  H     H_    0.418611 0.213887 0.306344 0.256066
O75   O     O_3   0.903525 0.452253 0.323052 -0.592654
C197  C     C_3   0.916770 0.388700 0.319710 0.147384
H131  H     H_    0.916535 0.365290 0.345179 0.168933
H132  H     H_    0.962374 0.381095 0.307101 0.129173
C198  C     C_3   0.867508 0.359347 0.297572 -0.827978
H133  H     H_    0.866288 0.382472 0.272126 0.256661
H134  H     H_    0.878011 0.309545 0.294040 0.206671
H135  H     H_    0.821565 0.364084 0.310010 0.264860
O76   O     O_3   0.521743 0.891577 0.323497 -0.577945
C199  C     C_3   0.583873 0.889770 0.312172 0.077032
H136  H     H_    0.616318 0.891171 0.334198 0.107040
H137  H     H_    0.594885 0.928815 0.294637 0.149972
C200  C     C_3   0.594919 0.830251 0.292630 -0.814809
H138  H     H_    0.564248 0.828732 0.269919 0.256464
H139  H     H_    0.643712 0.827985 0.283896 0.206047
H140  H     H_    0.585274 0.789779 0.309389 0.255155
O77   O     O_3   0.092718 0.444814 0.677673 -0.596550
C201  C     C_3   0.079547 0.381209 0.680500 0.137135
H141  H     H_    0.077416 0.359323 0.654806 0.166342
H142  H     H_    0.035032 0.373582 0.694218 0.131477
C202  C     C_3   0.130554 0.349665 0.700845 -0.821373
H143  H     H_    0.133904 0.370553 0.726628 0.253128
H144  H     H_    0.120316 0.299685 0.703727 0.206717
H145  H     H_    0.175442 0.355070 0.687354 0.261880
O78   O     O_3   0.452121 0.898405 0.676922 -0.595354
C203  C     C_3   0.387732 0.906422 0.680381 0.141422
H146  H     H_    0.365004 0.911913 0.654980 0.162121
H147  H     H_    0.377085 0.947437 0.696422 0.133579
C204  C     C_3   0.360851 0.849640 0.697884 -0.819005
H148  H     H_    0.383649 0.841941 0.722969 0.257382
H149  H     H_    0.310517 0.856212 0.702062 0.205018
H150  H     H_    0.368304 0.808360 0.681638 0.260977
O79   O     O_3   0.901294 0.559673 0.675551 -0.597250
C205  C     C_3   0.914338 0.623226 0.678309 0.140214
H151  H     H_    0.921821 0.644893 0.652684 0.161724
H152  H     H_    0.955894 0.630587 0.694446 0.136092
C206  C     C_3   0.859756 0.655349 0.695193 -0.824718
H153  H     H_    0.850208 0.633959 0.720553 0.258751
H154  H     H_    0.870176 0.705071 0.698713 0.204903
H155  H     H_    0.818128 0.651034 0.678867 0.259044
O80   O     O_3   0.549358 0.098603 0.676499 -0.595170
C207  C     C_3   0.613753 0.090436 0.679633 0.141005
H156  H     H_    0.636296 0.084760 0.654153 0.160179
H157  H     H_    0.624384 0.049466 0.695983 0.133649
C208  C     C_3   0.640922 0.147235 0.696455 -0.819523
H158  H     H_    0.618250 0.155210 0.721569 0.257781
H159  H     H_    0.691248 0.140501 0.700457 0.204658
H160  H     H_    0.633557 0.188423 0.679841 0.260851
C209  C     C_1   0.420480 0.080543 0.786351 0.192782
N1    N     N_1   0.388524 0.114076 0.801146 -0.224639
C210  C     C_1   0.911604 0.429592 0.787579 0.213355
N2    N     N_1   0.876635 0.400037 0.802935 -0.192046
C211  C     C_1   0.580750 0.915958 0.786676 0.193688
N3    N     N_1   0.612728 0.882445 0.801611 -0.221806
C212  C     C_1   0.086040 0.577517 0.785106 0.196053
N4    N     N_1   0.122148 0.606773 0.799457 -0.223426
C213  C     C_1   0.425422 0.913708 0.214919 0.239305
N5    N     N_1   0.397477 0.876220 0.200861 -0.187944
C214  C     C_1   0.910759 0.566817 0.211271 0.222183
N6    N     N_1   0.872757 0.591598 0.195515 -0.194561
C215  C     C_1   0.572182 0.090318 0.213345 0.237556
N7    N     N_1   0.599846 0.127676 0.198634 -0.185682
C216  C     C_1   0.100772 0.437657 0.216340 0.231635
N8    N     N_1   0.140873 0.412301 0.202640 -0.191101
C217  C     C_1   0.911631 0.576479 0.283948 0.206805
N9    N     N_1   0.875252 0.606869 0.297680 -0.223452
C218  C     C_1   0.410637 0.929627 0.286649 0.236787
N10   N     N_1   0.373157 0.902173 0.301362 -0.188340
C219  C     C_1   0.091187 0.433139 0.289026 0.221877
N11   N     N_1   0.125968 0.403984 0.304796 -0.186759
C220  C     C_1   0.588585 0.074739 0.285066 0.239849
N12   N     N_1   0.626451 0.102199 0.299123 -0.184960
C221  C     C_1   0.911154 0.427712 0.714511 0.192321
N13   N     N_1   0.876578 0.396749 0.700106 -0.220031
C222  C     C_1   0.418142 0.078240 0.713370 0.192844
N14   N     N_1   0.384553 0.110151 0.698453 -0.222328
C223  C     C_1   0.081779 0.579982 0.712167 0.188976
N15   N     N_1   0.115489 0.610996 0.696828 -0.222061
C224  C     C_1   0.583018 0.918275 0.713641 0.193353
N16   N     N_1   0.616591 0.886377 0.698826 -0.224185
C225  C     C_1   0.690084 0.901104 0.467078 0.263326
N17   N     N_1   0.667045 0.858869 0.454546 -0.237197
C226  C     C_1   0.116652 0.692065 0.496892 0.301077
N18   N     N_1   0.165156 0.669405 0.496680 -0.212904
C227  C     C_1   0.310805 0.096939 0.464600 0.262589
N19   N     N_1   0.334231 0.138277 0.451008 -0.236737
C228  C     C_1   0.917821 0.314852 0.455211 0.260254
N20   N     N_1   0.883474 0.340655 0.437502 -0.154987
C229  C     C_1   0.686126 0.091733 0.539357 0.269383
N21   N     N_1   0.660431 0.129365 0.554826 -0.167988
C230  C     C_1   0.083472 0.312977 0.544100 0.256859
N22   N     N_1   0.117962 0.338011 0.561736 -0.158613
C231  C     C_1   0.313407 0.908168 0.539761 0.269850
N23   N     N_1   0.338901 0.870408 0.555430 -0.167279
C232  C     C_1   0.884026 0.691156 0.511392 0.309867
N24   N     N_1   0.836420 0.667798 0.514895 -0.211297
C233  C     C_1   0.192547 0.382651 0.000313 0.307547
N25   N     N_1   0.170028 0.334330 0.001991 -0.203699
C234  C     C_1   0.592962 0.186754 0.960986 0.271756
N26   N     N_1   0.630816 0.161266 0.945514 -0.167659
C235  C     C_1   0.813461 0.590570 0.959219 0.267340
N27   N     N_1   0.839060 0.627476 0.943049 -0.165579
C236  C     C_1   0.407309 0.813825 0.961328 0.271155
N28   N     N_1   0.368953 0.839441 0.946249 -0.167557
C237  C     C_1   0.191745 0.617043 0.998660 0.289666
N29   N     N_1   0.168955 0.665359 0.996444 -0.216153
C238  C     C_1   0.598672 0.810052 0.033483 0.264560
N30   N     N_1   0.640475 0.833224 0.046401 -0.235439
C239  C     C_1   0.811379 0.405154 0.036778 0.266677
N31   N     N_1   0.835076 0.364548 0.050992 -0.234490
C240  C     C_1   0.400785 0.189736 0.033033 0.262296
N32   N     N_1   0.358070 0.166667 0.045389 -0.233832
O81   O     O_3   0.817280 0.912157 0.463349 -0.560482
C241  C     C_3   0.817592 0.926817 0.428026 0.145425
H161  H     H_    0.830390 0.975944 0.423175 0.137545
H162  H     H_    0.771602 0.918188 0.416509 0.122940
C242  C     C_3   0.864658 0.885912 0.410057 -0.794204
H163  H     H_    0.852774 0.836513 0.414007 0.258633
H164  H     H_    0.864849 0.896317 0.382195 0.187159
H165  H     H_    0.911481 0.894457 0.420443 0.266964
O82   O     O_3   0.108229 0.818120 0.488728 -0.572415
C243  C     C_3   0.120236 0.820328 0.453161 0.108064
H166  H     H_    0.084764 0.848628 0.439712 0.150229
H167  H     H_    0.120900 0.773416 0.441769 0.111680
C244  C     C_3   0.183064 0.849439 0.446898 -0.772491
H168  H     H_    0.219275 0.823387 0.461049 0.270068
H169  H     H_    0.194110 0.848637 0.419139 0.192543
H170  H     H_    0.182688 0.898082 0.455539 0.242611
O83   O     O_3   0.183395 0.086153 0.461148 -0.586305
C245  C     C_3   0.183560 0.069058 0.426263 0.143089
H171  H     H_    0.173856 0.018915 0.422798 0.131717
H172  H     H_    0.228820 0.079866 0.414215 0.129945
C246  C     C_3   0.133808 0.105615 0.407527 -0.816279
H173  H     H_    0.141980 0.155930 0.410357 0.256329
H174  H     H_    0.134574 0.093924 0.379907 0.193346
H175  H     H_    0.087681 0.094080 0.418192 0.263917
O84   O     O_3   0.923787 0.185953 0.454753 -0.586403
C247  C     C_3   0.949438 0.184518 0.421409 0.142517
H176  H     H_    0.999766 0.173393 0.421645 0.135411
H177  H     H_    0.942683 0.229636 0.408210 0.132352
C248  C     C_3   0.916835 0.135175 0.400738 -0.805764
H178  H     H_    0.866664 0.145656 0.399256 0.257976
H179  H     H_    0.936225 0.133870 0.374413 0.191437
H180  H     H_    0.923378 0.089168 0.412975 0.262602
O85   O     O_3   0.815182 0.087118 0.539281 -0.589495
C249  C     C_3   0.817423 0.069024 0.574133 0.139162
H181  H     H_    0.827840 0.018822 0.577427 0.130745
H182  H     H_    0.772862 0.079415 0.587060 0.134278
C250  C     C_3   0.867865 0.105232 0.591967 -0.818661
H183  H     H_    0.859020 0.155600 0.589279 0.254672
H184  H     H_    0.868820 0.092886 0.619586 0.192820
H185  H     H_    0.913469 0.094034 0.580505 0.265854
O86   O     O_3   0.077624 0.184074 0.544447 -0.584928
C251  C     C_3   0.052609 0.182338 0.577948 0.142900
H186  H     H_    0.002117 0.172412 0.578036 0.133482
H187  H     H_    0.060304 0.226923 0.591131 0.131300
C252  C     C_3   0.084910 0.131706 0.598399 -0.810947
H188  H     H_    0.135270 0.140924 0.599519 0.254738
H189  H     H_    0.066116 0.130236 0.624860 0.191070
H190  H     H_    0.077368 0.086158 0.586234 0.264199
O87   O     O_3   0.184431 0.912772 0.539563 -0.562785
C253  C     C_3   0.181501 0.930135 0.574373 0.139444
H191  H     H_    0.168986 0.979803 0.577532 0.135551
H192  H     H_    0.226425 0.921467 0.587214 0.128986
C254  C     C_3   0.132650 0.891465 0.592425 -0.784443
H193  H     H_    0.144213 0.841614 0.590227 0.260497
H194  H     H_    0.130509 0.903900 0.619923 0.185336
H195  H     H_    0.086753 0.900111 0.580722 0.267521
O88   O     O_3   0.890668 0.818298 0.514564 -0.574221
C255  C     C_3   0.880495 0.821346 0.550286 0.121831
H196  H     H_    0.918670 0.846267 0.563161 0.146063
H197  H     H_    0.876382 0.774483 0.561940 0.130244
C256  C     C_3   0.820519 0.855930 0.557178 -0.790020
H198  H     H_    0.781748 0.833485 0.543573 0.268138
H199  H     H_    0.810533 0.855764 0.585065 0.189848
H200  H     H_    0.824533 0.904464 0.548327 0.244703
O89   O     O_3   0.318661 0.390010 0.990786 -0.567831
C257  C     C_3   0.319170 0.376154 0.955467 0.119909
H201  H     H_    0.343580 0.412716 0.940596 0.142538
H202  H     H_    0.271519 0.371569 0.945302 0.113073
C258  C     C_3   0.352458 0.315105 0.949747 -0.779709
H203  H     H_    0.332187 0.278486 0.966299 0.272247
H204  H     H_    0.348008 0.301292 0.922559 0.187059
H205  H     H_    0.402147 0.320036 0.955677 0.240718
O90   O     O_3   0.589100 0.315907 0.961541 -0.584126
C259  C     C_3   0.572345 0.319013 0.926588 0.134448
H206  H     H_    0.522468 0.330327 0.923024 0.131339
H207  H     H_    0.582405 0.274507 0.913705 0.134416
C260  C     C_3   0.610120 0.369091 0.908951 -0.804733
H208  H     H_    0.660188 0.359011 0.911730 0.259179
H209  H     H_    0.598509 0.371004 0.881308 0.191384
H210  H     H_    0.599732 0.414677 0.920490 0.264681
O91   O     O_3   0.684277 0.586028 0.959346 -0.585963
C261  C     C_3   0.682020 0.566978 0.924804 0.140760
H211  H     H_    0.671178 0.516883 0.922350 0.135812
H212  H     H_    0.726717 0.576180 0.911755 0.133728
C262  C     C_3   0.631961 0.603573 0.906331 -0.813583
H213  H     H_    0.641793 0.653791 0.907799 0.256506
H214  H     H_    0.630408 0.589843 0.879023 0.192362
H215  H     H_    0.586291 0.594294 0.918233 0.265069
O92   O     O_3   0.412425 0.684978 0.961231 -0.561150
C263  C     C_3   0.428941 0.682577 0.926212 0.141636
H216  H     H_    0.478274 0.669213 0.922453 0.133302
H217  H     H_    0.420859 0.727971 0.913539 0.127884
C264  C     C_3   0.388984 0.634862 0.908572 -0.784310
H218  H     H_    0.339428 0.647305 0.911398 0.260032
H219  H     H_    0.400774 0.633118 0.880921 0.184884
H220  H     H_    0.397016 0.588540 0.920115 0.267894
O93   O     O_3   0.317512 0.609708 0.009157 -0.571705
C265  C     C_3   0.316151 0.624646 0.044331 0.114675
H221  H     H_    0.338467 0.587617 0.059949 0.140953
H222  H     H_    0.267968 0.631531 0.053618 0.119657
C266  C     C_3   0.351040 0.684482 0.049997 -0.770551
H223  H     H_    0.332579 0.721510 0.033030 0.272661
H224  H     H_    0.345888 0.699040 0.077049 0.192575
H225  H     H_    0.400787 0.677505 0.044537 0.239256
O94   O     O_3   0.588548 0.682517 0.036674 -0.583086
C267  C     C_3   0.573416 0.681896 0.071924 0.138278
H226  H     H_    0.523826 0.670729 0.076490 0.133337
H227  H     H_    0.583510 0.727323 0.083675 0.128709
C268  C     C_3   0.612435 0.633065 0.089941 -0.806968
H228  H     H_    0.662262 0.643062 0.086170 0.258515
H229  H     H_    0.601942 0.632935 0.117772 0.193117
H230  H     H_    0.602110 0.586722 0.079477 0.263482
O95   O     O_3   0.683760 0.414800 0.039284 -0.583477
C269  C     C_3   0.682710 0.432245 0.074113 0.140179
H231  H     H_    0.671469 0.482191 0.077370 0.134796
H232  H     H_    0.727998 0.422568 0.086352 0.130153
C270  C     C_3   0.633695 0.394783 0.092827 -0.804516
H233  H     H_    0.643999 0.344674 0.090573 0.259404
H234  H     H_    0.632967 0.407371 0.120323 0.192998
H235  H     H_    0.587518 0.404438 0.081694 0.263039
O96   O     O_3   0.412598 0.316656 0.037293 -0.556495
C271  C     C_3   0.426925 0.316348 0.072566 0.142706
H236  H     H_    0.475863 0.329555 0.077272 0.134293
H237  H     H_    0.418653 0.269994 0.084052 0.122965
C272  C     C_3   0.385413 0.362663 0.090673 -0.774526
H238  H     H_    0.336190 0.350318 0.086883 0.263414
H239  H     H_    0.395615 0.362461 0.118501 0.186336
H240  H     H_    0.393527 0.409780 0.080248 0.265701

loop_
_geom_bond_atom_site_label_1
_geom_bond_atom_site_label_2
_ccdc_geom_bond_type
C24   O96   S    
C22   O94   S    
C4    C36   S    
C247  H176  S    
O68   C183  S    
C82   C94   A    
C5    C37   S    
C176  H79   S    
C32   C45   S    
C226  N18   T    
C241  C242  S    
C271  C272  S    
C178  H83   S    
O12   Zn8   S    
O85   C249  S    
C164  H50   S    
C249  C250  S    
C269  H231  S    
C252  H190  S    
C46   O46   A    
C48   O44   A    
C60   C98   A    
C245  H171  S    
C7    O15   A    
C83   C93   A    
C150  H15   S    
C183  C184  S    
C200  H138  S    
C206  H153  S    
C265  H221  S    
O6    Zn2   S    
C188  H110  S    
C157  H32   S    
C197  C198  S    
C258  H204  S    
C171  H66   S    
C141  C237  S    
C183  H96   S    
C45   O47   A    
C250  H184  S    
C255  H196  S    
O2    Zn2   S    
C148  H9    S    
C165  C166  S    
C190  H113  S    
C186  H105  S    
C2    C34   S    
C110  C214  S    
C72   C88   A    
C19   C31   A    
C50   C103  S    
O38   Zn10  S    
O54   C155  S    
C197  H132  S    
C23   C143  A    
O21   Zn3   S    
C182  H94   S    
C251  H187  S    
C74   O66   S    
C2    O8    A    
C272  H240  S    
C171  H67   S    
C52   C101  S    
C82   O74   S    
C156  H29   S    
C50   O20   A    
C210  N2    T    
O40   Zn10  S    
O36   Zn9   S    
C145  H1    S    
C62   O54   S    
C191  H117  S    
C269  C270  S    
C72   O64   S    
C213  N5    T    
C21   C29   A    
C106  C127  A    
C179  C180  S    
C48   O48   A    
C56   O30   A    
C244  H170  S    
C23   C31   A    
O95   C269  S    
C80   C92   A    
O52   C151  S    
C140  C236  S    
C66   C82   A    
C272  H239  S    
C15   C27   A    
C11   C27   A    
C254  H195  S    
C57   C97   A    
C175  C176  S    
O48   Zn12  S    
C256  H198  S    
C46   O42   A    
C180  H90   S    
C151  H17   S    
C268  H228  S    
C191  H116  S    
C95   C122  S    
O87   C253  S    
C109  C213  S    
C31   C48   S    
O71   C189  S    
C208  H160  S    
C195  H127  S    
C105  C118  A    
O83   C245  S    
C107  C120  A    
C178  H85   S    
C264  H218  S    
O13   Zn7   S    
O49   C145  S    
C249  H181  S    
C77   C91   A    
C205  H152  S    
C12   C132  A    
C173  C174  S    
C147  H6    S    
C70   C104  A    
C13   C133  A    
C68   C102  A    
C259  C260  S    
C21   O93   S    
C4    O6    A    
C192  H118  S    
C157  C158  S    
O7    Zn1   S    
C78   C92   A    
C74   C90   A    
C164  H48   S    
O93   C265  S    
C165  H52   S    
C177  C178  S    
O46   Zn12  S    
C233  N25   T    
C113  C124  A    
C42   O34   A    
C166  H54   S    
C258  H203  S    
O53   C153  S    
C40   C140  A    
C55   C98   S    
C200  H140  S    
O14   Zn6   S    
O72   C191  S    
C179  H87   S    
O88   C255  S    
C201  H142  S    
C252  H189  S    
C116  C220  S    
C73   C89   A    
C78   O70   S    
C19   C139  A    
C174  H73   S    
C106  C210  S    
C146  H4    S    
C243  H166  S    
C17   C137  A    
C8    C40   S    
C158  H34   S    
C196  H128  S    
O69   C185  S    
C149  H11   S    
C187  C188  S    
C143  C239  S    
C4    O4    A    
C3    O3    A    
O91   C261  S    
C116  C123  A    
C50   O18   A    
C132  C228  S    
C1    O1    A    
C58   C98   A    
O75   C197  S    
C65   C101  A    
C45   O41   A    
C92   C125  S    
C162  H45   S    
C49   C104  S    
C194  H123  S    
O77   C201  S    
C51   C102  S    
C156  H28   S    
C221  N13   T    
C22   C32   A    
C96   C121  S    
C56   O32   A    
C41   O33   A    
C135  C231  S    
C36   C132  A    
O56   C159  S    
O10   Zn6   S    
C147  H7    S    
C163  H47   S    
C172  H69   S    
C134  C230  S    
C158  H33   S    
C57   C73   A    
C76   O68   S    
C248  H178  S    
C267  H226  S    
C268  H230  S    
C173  H72   S    
C203  H146  S    
C27   C44   S    
C55   O29   A    
C235  N27   T    
C61   C77   A    
C170  H64   S    
C243  C244  S    
C87   C95   A    
C261  C262  S    
C6    C38   S    
C105  C209  S    
C207  H156  S    
C107  C211  S    
C152  H18   S    
C70   O62   S    
C49   O17   A    
C205  C206  S    
O58   C163  S    
O23   Zn1   S    
O79   C205  S    
C56   C97   S    
C17   O89   S    
C198  H134  S    
C219  N11   T    
C267  H227  S    
C69   C103  A    
C10   O82   S    
C264  H220  S    
C169  H62   S    
C14   O86   S    
O8    Zn4   S    
C54   O28   A    
C247  C248  S    
C35   C135  A    
C177  H81   S    
C271  H237  S    
C149  C150  S    
C206  H154  S    
C148  H8    S    
C43   O37   A    
O74   C195  S    
C196  H130  S    
C267  C268  S    
C183  H97   S    
C117  C122  A    
O60   C167  S    
C220  N12   T    
C265  C266  S    
O90   C259  S    
C3    C35   S    
C174  H75   S    
C68   O60   S    
C22   C142  A    
C207  C208  S    
C146  H3    S    
C15   O87   S    
O17   Zn1   S    
C260  H210  S    
C263  H217  S    
C160  H39   S    
C185  C186  S    
C200  H139  S    
C109  C114  A    
C114  C123  A    
C199  H136  S    
O33   Zn9   S    
C54   C99   S    
C51   O21   A    
C47   O43   A    
C234  N26   T    
C16   C136  A    
C262  H215  S    
O11   Zn7   S    
C120  C121  A    
C67   C101  A    
O25   Zn5   S    
C20   C32   A    
C208  H158  S    
C71   C103  A    
C155  H26   S    
C149  H12   S    
C156  H30   S    
C269  H232  S    
C253  C254  S    
C161  H41   S    
C62   C78   A    
C146  H5    S    
O22   Zn2   S    
C253  H191  S    
C36   C134  A    
C230  N22   T    
O20   Zn4   S    
C136  C232  S    
C159  H36   S    
C244  H169  S    
C246  H175  S    
C87   O79   S    
C154  H25   S    
C270  H235  S    
C81   O73   S    
C260  H208  S    
O73   C193  S    
O5    Zn3   S    
C13   O85   S    
C14   C134  A    
C85   C95   A    
C129  C225  S    
C150  H14   S    
O42   Zn11  S    
O28   Zn8   S    
C241  H162  S    
C152  H20   S    
C265  H222  S    
C49   O19   A    
C75   C89   A    
C109  C126  A    
C199  C200  S    
C250  H183  S    
C131  C227  S    
O34   Zn9   S    
C222  N14   T    
C163  H46   S    
C175  H77   S    
C266  H224  S    
O82   C243  S    
C89   C128  S    
O78   C203  S    
C236  N28   T    
C190  H114  S    
C186  H104  S    
C155  C156  S    
C88   C96   A    
C14   C28   A    
C189  H111  S    
O29   Zn7   S    
C185  H102  S    
C17   C29   A    
C54   O26   A    
C218  N10   T    
C161  C162  S    
C8    O14   A    
C44   O36   A    
C159  C160  S    
C182  H93   S    
C9    C25   A    
O50   C147  S    
C42   O38   A    
C148  H10   S    
C67   C83   A    
C184  H99   S    
C153  C154  S    
C43   O35   A    
O67   C181  S    
C37   C141  A    
C12   C28   A    
O65   C177  S    
C251  H186  S    
C150  H13   S    
C186  H103  S    
C167  H56   S    
C259  H207  S    
C204  H149  S    
C138  C234  S    
O43   Zn11  S    
C28   C41   S    
C242  H165  S    
C75   O67   S    
C66   O58   S    
C168  H58   S    
C18   C138  A    
C185  H101  S    
O31   Zn5   S    
C253  H192  S    
C64   C80   A    
C51   O23   A    
C166  H55   S    
O35   Zn9   S    
C254  H194  S    
C163  C164  S    
C90   C127  S    
C58   C74   A    
C1    O5    A    
C111  C116  A    
C180  H89   S    
O1    Zn1   S    
C229  N21   T    
C245  C246  S    
C53   O25   A    
C237  N29   T    
C23   O95   S    
C94   C123  S    
C53   C100  S    
C225  N17   T    
C248  H179  S    
C108  C119  A    
O80   C207  S    
O32   Zn8   S    
C139  C235  S    
C178  H84   S    
C112  C216  S    
C262  H213  S    
C153  H22   S    
C181  H91   S    
O45   Zn12  S    
C16   C26   A    
C158  H35   S    
C249  H182  S    
C256  H199  S    
C68   C84   A    
C238  N30   T    
C167  C168  S    
C20   O92   S    
C72   C104  A    
C181  C182  S    
O86   C251  S    
C137  C233  S    
C60   O52   S    
C179  H86   S    
C203  C204  S    
C214  N6    T    
C10   C130  A    
O84   C247  S    
C246  H174  S    
C69   C85   A    
C264  H219  S    
C65   C81   A    
O19   Zn3   S    
C240  N32   T    
C250  H185  S    
C111  C126  A    
C168  H59   S    
C84   C94   A    
C193  H122  S    
C181  H92   S    
C201  C202  S    
C6    O10   A    
C69   O61   S    
C71   C87   A    
C5    O13   A    
C106  C117  A    
C197  H131  S    
C243  H167  S    
C164  H49   S    
O47   Zn12  S    
C35   C131  A    
C182  H95   S    
C266  H223  S    
C272  H238  S    
C33   C129  A    
C153  H21   S    
C115  C124  A    
C64   O56   S    
O39   Zn10  S    
C38   C144  A    
C119  C223  S    
O61   C169  S    
C16   O88   S    
C204  H150  S    
C25   C42   S    
C86   O78   S    
C192  H120  S    
C254  H193  S    
C114  C218  S    
C189  C190  S    
C29   C46   S    
C20   C140  A    
C21   C141  A    
C151  H16   S    
C242  H164  S    
C247  H177  S    
C85   O77   S    
C257  C258  S    
C172  H68   S    
O55   C157  S    
C24   C144  A    
C60   C76   A    
C257  H202  S    
O76   C199  S    
C79   O71   S    
O64   C175  S    
C187  H107  S    
C130  C226  S    
C268  H229  S    
C53   O27   A    
C58   O50   S    
C64   C100  A    
C7    O11   A    
C11   O83   S    
C170  H63   S    
C195  H126  S    
C41   O39   A    
C207  H157  S    
O94   C267  S    
C71   O63   S    
C80   O72   S    
C76   C90   A    
C171  C172  S    
C88   O80   S    
C245  H172  S    
C205  H151  S    
C91   C126  S    
C40   C142  A    
C176  H78   S    
C66   C102  A    
O37   Zn10  S    
C83   O75   S    
C93   C124  S    
C118  C222  S    
C202  H145  S    
C191  C192  S    
C198  H133  S    
C204  H148  S    
C1    C33   S    
C232  N24   T    
O16   Zn8   S    
C63   C79   A    
O62   C171  S    
C77   O69   S    
C192  H119  S    
C169  C170  S    
C113  C217  S    
C231  N23   T    
C157  H31   S    
O63   C173  S    
C256  H200  S    
O66   C179  S    
C107  C128  A    
C154  H23   S    
C165  H51   S    
C177  H82   S    
C144  C240  S    
C15   C135  A    
C142  C238  S    
C228  N20   T    
C57   O49   S    
C12   O84   S    
O57   C161  S    
C151  C152  S    
C227  N19   T    
C208  H159  S    
C9    O81   S    
C201  H141  S    
O27   Zn7   S    
C6    O16   A    
C59   O51   S    
C162  H44   S    
C187  H106  S    
O4    Zn4   S    
C174  H74   S    
C195  C196  S    
C246  H173  S    
C63   C99   A    
C224  N16   T    
O3    Zn3   S    
C18   C30   A    
C34   C136  A    
C196  H129  S    
C65   O57   S    
C160  H38   S    
C44   O40   A    
C19   O91   S    
C266  H225  S    
C52   O22   A    
C206  H155  S    
C37   C137  A    
C199  H137  S    
C193  C194  S    
C13   C25   A    
C61   C99   A    
C176  H80   S    
C255  C256  S    
C117  C221  S    
C194  H124  S    
C26   C43   S    
C24   C30   A    
C38   C138  A    
C155  H27   S    
C263  C264  S    
O30   Zn6   S    
C18   O90   S    
C188  H109  S    
C30   C47   S    
C215  N7    T    
C217  N9    T    
C216  N8    T    
C73   O65   S    
C257  H201  S    
C172  H70   S    
C159  H37   S    
C111  C215  S    
C244  H168  S    
O89   C257  S    
C184  H100  S    
C175  H76   S    
C133  C229  S    
C154  H24   S    
C118  C121  A    
C47   O45   A    
C261  H212  S    
C209  N1    T    
C173  H71   S    
O51   C149  S    
C81   C93   A    
C212  N4    T    
C170  H65   S    
O18   Zn2   S    
C242  H163  S    
C211  N3    T    
C112  C125  A    
C261  H211  S    
C194  H125  S    
C152  H19   S    
C110  C113  A    
C55   O31   A    
C188  H108  S    
C86   C96   A    
C39   C143  A    
C115  C219  S    
C120  C224  S    
C59   C97   A    
C168  H60   S    
C62   C100  A    
C260  H209  S    
C70   C86   A    
C59   C75   A    
O41   Zn11  S    
O26   Zn6   S    
C198  H135  S    
C166  H53   S    
C270  H233  S    
C239  N31   T    
C119  C122  A    
C169  H61   S    
C189  H112  S    
C84   O76   S    
C105  C128  A    
C193  H121  S    
C79   C91   A    
C108  C212  S    
C248  H180  S    
C147  C148  S    
C11   C131  A    
O59   C165  S    
C255  H197  S    
C271  H236  S    
C9    C129  A    
C2    O2    A    
C202  H144  S    
C184  H98   S    
O44   Zn11  S    
C3    O7    A    
O92   C263  S    
C223  N15   T    
C61   O53   S    
C190  H115  S    
C262  H214  S    
C67   O59   S    
O70   C187  S    
C52   O24   A    
C167  H57   S    
C145  C146  S    
C10   C26   A    
C252  H188  S    
O96   C271  S    
C63   O55   S    
C5    O9    A    
C259  H206  S    
C161  H42   S    
C112  C115  A    
C108  C127  A    
C263  H216  S    
C8    O12   A    
C160  H40   S    
C203  H147  S    
C258  H205  S    
C110  C125  A    
C33   C133  A    
C34   C130  A    
C202  H143  S    
O24   Zn4   S    
O15   Zn5   S    
C7    C39   S    
C241  H161  S    
C270  H234  S    
C180  H88   S    
O81   C241  S    
C145  H2    S    
C251  C252  S    
C39   C139  A    
O9    Zn5   S    
C162  H43   S    
