data_mof_unit_51575.cif
_audit_creation_date              2012-12-10T19:59:20-0500
_audit_creation_method            fapswitch 2.2
_symmetry_space_group_name_H-M    P1
_symmetry_Int_Tables_number       1
_space_group_crystal_system       triclinic
_cell_length_a                    14.99042
_cell_length_b                    14.295487
_cell_length_c                    10.676467
_cell_angle_alpha                 90.295487
_cell_angle_beta                  91.976788
_cell_angle_gamma                 90.032239
_cell_volume                      2286.52466546

loop_
_atom_site_label
_atom_site_type_symbol
_atom_type_description
_atom_site_fract_x
_atom_site_fract_y
_atom_site_fract_z
_atom_type_partial_charge
C1    C     C_R   0.328421 0.499716 0.496940 0.947465
C2    C     C_R   0.672368 0.499955 0.495729 0.948861
C3    C     C_R   0.188464 0.445188 0.574272 -0.396947
C4    C     C_R   0.811586 0.411002 0.485601 -0.352276
C5    C     C_R   0.096061 0.439786 0.567695 0.490907
C6    C     C_R   0.902496 0.404635 0.470604 0.490401
C7    C     C_R   0.049749 0.482707 0.466331 -0.107909
C8    C     C_R   0.953063 0.487372 0.467460 -0.118609
C9    C     C_R   0.463501 0.105494 0.398157 -0.290947
C10   C     C_R   0.538053 0.106069 0.600272 -0.290939
C11   C     C_R   0.460154 0.203976 0.402540 0.216213
C12   C     C_R   0.540110 0.204761 0.597323 0.201734
C13   C     C_R   0.501181 0.054147 0.498612 0.146581
C14   C     C_R   0.572542 0.895997 0.552302 0.349110
C15   C     C_R   0.429209 0.895804 0.444207 0.354303
C16   C     C_R   0.566449 0.797661 0.563212 0.100863
C17   C     C_R   0.432851 0.797064 0.438723 0.089132
C18   C     C_R   0.501316 0.947770 0.497490 -0.179184
C19   C     C_R   0.497598 0.500035 0.260188 0.878667
C20   C     C_R   0.498985 0.500351 0.739696 0.899837
C21   C     C_R   0.511651 0.582857 0.065620 0.094262
C22   C     C_R   0.513102 0.582923 0.937860 0.073089
C23   C     C_R   0.487713 0.502075 0.128004 -0.110671
C24   C     C_R   0.489524 0.502293 0.870926 -0.076283
C25   C     C_R   0.449911 0.426526 0.061271 -0.227415
C26   C     C_R   0.451153 0.426341 0.931684 -0.247665
C27   C     C_3   0.596161 0.641878 0.937518 -0.176214
C28   C     C_3   0.594378 0.641212 0.080621 -0.138882
C29   C     C_R   0.095756 0.529644 0.371694 0.444455
C30   C     C_R   0.911182 0.575580 0.467852 0.439113
C31   C     C_R   0.188181 0.538131 0.383669 -0.027754
C32   C     C_R   0.818317 0.580456 0.464640 -0.025570
C33   C     C_R   0.233241 0.497311 0.486526 -0.145825
C34   C     C_R   0.768718 0.498208 0.483264 -0.190191
H1    H     H_    0.423013 0.366861 0.108413 0.170971
H2    H     H_    0.425923 0.365896 0.880028 0.165338
H3    H     H_    0.584898 0.711404 0.893566 0.186752
H4    H     H_    0.650810 0.604377 0.129666 0.159508
H5    H     H_    0.225860 0.408773 0.647718 0.166741
H6    H     H_    0.774600 0.346569 0.496442 0.203954
H7    H     H_    0.436558 0.070214 0.315376 0.196129
H8    H     H_    0.565355 0.071157 0.682589 0.196879
N1    N     N_R   0.500000 0.252470 0.500000 -0.082046
N2    N     N_R   0.500000 0.747550 0.500000 -0.162934
O1    O     O_R   0.369060 0.579480 0.500010 -0.637018
O2    O     O_R   0.630940 0.579480 0.499990 -0.610202
O3    O     O_R   0.369050 0.420520 0.500010 -0.610764
O4    O     O_R   0.630950 0.420520 0.499990 -0.618493
O5    O     O_R   0.499990 0.579490 0.316780 -0.614074
O6    O     O_R   0.500010 0.579490 0.683220 -0.637841
O7    O     O_R   0.499980 0.420540 0.316780 -0.604676
O8    O     O_R   0.500020 0.420540 0.683220 -0.607589
Zn1   Zn    Zn3+2 0.500000 0.606140 0.500000 0.934015
Zn2   Zn    Zn3+2 0.500000 0.393860 0.500000 0.970085
O9    O     O_3   0.647527 0.940560 0.602581 -0.605267
C35   C     C_3   0.708155 0.954112 0.505946 0.098604
H9    H     H_    0.726050 0.886355 0.461196 0.130152
H10   H     H_    0.679628 0.001995 0.432995 0.148145
C36   C     C_3   0.793229 0.998121 0.561028 -0.813022
H11   H     H_    0.823674 0.951628 0.633740 0.254096
H12   H     H_    0.841686 0.008447 0.485984 0.202686
H13   H     H_    0.778011 0.067015 0.603890 0.258908
O10   O     O_3   0.354223 0.940331 0.394505 -0.597969
C37   C     C_3   0.293697 0.954771 0.491230 0.120222
H14   H     H_    0.271523 0.886824 0.530306 0.132062
H15   H     H_    0.324178 0.998424 0.568196 0.139973
C38   C     C_3   0.211894 0.005854 0.438331 -0.819958
H16   H     H_    0.179002 0.963522 0.362392 0.262323
H17   H     H_    0.163682 0.017547 0.513514 0.208834
H18   H     H_    0.231743 0.074634 0.400071 0.250251
N3    N     N_3   0.628557 0.754006 0.649358 -0.429482
H19   H     H_    0.613787 0.684391 0.662518 0.261952
H20   H     H_    0.692166 0.758514 0.614004 0.195523
N4    N     N_3   0.361212 0.750840 0.372434 -0.412863
H21   H     H_    0.385921 0.696351 0.318792 0.245893
H22   H     H_    0.316191 0.726937 0.437379 0.206952
N5    N     N_3   0.672785 0.591960 0.887865 -0.465019
H23   H     H_    0.729749 0.632297 0.907874 0.190733
H24   H     H_    0.681832 0.527970 0.933816 0.192973
N6    N     N_3   0.575926 0.732939 0.135612 -0.426968
H25   H     H_    0.632173 0.774964 0.124534 0.182176
H26   H     H_    0.522501 0.765073 0.086988 0.194945
O11   O     O_3   0.051054 0.579471 0.277863 -0.559531
C39   C     C_3   0.019014 0.518138 0.182826 0.092415
H27   H     H_    0.964504 0.473423 0.217033 0.118337
H28   H     H_    0.073577 0.473340 0.147403 0.111387
C40   C     C_3   0.980490 0.576123 0.074747 -0.830532
H29   H     H_    0.034256 0.617501 0.032175 0.247488
H30   H     H_    0.949063 0.529918 0.002043 0.199844
H31   H     H_    0.928748 0.624552 0.109265 0.264223
O12   O     O_3   0.960322 0.657451 0.462628 -0.564512
C41   C     C_3   0.986894 0.684642 0.585663 0.094577
H32   H     H_    0.030166 0.630665 0.631432 0.122103
H33   H     H_    0.927861 0.697222 0.644064 0.123405
C42   C     C_3   0.040280 0.774937 0.580075 -0.810661
H34   H     H_    0.998581 0.831048 0.536589 0.254033
H35   H     H_    0.061850 0.797135 0.676240 0.198221
H36   H     H_    0.100370 0.764022 0.523680 0.260241
N7    N     N_3   0.236810 0.584767 0.288931 -0.463414
H37   H     H_    0.225704 0.548932 0.204223 0.185933
H38   H     H_    0.210985 0.652281 0.278190 0.230414
N8    N     N_3   0.775245 0.667776 0.436643 -0.423763
H39   H     H_    0.803493 0.719492 0.494906 0.189014
H40   H     H_    0.789733 0.685496 0.344647 0.201253
O13   O     O_3   0.050624 0.385575 0.652011 -0.551055
C43   C     C_3   0.062211 0.421007 0.775088 0.102415
H41   H     H_    0.039529 0.495047 0.780548 0.113466
H42   H     H_    0.132922 0.416009 0.809221 0.130747
C44   C     C_3   0.006460 0.362244 0.861444 -0.812346
H43   H     H_    0.023598 0.287089 0.850968 0.265641
H44   H     H_    0.020160 0.383027 0.960402 0.186943
H45   H     H_    0.934339 0.372041 0.837779 0.252546
O14   O     O_3   0.941785 0.317059 0.471995 -0.547552
C45   C     C_3   0.956287 0.288352 0.347749 0.091397
H46   H     H_    0.010713 0.330156 0.307369 0.116413
H47   H     H_    0.894401 0.294643 0.287304 0.120715
C46   C     C_3   0.985112 0.186372 0.348054 -0.796880
H48   H     H_    0.931959 0.142095 0.386945 0.248977
H49   H     H_    0.997446 0.162969 0.250837 0.198655
H50   H     H_    0.047499 0.177902 0.406110 0.263734
N9    N     N_3   0.414480 0.253219 0.303899 -0.407697
H51   H     H_    0.441481 0.231449 0.219612 0.150611
H52   H     H_    0.347581 0.232371 0.302176 0.165663
N10   N     N_3   0.585016 0.255145 0.696693 -0.396854
H53   H     H_    0.555939 0.236912 0.780792 0.162095
H54   H     H_    0.651559 0.233176 0.701464 0.168592

loop_
_geom_bond_atom_site_label_1
_geom_bond_atom_site_label_2
_ccdc_geom_bond_type
C15   C18   A    
O9    C35   S    
C7    C29   A    
C10   H8    S    
C14   C18   A    
C42   H34   S    
C39   C40   S    
C40   H29   S    
C45   H46   S    
C42   H36   S    
C1    C33   S    
C7    C8    S    
C5    O13   S    
N5    H23   S    
C2    O2    A    
O4    Zn2   S    
N4    H22   S    
C13   C18   S    
C24   C26   A    
C29   O11   S    
C12   N1    A    
C46   H49   S    
N6    H25   S    
C43   H41   S    
C3    C33   A    
C35   H9    S    
C9    C13   A    
C20   O6    A    
N2    Zn1   S    
N7    H37   S    
C31   C33   A    
C11   N1    A    
C31   N7    S    
C16   N2    A    
C2    C34   S    
C14   O9    S    
O1    Zn1   S    
C36   H11   S    
C21   C22   A    
C11   N9    S    
C16   N3    S    
O8    Zn2   S    
N5    H24   S    
C4    C34   A    
C36   H12   S    
O6    Zn1   S    
N4    H21   S    
C38   H16   S    
C37   C38   S    
C4    H6    S    
C39   H27   S    
N6    H26   S    
C46   H50   S    
O12   C41   S    
C5    C7    A    
C1    O3    A    
C6    C8    A    
C2    O4    A    
C25   C26   A    
C41   C42   S    
C38   H17   S    
C37   H15   S    
C19   C23   S    
C6    O14   S    
C19   O5    A    
N1    Zn2   S    
O11   C39   S    
C12   N10   S    
C28   H4    S    
C41   H33   S    
N8    H40   S    
C9    C11   A    
N9    H51   S    
C10   C12   A    
C25   H1    S    
O3    Zn2   S    
C26   H2    S    
N7    H38   S    
C21   C28   S    
C22   C27   S    
C21   C23   A    
C17   N4    S    
C22   C24   A    
C44   H45   S    
C4    C6    A    
C3    C5    A    
N10   H54   S    
O14   C45   S    
C15   C17   A    
C36   H13   S    
C39   H28   S    
C30   O12   S    
C27   N5    S    
C10   C13   A    
C45   H47   S    
C42   H35   S    
C32   N8    S    
O13   C43   S    
C9    H7    S    
C35   C36   S    
O7    Zn2   S    
C8    C30   A    
C37   H14   S    
C38   H18   S    
C44   H44   S    
C17   N2    A    
N3    H19   S    
C20   O8    A    
C44   H43   S    
C30   C32   A    
C1    O1    A    
C43   H42   S    
C27   H3    S    
O5    Zn1   S    
O2    Zn1   S    
C41   H32   S    
C35   H10   S    
C14   C16   A    
C23   C25   A    
N8    H39   S    
C28   N6    S    
N9    H52   S    
C45   C46   S    
C3    H5    S    
O10   C37   S    
C19   O7    A    
C29   C31   A    
C40   H31   S    
N3    H20   S    
C27   C28   S    
C40   H30   S    
C15   O10   S    
C46   H48   S    
C20   C24   S    
C32   C34   A    
N10   H53   S    
C43   C44   S    
