data_mof_unit_61213.cif
_audit_creation_date              2012-12-10T19:31:31-0500
_audit_creation_method            fapswitch 2.2
_symmetry_space_group_name_H-M    P1
_symmetry_Int_Tables_number       1
_space_group_crystal_system       triclinic
_cell_length_a                    19.091158
_cell_length_b                    15.735425
_cell_length_c                    14.928646
_cell_angle_alpha                 90.092764
_cell_angle_beta                  89.603268
_cell_angle_gamma                 90.058339
_cell_volume                      4484.56133592

loop_
_atom_site_label
_atom_site_type_symbol
_atom_type_description
_atom_site_fract_x
_atom_site_fract_y
_atom_site_fract_z
_atom_type_partial_charge
C1    C     C_R   0.499909 0.337512 0.499910 0.914060
C2    C     C_3   0.528956 0.972031 0.423392 0.175454
C3    C     C_3   0.499510 0.082827 0.499726 -0.002795
C4    C     C_3   0.499859 0.917216 0.499743 0.000176
C5    C     C_1   0.499388 0.173567 0.499539 0.063078
C6    C     C_1   0.500152 0.826463 0.500139 0.050532
C7    C     C_3   0.500012 0.419541 0.969735 -0.134169
C8    C     C_3   0.500015 0.580294 0.030262 -0.138016
C9    C     C_3   0.557392 0.459803 0.029548 -0.135873
C10   C     C_3   0.442637 0.540031 0.970457 -0.133923
C11   C     C_3   0.442646 0.459660 0.030580 -0.135708
C12   C     C_R   0.500087 0.662493 0.500078 0.982531
C13   C     C_3   0.557383 0.540176 0.969420 -0.141274
C14   C     C_3   0.500023 0.499924 0.089248 0.085181
C15   C     C_3   0.500003 0.499916 0.910752 0.084171
C16   C     C_R   0.365122 0.498518 0.500415 0.947956
C17   C     C_R   0.634892 0.498466 0.499586 0.949801
C18   C     C_1   0.500026 0.499963 0.189668 0.094529
C19   C     C_1   0.499987 0.499956 0.810332 0.094720
C20   C     C_R   0.258471 0.426593 0.556315 0.139218
C21   C     C_R   0.741486 0.427096 0.442567 0.145202
C22   C     C_R   0.186678 0.413919 0.553944 -0.152851
C23   C     C_3   0.536873 0.972072 0.570308 -0.286174
C24   C     C_R   0.813252 0.414330 0.444815 -0.149324
C25   C     C_R   0.145667 0.460307 0.494881 0.023541
C26   C     C_R   0.854302 0.459816 0.504836 0.023031
C27   C     C_R   0.175832 0.521099 0.438491 -0.179128
C28   C     C_R   0.824199 0.519718 0.562432 -0.179776
C29   C     C_R   0.247518 0.538235 0.442503 -0.076267
C30   C     C_R   0.752561 0.536982 0.558648 -0.072839
C31   C     C_R   0.289392 0.489493 0.501200 -0.167107
C32   C     C_R   0.710626 0.489262 0.498817 -0.168312
C33   C     C_R   0.929598 0.450043 0.502437 0.305442
C34   C     C_3   0.462491 0.027993 0.429163 -0.281697
C35   C     C_R   0.070364 0.450373 0.497065 0.304569
C36   C     C_2   0.276019 0.609797 0.388253 0.947431
C37   C     C_2   0.724196 0.607621 0.614472 0.942270
C38   C     C_3   0.565758 0.028283 0.493535 0.179495
C39   C     C_3   0.433603 0.971759 0.505918 0.173782
C40   C     C_1   0.499579 0.248751 0.499681 -0.106539
C41   C     C_1   0.500181 0.751271 0.500213 -0.121288
C42   C     C_3   0.470395 0.028020 0.576073 0.176446
H1    H     H_    0.604844 0.573480 0.944197 0.161619
H2    H     H_    0.395164 0.573211 0.946102 0.157676
H3    H     H_    0.500003 0.353046 0.944775 0.160780
H4    H     H_    0.500015 0.646791 0.055214 0.159151
H5    H     H_    0.345916 0.705742 0.377566 0.356779
H6    H     H_    0.654597 0.703517 0.627214 0.348253
H7    H     H_    0.395182 0.426355 0.055790 0.156204
H8    H     H_    0.162870 0.366512 0.597076 0.176054
H9    H     H_    0.837016 0.367555 0.400789 0.176543
H10   H     H_    0.142649 0.558427 0.394970 0.188494
H11   H     H_    0.857413 0.556340 0.606776 0.188059
H12   H     H_    0.567231 0.947371 0.627846 0.194675
H13   H     H_    0.432140 0.052701 0.371625 0.196159
H14   H     H_    0.604856 0.426618 0.053929 0.161639
I1    I     I_    0.315591 0.342619 0.640488 -0.281475
I2    I     I_    0.684379 0.344231 0.356746 -0.283664
I3    I     I_    0.670497 0.076161 0.485883 -0.230832
I4    I     I_    0.328893 0.923758 0.513143 -0.236416
I5    I     I_    0.573654 0.924824 0.301421 -0.252820
I6    I     I_    0.425496 0.075534 0.697812 -0.237077
N1    N     N_R   0.033375 0.450534 0.420003 -0.148593
N2    N     N_R   0.966587 0.449042 0.579489 -0.147526
N3    N     N_R   0.963890 0.449800 0.422676 -0.149930
N4    N     N_R   0.036072 0.448621 0.576803 -0.149316
N5    N     N_1   0.500020 0.500000 0.268010 -0.077063
N6    N     N_1   0.499980 0.500000 0.731990 -0.076982
O1    O     O_R   0.500000 0.376780 0.574460 -0.598538
O2    O     O_R   0.331778 0.658633 0.420297 -0.802079
O3    O     O_2   0.750768 0.624065 0.686803 -0.607432
O4    O     O_R   0.668781 0.657311 0.583309 -0.808276
O5    O     O_R   0.500000 0.623220 0.425540 -0.597879
O6    O     O_R   0.500010 0.376780 0.425520 -0.605881
O7    O     O_R   0.499990 0.623220 0.574480 -0.604009
O8    O     O_R   0.398130 0.499990 0.574490 -0.591236
O9    O     O_R   0.601870 0.500010 0.425510 -0.591890
O10   O     O_R   0.398140 0.499990 0.425550 -0.607803
O11   O     O_R   0.601860 0.500010 0.574450 -0.605360
O12   O     O_2   0.249250 0.627763 0.316526 -0.603240
Zn1   Zn    Zn3+2 0.499990 0.500000 0.599450 1.037577
Zn2   Zn    Zn3+2 0.500010 0.500000 0.400550 1.036098

loop_
_geom_bond_atom_site_label_1
_geom_bond_atom_site_label_2
_ccdc_geom_bond_type
N1    N3    A    
C3    C42   S    
C8    C13   S    
C27   C29   A    
C14   C18   S    
C33   N3    A    
C16   C31   S    
C7    C11   S    
C29   C36   S    
C23   C42   S    
N6    Zn1   S    
C7    H3    S    
O6    Zn2   S    
C10   C15   S    
C11   C14   S    
C17   O11   A    
C2    C38   S    
C9    C13   S    
C1    C40   S    
C15   C19   S    
C3    C38   S    
C6    C41   T    
C42   I6    S    
C2    I5    S    
C22   H8    S    
C2    C34   S    
C24   H9    S    
C7    C15   S    
C34   H13   S    
C12   O5    A    
H6    O4    S    
C36   O2    S    
C39   C42   S    
C21   C32   A    
C10   H2    S    
C34   C39   S    
C4    C6    S    
C36   O12   D    
O11   Zn1   S    
C4    C23   S    
O7    Zn1   S    
C3    C34   S    
C18   N5    T    
C22   C25   A    
C1    O1    A    
C30   C37   S    
N2    N4    A    
C2    C4    S    
C9    C14   S    
H5    O2    S    
C12   C41   S    
C11   H7    S    
O10   Zn2   S    
C26   C33   S    
C4    C39   S    
C17   O9    A    
C19   N6    T    
C9    H14   S    
C25   C35   S    
C20   C22   A    
C37   O3    D    
C37   O4    S    
C1    O6    A    
O5    Zn2   S    
C13   H1    S    
C27   H10   S    
C23   H12   S    
C7    C9    S    
C8    C14   S    
C16   O8    A    
C24   C26   A    
C3    C5    S    
O8    Zn1   S    
C28   H11   S    
C25   C27   A    
C23   C38   S    
C26   C28   A    
C35   N4    A    
C13   C15   S    
C21   I2    S    
C29   C31   A    
C30   C32   A    
O9    Zn2   S    
C33   N2    A    
C39   I4    S    
C28   C30   A    
C16   O10   A    
C8    H4    S    
O1    Zn1   S    
C10   C11   S    
C12   O7    A    
C38   I3    S    
N5    Zn2   S    
C8    C10   S    
C21   C24   A    
C17   C32   S    
C35   N1    A    
C20   I1    S    
C5    C40   T    
C20   C31   A    
