data_mof_unit_17801.cif
_audit_creation_date              2012-12-10T19:05:51-0500
_audit_creation_method            fapswitch 2.2
_symmetry_space_group_name_H-M    P1
_symmetry_Int_Tables_number       1
_space_group_crystal_system       triclinic
_cell_length_a                    19.321929
_cell_length_b                    10.836704
_cell_length_c                    9.542471
_cell_angle_alpha                 90.118567
_cell_angle_beta                  89.983496
_cell_angle_gamma                 90.528146
_cell_volume                      1997.97083735

loop_
_atom_site_label
_atom_site_type_symbol
_atom_type_description
_atom_site_fract_x
_atom_site_fract_y
_atom_site_fract_z
_atom_type_partial_charge
C1    C     C_R   0.499524 0.262344 0.499678 0.821255
C2    C     C_R   0.291204 0.505095 0.498499 -0.179945
C3    C     C_R   0.929901 0.514505 0.501814 0.425277
C4    C     C_R   0.069951 0.523030 0.501070 0.437354
C5    C     C_R   0.816131 0.564569 0.608873 -0.156979
C6    C     C_R   0.744219 0.560051 0.607352 -0.283686
C7    C     C_R   0.708682 0.498667 0.499231 -0.117886
C8    C     C_R   0.745809 0.440026 0.390544 0.486085
C9    C     C_R   0.818939 0.445343 0.394070 -0.261552
C10   C     C_R   0.853909 0.508396 0.501649 0.005613
C11   C     C_R   0.472349 0.063289 0.614101 0.066754
C12   C     C_R   0.367447 0.500338 0.499796 0.854880
C13   C     C_R   0.495010 0.129095 0.497055 -0.082847
C14   C     C_R   0.509728 0.064056 0.373144 -0.221962
C15   C     C_R   0.509628 0.935534 0.373264 -0.196142
C16   C     C_R   0.495478 0.870710 0.497674 -0.154059
C17   C     C_R   0.472850 0.936288 0.614781 0.139040
C18   C     C_3   0.494493 0.930941 0.764972 0.332886
C19   C     C_3   0.493218 0.071825 0.764208 -0.541661
C20   C     C_R   0.535734 0.588441 0.073745 0.119655
C21   C     C_R   0.458615 0.420108 0.075330 0.551017
C22   C     C_R   0.458572 0.421530 0.924881 -0.186447
C23   C     C_R   0.499770 0.737632 0.499913 0.820554
C24   C     C_R   0.535950 0.588091 0.926641 0.211173
C25   C     C_3   0.611876 0.613298 0.921263 -0.571144
C26   C     C_3   0.611444 0.614348 0.080761 0.283981
C27   C     C_R   0.632554 0.498689 0.499795 0.823313
C28   C     C_R   0.251579 0.434299 0.593744 -0.082573
C29   C     C_R   0.179680 0.443665 0.594330 -0.191758
C30   C     C_R   0.145949 0.521863 0.500679 -0.063913
C31   C     C_R   0.184861 0.593234 0.405128 -0.108248
C32   C     C_R   0.257426 0.582081 0.400879 0.428990
Cu1   Cu    Cu3+1 0.500000 0.499980 0.640670 0.970855
Cu2   Cu    Cu3+1 0.500000 0.500020 0.359330 1.026264
H1    H     H_    0.524350 0.887616 0.278327 0.194516
H2    H     H_    0.546671 0.889316 0.777961 0.072459
H3    H     H_    0.451336 0.112243 0.828721 0.215121
H4    H     H_    0.545218 0.114725 0.778781 0.169824
H5    H     H_    0.425744 0.359051 0.866475 0.175743
H6    H     H_    0.641427 0.534455 0.877964 0.177854
H7    H     H_    0.623969 0.704430 0.873401 0.202967
H8    H     H_    0.640206 0.537464 0.130009 0.144228
H9    H     H_    0.149509 0.387156 0.666007 0.168773
H10   H     H_    0.842190 0.613830 0.692792 0.161414
H11   H     H_    0.716232 0.606901 0.689672 0.161517
H12   H     H_    0.849252 0.397858 0.315852 0.156643
H13   H     H_    0.525031 0.111871 0.278460 0.169345
N1    N     N_R   0.034362 0.511682 0.379218 -0.221577
N2    N     N_R   0.965579 0.507297 0.379614 -0.234944
N3    N     N_R   0.965556 0.526158 0.623768 -0.234677
N4    N     N_R   0.034427 0.529488 0.623492 -0.223016
N5    N     N_R   0.500440 0.500930 0.147930 -0.252870
N6    N     N_R   0.500440 0.500890 0.852020 -0.197254
O1    O     O_R   0.500000 0.319640 0.618810 -0.588164
O2    O     O_R   0.500010 0.319680 0.381230 -0.545216
O3    O     O_R   0.400140 0.499970 0.618830 -0.578238
O4    O     O_R   0.400150 0.500010 0.381250 -0.517132
O5    O     O_R   0.499990 0.680320 0.618770 -0.568313
O6    O     O_R   0.500000 0.680360 0.381190 -0.563841
O7    O     O_R   0.599850 0.499990 0.618750 -0.594034
O8    O     O_R   0.599860 0.500030 0.381170 -0.551055
C33   C     C_1   0.282784 0.344921 0.685683 0.276185
N7    N     N_1   0.307344 0.272472 0.758846 -0.311781
O9    O     O_3   0.441455 0.877251 0.847233 -0.537271
C34   C     C_3   0.461597 0.878163 0.989262 -0.275391
H14   H     H_    0.459038 0.972750 0.033228 0.149595
H15   H     H_    0.514381 0.840766 0.004727 0.176300
H16   H     H_    0.425054 0.819194 0.049465 0.192356
O10   O     O_3   0.414184 0.344512 0.151517 -0.553210
C35   C     C_3   0.413643 0.222710 0.099473 -0.350986
H17   H     H_    0.395272 0.160289 0.183902 0.208550
H18   H     H_    0.466224 0.191669 0.068148 0.132397
H19   H     H_    0.376555 0.213445 0.011271 0.188416
O11   O     O_3   0.624085 0.732835 0.137530 -0.573151
C36   C     C_3   0.695326 0.746487 0.165588 -0.313769
H20   H     H_    0.727034 0.730541 0.069914 0.160448
H21   H     H_    0.711540 0.683480 0.251121 0.167821
H22   H     H_    0.705345 0.842452 0.201363 0.192419
C37   C     C_1   0.151341 0.683078 0.316686 0.314892
N8    N     N_1   0.124551 0.754985 0.246038 -0.252607
O12   O     O_3   0.296260 0.654640 0.310153 -0.579593
C38   C     C_3   0.295059 0.600408 0.175348 -0.224494
H23   H     H_    0.303996 0.499025 0.178098 0.186778
H24   H     H_    0.337268 0.642203 0.111935 0.182515
H25   H     H_    0.245494 0.619473 0.121121 0.161095
O13   O     O_3   0.708658 0.369933 0.292733 -0.580739
C39   C     C_3   0.741964 0.361745 0.161354 -0.361884
H26   H     H_    0.763931 0.452159 0.127004 0.150828
H27   H     H_    0.703032 0.333220 0.081924 0.184813
H28   H     H_    0.782227 0.289285 0.163356 0.185253

loop_
_geom_bond_atom_site_label_1
_geom_bond_atom_site_label_2
_ccdc_geom_bond_type
C23   O5    A    
C39   H26   S    
Cu1   O5    S    
C6    H11   S    
C36   H20   S    
C2    C12   S    
O12   C38   S    
C3    N2    A    
C7    C8    A    
C23   O6    A    
C32   O12   S    
C11   C19   S    
C33   N7    T    
C28   C29   A    
C27   O7    A    
C25   H6    S    
C5    C6    A    
C15   C16   A    
C7    C27   S    
C2    C32   A    
C18   C19   S    
C27   O8    A    
C14   H13   S    
C20   C24   A    
C8    C9    A    
C34   H15   S    
Cu2   O4    S    
C35   H17   S    
C19   H3    S    
C9    C10   A    
Cu1   O3    S    
Cu2   O2    S    
C21   C22   A    
C29   H9    S    
C15   H1    S    
C25   C26   S    
C3    N3    A    
N3    N4    A    
C22   N6    A    
Cu1   N6    S    
O11   C36   S    
C4    N4    A    
C24   C25   S    
C25   H7    S    
O13   C39   S    
C16   C17   A    
C24   N6    A    
Cu2   O8    S    
C21   O10   S    
C1    O1    A    
C29   C30   A    
C19   H4    S    
C31   C32   A    
C34   H16   S    
C35   H19   S    
C17   C18   S    
C36   H21   S    
C12   O3    A    
C12   O4    A    
N1    N2    A    
C5    H10   S    
C34   H14   S    
C16   C23   S    
C38   H24   S    
C39   H27   S    
Cu2   O6    S    
C1    C13   S    
C26   H8    S    
C4    N1    A    
Cu1   O1    S    
C11   C17   A    
C35   H18   S    
C31   C37   S    
C6    C7    A    
Cu1   O7    S    
C38   H25   S    
Cu2   N5    S    
O9    C34   S    
C1    O2    A    
C5    C10   A    
C20   N5    A    
C3    C10   S    
C11   C13   A    
C18   O9    S    
C30   C31   A    
C20   C26   S    
C22   H5    S    
C26   O11   S    
Cu1   Cu2   S    
C8    O13   S    
O10   C35   S    
C36   H22   S    
C37   N8    T    
C9    H12   S    
C38   H23   S    
C39   H28   S    
C14   C15   A    
C2    C28   A    
C13   C14   A    
C18   H2    S    
C21   N5    A    
C4    C30   S    
C28   C33   S    
