data_mof_unit_50141.cif
_audit_creation_date              2012-12-10T16:40:42-0500
_audit_creation_method            fapswitch 2.2
_symmetry_space_group_name_H-M    P1
_symmetry_Int_Tables_number       1
_space_group_crystal_system       triclinic
_cell_length_a                    10.788066
_cell_length_b                    10.855311
_cell_length_c                    19.513721
_cell_angle_alpha                 96.880627
_cell_angle_beta                  92.735149
_cell_angle_gamma                 98.363539
_cell_volume                      2239.68077612

loop_
_atom_site_label
_atom_site_type_symbol
_atom_type_description
_atom_site_fract_x
_atom_site_fract_y
_atom_site_fract_z
_atom_type_partial_charge
C1    C     C_R   0.475921 0.163072 0.485269 0.499676
C2    C     C_2   0.512494 0.474688 0.014149 -0.135935
C3    C     C_2   0.497379 0.575443 0.982015 -0.009304
C4    C     C_R   0.523703 0.838895 0.514893 0.503154
C5    C     C_R   0.492198 0.516580 0.762843 0.056739
C6    C     C_2   0.532585 0.974081 0.517364 -0.110139
C7    C     C_2   0.457572 0.029082 0.476802 0.001973
C8    C     C_2   0.973860 0.530774 0.528862 -0.023753
C9    C     C_2   0.030558 0.468351 0.478980 -0.104920
C10   C     C_R   0.164137 0.471252 0.482830 0.484179
C11   C     C_R   0.837289 0.525318 0.517460 0.508988
C12   C     C_R   0.507740 0.471766 0.088784 -0.000040
C13   C     C_R   0.489606 0.511960 0.688057 0.493736
C14   C     C_R   0.511309 0.486216 0.310787 0.490087
C15   C     C_R   0.508432 0.478111 0.233592 0.033968
C16   C     C_R   0.410550 0.525061 0.195945 -0.023418
C17   C     C_R   0.409498 0.513154 0.123628 -0.108380
C18   C     C_3   0.309495 0.590126 0.232000 -0.236548
C19   C     C_3   0.211277 0.636750 0.185529 -0.327967
C20   C     C_3   0.124413 0.709106 0.228585 -0.463295
C21   C     C_3   0.345706 0.964883 0.428236 -0.221959
C22   C     C_3   0.233157 0.916420 0.468395 -0.270422
C23   C     C_R   0.599995 0.422987 0.123799 -0.116408
C24   C     C_3   0.128462 0.837291 0.419951 -0.449057
C25   C     C_3   0.052134 0.601311 0.593565 -0.254575
C26   C     C_3   0.981487 0.663879 0.651249 -0.286436
C27   C     C_3   0.069641 0.717213 0.714758 -0.476168
C28   C     C_3   0.727737 0.493192 0.771319 -0.256343
C29   C     C_3   0.769026 0.371422 0.790251 -0.311361
C30   C     C_3   0.890538 0.348611 0.757187 -0.455641
C31   C     C_3   0.486536 0.705028 0.018684 -0.244309
C32   C     C_3   0.582362 0.807297 0.994643 -0.293416
C33   C     C_3   0.575103 0.936103 0.033981 -0.461680
C34   C     C_R   0.601330 0.422256 0.195434 -0.014245
C35   C     C_3   0.705334 0.361636 0.226807 -0.233309
C36   C     C_3   0.815080 0.459699 0.260326 -0.279574
C37   C     C_3   0.923574 0.396060 0.284490 -0.452878
C38   C     C_R   0.605381 0.538397 0.874739 -0.114475
C39   C     C_R   0.605594 0.516170 0.802758 -0.001711
C40   C     C_R   0.381599 0.532926 0.795317 -0.141905
C41   C     C_R   0.383260 0.554142 0.867030 -0.129529
C42   C     C_R   0.495294 0.557607 0.906543 0.028424
H1    H     H_    0.979541 0.419873 0.431998 0.103438
H2    H     H_    0.357906 0.674821 0.265806 0.176646
H3    H     H_    0.297575 0.567683 0.891735 0.104054
H4    H     H_    0.604523 0.031922 0.553103 0.085166
H5    H     H_    0.094581 0.893945 0.381210 0.138007
H6    H     H_    0.162896 0.754318 0.392716 0.179191
H7    H     H_    0.048714 0.803792 0.450349 0.144815
H8    H     H_    0.261275 0.858865 0.508101 0.180000
H9    H     H_    0.196006 0.997755 0.495781 0.165347
H10   H     H_    0.314379 0.033805 0.395843 0.114432
H11   H     H_    0.372772 0.890671 0.390183 0.166386
H12   H     H_    0.529995 0.388970 0.983636 0.111302
H13   H     H_    0.109988 0.640746 0.736635 0.141957
H14   H     H_    0.146953 0.787315 0.700891 0.155555
H15   H     H_    0.016474 0.763952 0.754928 0.141679
H16   H     H_    0.939708 0.742547 0.632639 0.194342
H17   H     H_    0.906649 0.593676 0.667244 0.177992
H18   H     H_    0.103182 0.533086 0.616983 0.165804
H19   H     H_    0.123269 0.674701 0.576874 0.136419
H20   H     H_    0.877062 0.339800 0.699907 0.153141
H21   H     H_    0.967196 0.427330 0.775439 0.148949
H22   H     H_    0.918514 0.260308 0.771795 0.146254
H23   H     H_    0.334846 0.540510 0.092789 0.109997
H24   H     H_    0.784800 0.376250 0.847246 0.154577
H25   H     H_    0.694263 0.290851 0.771848 0.167639
H26   H     H_    0.720099 0.485723 0.714224 0.163917
H27   H     H_    0.801808 0.574166 0.790187 0.136287
H28   H     H_    0.294886 0.533126 0.764979 0.105553
H29   H     H_    0.479814 0.961256 0.025627 0.151317
H30   H     H_    0.596741 0.936269 0.090231 0.148499
H31   H     H_    0.644552 0.008080 0.015070 0.137949
H32   H     H_    0.678768 0.784795 0.003274 0.159527
H33   H     H_    0.564086 0.811626 0.938496 0.171381
H34   H     H_    0.076721 0.650065 0.264977 0.151827
H35   H     H_    0.390011 0.725127 0.007518 0.126531
H36   H     H_    0.503240 0.710671 0.075487 0.155997
H37   H     H_    0.672908 0.386609 0.094664 0.098479
H38   H     H_    0.691293 0.541173 0.906452 0.102070
H39   H     H_    0.890379 0.326127 0.319290 0.160076
H40   H     H_    0.964076 0.347845 0.239337 0.142631
H41   H     H_    0.998350 0.467184 0.313046 0.135343
H42   H     H_    0.848985 0.522856 0.222078 0.149781
H43   H     H_    0.784904 0.518234 0.305213 0.186450
H44   H     H_    0.668742 0.295672 0.262820 0.176700
H45   H     H_    0.178841 0.795135 0.258466 0.145704
H46   H     H_    0.743225 0.300043 0.185709 0.116474
H47   H     H_    0.051906 0.737279 0.193873 0.140860
H48   H     H_    0.258986 0.701459 0.151562 0.153472
H49   H     H_    0.153458 0.555376 0.153182 0.157137
H50   H     H_    0.257521 0.524112 0.263834 0.167680
O1    O     O_3   0.500000 0.500000 0.500000 -0.424428
O2    O     O_R   0.410860 0.431690 0.648970 -0.543928
O3    O     O_R   0.578570 0.421470 0.344370 -0.552152
O4    O     O_R   0.567340 0.590030 0.662290 -0.557357
O5    O     O_R   0.443230 0.556810 0.344370 -0.568959
O6    O     O_R   0.229880 0.548640 0.449830 -0.557341
O7    O     O_R   0.775840 0.445670 0.468570 -0.549706
O8    O     O_R   0.404020 0.217050 0.524780 -0.542744
O9    O     O_R   0.590260 0.788640 0.556820 -0.536958
O10   O     O_R   0.555650 0.222860 0.449830 -0.545824
O11   O     O_R   0.450070 0.771450 0.468560 -0.551381
O12   O     O_R   0.213590 0.407490 0.524780 -0.539661
O13   O     O_R   0.780700 0.598200 0.556830 -0.558268
Zn1   Zn    Zn3+2 0.407400 0.592620 0.441700 0.891492
Zn2   Zn    Zn3+2 0.384130 0.390950 0.548790 0.919748
Zn3   Zn    Zn3+2 0.607710 0.617180 0.567810 0.910933
Zn4   Zn    Zn3+2 0.600760 0.399250 0.441700 0.909982

loop_
_geom_bond_atom_site_label_1
_geom_bond_atom_site_label_2
_ccdc_geom_bond_type
C20   H45   S    
C3    C42   S    
C30   H22   S    
C41   C42   A    
C19   C20   S    
C2    C12   S    
C32   H33   S    
C12   C23   A    
C26   C27   S    
C40   H28   S    
C31   H36   S    
C28   C29   S    
C28   H26   S    
C38   C42   A    
O1    Zn3   S    
C32   H32   S    
C38   C39   A    
C35   H44   S    
C27   H13   S    
C15   C16   A    
O7    Zn4   S    
C4    O11   A    
C20   H34   S    
C11   O7    A    
C34   C35   S    
C10   O6    A    
C33   H30   S    
C29   H25   S    
C28   H27   S    
C8    C9    D    
C12   C17   A    
C11   O13   A    
C25   H18   S    
C9    C10   S    
C15   C34   A    
C5    C13   S    
C22   H8    S    
O9    Zn3   S    
O4    Zn3   S    
C21   C22   S    
C8    C25   S    
C37   H39   S    
C1    O8    A    
C31   H35   S    
O13   Zn3   S    
O2    Zn2   S    
C9    H1    S    
C13   O4    A    
C24   H6    S    
C4    C6    S    
C2    H12   S    
C27   H14   S    
C18   C19   S    
C28   C39   S    
C25   C26   S    
C7    C21   S    
C35   C36   S    
C29   C30   S    
C18   H2    S    
O1    Zn1   S    
C35   H46   S    
C31   C32   S    
C23   C34   A    
C4    O9    A    
C25   H19   S    
C3    C31   S    
C26   H16   S    
O5    Zn1   S    
C33   H31   S    
C40   C41   A    
C5    C39   A    
C27   H15   S    
C22   C24   S    
C37   H40   S    
C14   O3    A    
C14   O5    A    
C26   H17   S    
C24   H7    S    
C36   C37   S    
O8    Zn2   S    
C6    H4    S    
C1    C7    S    
C24   H5    S    
C6    C7    D    
C36   H43   S    
C20   H47   S    
C17   H23   S    
O6    Zn1   S    
C13   O2    A    
C18   H50   S    
C32   C33   S    
C30   H20   S    
C2    C3    D    
C19   H48   S    
O1    Zn2   S    
C21   H11   S    
C16   C17   A    
C38   H38   S    
C36   H42   S    
C8    C11   S    
C10   O12   A    
O11   Zn1   S    
C21   H10   S    
C19   H49   S    
C33   H29   S    
C29   H24   S    
C16   C18   S    
C5    C40   A    
C41   H3    S    
C14   C15   S    
C37   H41   S    
O10   Zn4   S    
O3    Zn4   S    
C23   H37   S    
C30   H21   S    
C1    O10   A    
O12   Zn2   S    
O1    Zn4   S    
C22   H9    S    
