data_mof_unit_39669.cif
_audit_creation_date              2012-12-11T16:45:52-0500
_audit_creation_method            fapswitch 2.2
_symmetry_space_group_name_H-M    P1
_symmetry_Int_Tables_number       1
_space_group_crystal_system       triclinic
_cell_length_a                    19.968461
_cell_length_b                    17.120287
_cell_length_c                    15.414317
_cell_angle_alpha                 90.000739
_cell_angle_beta                  52.7281
_cell_angle_gamma                 90.001324
_cell_volume                      4193.41459887

loop_
_atom_site_label
_atom_site_type_symbol
_atom_type_description
_atom_site_fract_x
_atom_site_fract_y
_atom_site_fract_z
_atom_type_partial_charge
C1    C     C_R   0.851036 0.682894 0.025792 0.195979
C2    C     C_R   0.200648 0.339721 0.994612 0.148180
C3    C     C_3   0.677031 0.057999 0.394329 -0.966307
C4    C     C_3   0.656776 0.624506 0.554735 -0.397069
C5    C     C_3   0.686275 0.585302 0.447713 -0.904035
C6    C     C_3   0.339623 0.497745 0.384579 -0.413848
C7    C     C_3   0.299780 0.446557 0.485444 -0.921663
C8    C     C_3   0.160376 0.997746 0.615420 -0.413845
C9    C     C_3   0.200220 0.946557 0.514555 -0.921659
C10   C     C_3   0.843233 0.124516 0.445272 -0.397081
C11   C     C_3   0.813733 0.085311 0.552294 -0.903994
C12   C     C_R   0.299311 0.839752 0.005452 0.148163
C13   C     C_R   0.646207 0.808896 0.072653 0.169582
C14   C     C_R   0.862985 0.675245 0.316557 0.061687
C15   C     C_R   0.192771 0.635926 0.676174 0.068733
C16   C     C_R   0.307233 0.135930 0.323826 0.068682
C17   C     C_R   0.637020 0.175246 0.683445 0.061700
C18   C     C_R   0.791639 0.693733 0.510566 0.102149
C19   C     C_R   0.301233 0.635444 0.469881 0.101187
C20   C     C_R   0.198768 0.135445 0.530118 0.101195
C21   C     C_R   0.120268 0.694948 0.013471 0.157190
C22   C     C_R   0.708369 0.193732 0.489436 0.102135
C23   C     C_R   0.829340 0.726212 0.407645 0.019722
C24   C     C_R   0.269607 0.664729 0.574015 0.003524
C25   C     C_R   0.230397 0.164731 0.425984 0.003529
C26   C     C_R   0.670667 0.226213 0.592356 0.019720
C27   C     C_R   0.194128 0.234825 0.423477 -0.168413
C28   C     C_R   0.658346 0.307461 0.606627 -0.201500
C29   C     C_R   0.841657 0.807462 0.393375 -0.201519
C30   C     C_R   0.305876 0.734826 0.576521 -0.168408
C31   C     C_R   0.145033 0.281564 0.516661 -0.219155
C32   C     C_R   0.379699 0.194936 0.986559 0.157114
C33   C     C_R   0.694120 0.355718 0.515883 -0.205720
C34   C     C_R   0.805880 0.855720 0.484118 -0.205709
C35   C     C_R   0.354968 0.781566 0.483337 -0.219164
C36   C     C_R   0.128847 0.257864 0.615168 0.063815
C37   C     C_R   0.741632 0.322310 0.411825 0.062313
C38   C     C_R   0.758369 0.822312 0.588176 0.062314
C39   C     C_R   0.371153 0.757865 0.384831 0.063807
C40   C     C_R   0.759163 0.741318 0.598795 0.095100
C41   C     C_R   0.352523 0.680647 0.378993 0.111111
C42   C     C_R   0.147477 0.180647 0.621006 0.111117
C43   C     C_R   0.648968 0.182896 0.974225 0.196026
C44   C     C_R   0.740844 0.241316 0.401207 0.095109
C45   C     C_3   0.688106 0.686491 0.674319 -0.658907
C46   C     C_3   0.348228 0.629546 0.304944 -0.688098
C47   C     C_3   0.151772 0.129547 0.695055 -0.688104
C48   C     C_3   0.811905 0.186494 0.325684 -0.658892
C49   C     C_R   0.846601 0.336839 0.214418 -0.126998
C50   C     C_R   0.099513 0.301746 0.792854 -0.133102
C51   C     C_R   0.400487 0.801745 0.207145 -0.133110
C52   C     C_R   0.653398 0.836840 0.785582 -0.126992
C53   C     C_3   0.723138 0.632697 0.576887 0.402867
C54   C     C_R   0.806838 0.365616 0.317843 0.069034
C55   C     C_3   0.291985 0.575389 0.404003 0.412312
C56   C     C_3   0.208016 0.075392 0.595996 0.412307
C57   C     C_3   0.776873 0.132700 0.423116 0.402867
C58   C     C_2   0.767606 0.195611 0.988604 -0.188418
C59   C     C_2   0.301140 0.234361 0.915329 -0.179799
C60   C     C_2   0.198796 0.734399 0.084750 -0.179778
C61   C     C_2   0.732462 0.695666 0.011307 -0.188336
C62   C     C_2   0.236926 0.793217 0.013427 -0.202632
C63   C     C_2   0.686360 0.748158 0.091101 -0.235741
C64   C     C_2   0.813661 0.248149 0.908858 -0.235823
C65   C     C_R   0.108770 0.315370 0.697780 0.090514
C66   C     C_2   0.262992 0.293159 0.986682 -0.202624
C67   C     C_R   0.868822 0.386399 0.893869 -0.150985
C68   C     C_R   0.163439 0.405421 0.060025 -0.155580
C69   C     C_R   0.336537 0.905440 0.940017 -0.155570
C70   C     C_R   0.631182 0.886402 0.106125 -0.150935
C71   C     C_R   0.893787 0.602318 0.310258 -0.135783
C72   C     C_R   0.141947 0.576990 0.686058 -0.147035
C73   C     C_R   0.358053 0.076992 0.313942 -0.147046
C74   C     C_R   0.606217 0.102318 0.689741 -0.135775
C75   C     C_R   0.881018 0.298022 0.988652 -0.144782
C76   C     C_R   0.391229 0.815370 0.302220 0.090512
C77   C     C_R   0.153952 0.315606 0.961221 -0.121220
C78   C     C_R   0.346023 0.815624 0.038815 -0.121206
C79   C     C_R   0.618987 0.798025 0.011338 -0.144866
C80   C     C_R   0.882286 0.693174 0.216442 -0.133479
C81   C     C_R   0.150803 0.669277 0.779615 -0.127534
C82   C     C_R   0.349203 0.169282 0.220385 -0.127421
C83   C     C_R   0.617718 0.193175 0.783562 -0.133554
C84   C     C_R   0.858993 0.421061 0.314681 -0.151118
C85   C     C_R   0.091057 0.393434 0.697983 -0.165896
C86   C     C_R   0.408943 0.893435 0.302017 -0.165902
C87   C     C_R   0.693161 0.865617 0.682157 0.069031
C88   C     C_R   0.641007 0.921061 0.685319 -0.151118
C89   C     C_R   0.836551 0.586057 0.939232 -0.176942
C90   C     C_R   0.135682 0.601924 0.101770 -0.203226
C91   C     C_R   0.364291 0.101905 0.898260 -0.203241
C92   C     C_R   0.663464 0.086038 0.060742 -0.176884
C93   C     C_R   0.800563 0.654652 0.998794 0.064914
C94   C     C_R   0.152165 0.679323 0.069677 0.115215
C95   C     C_R   0.347781 0.179294 0.930383 0.115304
C96   C     C_R   0.699459 0.154631 0.001182 0.064821
C97   C     C_3   0.944215 0.794927 0.956636 -0.945941
C98   C     C_R   0.853805 0.308889 0.927329 0.169536
C99   C     C_3   0.043755 0.817305 0.107524 -0.915790
C100  C     C_3   0.456205 0.317281 0.892462 -0.915800
C101  C     C_3   0.555696 0.294852 0.043235 -0.946565
C102  C     C_3   0.751663 0.553571 0.594432 -0.322554
C103  C     C_3   0.822989 0.558005 0.605663 -0.966298
C104  C     C_3   0.205252 0.564487 0.425688 -0.330764
C105  C     C_3   0.148972 0.637381 0.467529 -0.930518
C106  C     C_3   0.294748 0.064493 0.574313 -0.330767
C107  C     C_3   0.351029 0.137389 0.532472 -0.930505
C108  C     C_3   0.748352 0.053571 0.405570 -0.322558
H1    H     H_    0.127588 0.338966 0.507389 0.118997
H2    H     H_    0.411236 0.605912 0.238185 0.186901
H3    H     H_    0.260876 0.923217 0.490341 0.256859
H4    H     H_    0.158431 0.896006 0.533842 0.265392
H5    H     H_    0.156084 0.963541 0.679964 0.196097
H6    H     H_    0.094831 0.010510 0.645629 0.202263
H7    H     H_    0.785351 0.128929 0.618796 0.265124
H8    H     H_    0.768716 0.037423 0.575932 0.254019
H9    H     H_    0.868993 0.060402 0.543287 0.253577
H10   H     H_    0.897092 0.090158 0.377156 0.190632
H11   H     H_    0.868504 0.182979 0.443377 0.197077
H12   H     H_    0.088764 0.105911 0.761814 0.186903
H13   H     H_    0.874641 0.212010 0.291652 0.190435
H14   H     H_    0.771991 0.188838 0.055049 0.131078
H15   H     H_    0.291161 0.222453 0.854764 0.126379
H16   H     H_    0.208805 0.722465 0.145281 0.126377
H17   H     H_    0.728141 0.688950 0.944799 0.131062
H18   H     H_    0.230311 0.802891 0.949595 0.130394
H19   H     H_    0.689230 0.753291 0.159004 0.127128
H20   H     H_    0.810712 0.253341 0.841026 0.127215
H21   H     H_    0.690695 0.418281 0.526447 0.131515
H22   H     H_    0.269573 0.302803 0.050550 0.130353
H23   H     H_    0.823323 0.292279 0.189600 0.112352
H24   H     H_    0.092326 0.246170 0.830093 0.099361
H25   H     H_    0.407673 0.746169 0.169906 0.099363
H26   H     H_    0.676677 0.792283 0.810399 0.112349
H27   H     H_    0.863489 0.412296 0.834289 0.091847
H28   H     H_    0.181014 0.435658 0.105103 0.095592
H29   H     H_    0.318950 0.935687 0.894960 0.095588
H30   H     H_    0.636517 0.912299 0.165704 0.091823
H31   H     H_    0.901215 0.575361 0.367173 0.107231
H32   H     H_    0.809302 0.918283 0.473554 0.131508
H33   H     H_    0.155727 0.536003 0.625591 0.133720
H34   H     H_    0.344271 0.036004 0.374410 0.133726
H35   H     H_    0.598790 0.075362 0.632825 0.107226
H36   H     H_    0.891179 0.242904 0.013439 0.088162
H37   H     H_    0.160599 0.263412 0.917189 0.088891
H38   H     H_    0.339361 0.763437 0.082868 0.088889
H39   H     H_    0.608835 0.742905 0.986543 0.088191
H40   H     H_    0.876438 0.749381 0.190247 0.134800
H41   H     H_    0.173085 0.715682 0.802853 0.077617
H42   H     H_    0.326930 0.215694 0.197146 0.077632
H43   H     H_    0.372413 0.838969 0.492610 0.118997
H44   H     H_    0.623570 0.249380 0.809763 0.134902
H45   H     H_    0.851640 0.449257 0.381867 0.096791
H46   H     H_    0.079095 0.421243 0.645687 0.086011
H47   H     H_    0.420905 0.921247 0.354313 0.086010
H48   H     H_    0.648360 0.949256 0.618132 0.096791
H49   H     H_    0.817615 0.552716 0.897776 0.113713
H50   H     H_    0.143202 0.573671 0.158138 0.108523
H51   H     H_    0.356769 0.073649 0.841894 0.108515
H52   H     H_    0.682413 0.052680 0.102170 0.113708
H53   H     H_    0.210494 0.258678 0.348010 0.118894
H54   H     H_    0.691129 0.663687 0.739278 0.197808
H55   H     H_    0.625511 0.334000 0.686214 0.132818
H56   H     H_    0.874487 0.834001 0.313789 0.132812
H57   H     H_    0.289512 0.758679 0.651988 0.118900
H58   H     H_    0.815566 0.801172 0.060409 0.172852
H59   H     H_    0.948259 0.855825 0.977937 0.243861
H60   H     H_    0.954635 0.795118 0.877157 0.257109
H61   H     H_    0.994142 0.760447 0.949227 0.271872
H62   H     H_    0.121772 0.798177 0.938243 0.139179
H63   H     H_    0.989885 0.845944 0.116948 0.239233
H64   H     H_    0.086140 0.863859 0.098712 0.251548
H65   H     H_    0.315231 0.657110 0.275327 0.202525
H66   H     H_    0.019629 0.782644 0.182054 0.262435
H67   H     H_    0.378159 0.298199 0.061756 0.139222
H68   H     H_    0.510058 0.345955 0.883051 0.239232
H69   H     H_    0.413815 0.363808 0.901221 0.251601
H70   H     H_    0.480364 0.282588 0.817943 0.262437
H71   H     H_    0.684315 0.301207 0.940058 0.173069
H72   H     H_    0.551671 0.355765 0.021966 0.243965
H73   H     H_    0.545019 0.294971 0.122869 0.257189
H74   H     H_    0.505932 0.260346 0.050303 0.272071
H75   H     H_    0.879300 0.587485 0.534422 0.255832
H76   H     H_    0.184769 0.157113 0.724673 0.202525
H77   H     H_    0.802831 0.589089 0.681024 0.259830
H78   H     H_    0.841460 0.497845 0.610223 0.252920
H79   H     H_    0.696490 0.524657 0.668332 0.183161
H80   H     H_    0.772731 0.514752 0.526071 0.173105
H81   H     H_    0.135080 0.659158 0.544441 0.268182
H82   H     H_    0.178596 0.685185 0.406589 0.257906
H83   H     H_    0.088340 0.622482 0.483336 0.250693
H84   H     H_    0.217390 0.546608 0.347926 0.178294
H85   H     H_    0.169241 0.515038 0.481167 0.169962
H86   H     H_    0.364923 0.159163 0.455557 0.268177
H87   H     H_    0.808887 0.163686 0.260722 0.197807
H88   H     H_    0.321403 0.185194 0.593411 0.257905
H89   H     H_    0.411659 0.122493 0.516669 0.250691
H90   H     H_    0.282610 0.046615 0.652074 0.178293
H91   H     H_    0.330759 0.015045 0.518833 0.169963
H92   H     H_    0.620718 0.087480 0.465564 0.255837
H93   H     H_    0.697194 0.089077 0.318963 0.259833
H94   H     H_    0.658559 0.997837 0.389772 0.252914
H95   H     H_    0.803526 0.024657 0.331675 0.183158
H96   H     H_    0.727278 0.014756 0.473935 0.173105
H97   H     H_    0.714652 0.628921 0.381213 0.265114
H98   H     H_    0.625367 0.712001 0.708355 0.190436
H99   H     H_    0.731295 0.537419 0.424071 0.254026
H100  H     H_    0.631014 0.560387 0.456723 0.253579
H101  H     H_    0.602919 0.590145 0.622851 0.190630
H102  H     H_    0.631501 0.682967 0.556634 0.197075
H103  H     H_    0.291139 0.479656 0.553455 0.264806
H104  H     H_    0.239124 0.423213 0.509658 0.256860
H105  H     H_    0.341569 0.396008 0.466158 0.265390
H106  H     H_    0.343916 0.463539 0.320036 0.196098
H107  H     H_    0.405169 0.510512 0.354369 0.202260
H108  H     H_    0.208860 0.979655 0.446545 0.264807
N1    N     N_R   0.908660 0.628630 0.995840 -0.057520
N2    N     N_R   0.096530 0.421430 0.063580 -0.039720
N3    N     N_R   0.403470 0.921430 0.936420 -0.039720
N4    N     N_R   0.596530 0.921430 0.063580 -0.036129
N5    N     N_R   0.927500 0.575670 0.211370 -0.037530
N6    N     N_R   0.072500 0.575670 0.788630 -0.038121
N7    N     N_R   0.427500 0.075670 0.211370 -0.038122
N8    N     N_R   0.572500 0.075670 0.788630 -0.037520
N9    N     N_R   0.908660 0.365680 0.995820 -0.043475
N10   N     N_R   0.091340 0.365680 0.004180 -0.047253
N11   N     N_R   0.408660 0.865680 0.995820 -0.047255
N12   N     N_R   0.091340 0.628630 0.004160 -0.066430
N13   N     N_R   0.591340 0.865680 0.004180 -0.043466
N14   N     N_R   0.922310 0.631420 0.151980 -0.033941
N15   N     N_R   0.077690 0.631420 0.848020 -0.046437
N16   N     N_R   0.422310 0.131420 0.151980 -0.046427
N17   N     N_R   0.577690 0.131420 0.848020 -0.033954
N18   N     N_R   0.927500 0.426330 0.211360 -0.038498
N19   N     N_R   0.072500 0.426330 0.788640 -0.033999
N20   N     N_R   0.427500 0.926330 0.211360 -0.033998
N21   N     N_R   0.572500 0.926330 0.788640 -0.038498
N22   N     N_R   0.903470 0.570760 0.936440 -0.051563
N23   N     N_R   0.408660 0.128630 0.995840 -0.066442
N24   N     N_R   0.096530 0.570760 0.063560 -0.047117
N25   N     N_R   0.403470 0.070760 0.936440 -0.047109
N26   N     N_R   0.596530 0.070760 0.063560 -0.051562
N27   N     N_2   0.862308 0.762857 0.040762 -0.129562
N28   N     N_2   0.087578 0.768434 0.011140 -0.117441
N29   N     N_2   0.412369 0.268439 0.988874 -0.117527
N30   N     N_2   0.637700 0.262875 0.959311 -0.129613
N31   N     N_R   0.591340 0.128630 0.004160 -0.057504
N32   N     N_R   0.922310 0.368460 0.151950 -0.045889
N33   N     N_R   0.077690 0.368460 0.848050 -0.038826
N34   N     N_R   0.422310 0.868460 0.151950 -0.038824
N35   N     N_R   0.577690 0.868460 0.848050 -0.045887
N36   N     N_R   0.903470 0.421430 0.936420 -0.036124
Ni1   Ni    Ni4+2 0.000000 0.630300 0.000000 0.219274
Ni2   Ni    Ni4+2 0.500000 0.130300 0.000000 0.219214
Ni3   Ni    Ni4+2 1.000000 0.369700 0.000000 0.203549
Ni4   Ni    Ni4+2 0.500000 0.869700 0.000000 0.203556
Ni5   Ni    Ni4+2 0.988090 0.497570 0.863760 0.210832
Ni6   Ni    Ni4+2 0.011910 0.497570 0.136240 0.207910
Ni7   Ni    Ni4+2 0.488090 0.997570 0.863760 0.207913
Ni8   Ni    Ni4+2 0.511910 0.997570 0.136240 0.210831

loop_
_geom_bond_atom_site_label_1
_geom_bond_atom_site_label_2
_ccdc_geom_bond_type
C9    H3    S    
C38   C87   S    
C12   C69   A    
C13   C79   A    
C90   H50   S    
C45   H98   S    
C71   N5    A    
C77   H37   S    
C4    C53   S    
C52   H26   S    
C14   C71   A    
C105  H83   S    
C36   C42   A    
C103  H77   S    
C6    C55   S    
C20   C56   S    
N14   Ni1   S    
C100  H70   S    
C8    C56   S    
C22   C57   S    
C54   C84   A    
C7    H104  S    
N32   Ni3   S    
C4    H102  S    
C48   C57   S    
C15   C81   A    
C15   C72   A    
C49   H23   S    
C35   H43   S    
N4    N13   A    
C103  H75   S    
C17   C26   S    
C88   H48   S    
H62   N28   S    
N4    Ni8   S    
N12   N24   A    
C108  H95   S    
C2    C68   A    
C66   H22   S    
C59   C66   D    
N7    Ni8   S    
C61   C93   S    
C97   N27   S    
C13   C70   A    
C100  H69   S    
C43   N30   S    
C33   H21   S    
C49   C54   A    
C104  H84   S    
C74   N8    A    
C92   C96   A    
C97   H61   S    
N22   Ni5   S    
C60   H16   S    
C106  C107  S    
C99   N28   S    
C61   C63   D    
C51   N34   A    
C58   C96   S    
C79   N13   A    
C18   C40   A    
C100  N29   S    
C1    N27   S    
C18   C53   S    
N18   N32   A    
C92   N26   A    
C22   C44   A    
C6    H107  S    
C91   N25   A    
C43   N31   A    
C8    C9    S    
C64   H20   S    
C20   C25   A    
C12   C78   A    
C46   C55   S    
C100  H68   S    
C104  H85   S    
C10   H11   S    
C14   C80   A    
C11   H7    S    
C91   H51   S    
C67   C98   A    
N19   Ni5   S    
C106  H90   S    
C67   N36   A    
C9    H4    S    
C64   C98   S    
C45   C53   S    
C77   N10   A    
N6    Ni5   S    
C69   N3    A    
C69   H29   S    
H58   N27   S    
C29   H56   S    
C72   H33   S    
C103  H78   S    
C59   C95   S    
C42   C47   S    
C102  H80   S    
C84   N18   A    
C101  N30   S    
C16   C25   S    
C107  H88   S    
C50   C65   A    
N36   Ni5   S    
C90   C94   A    
C6    C7    S    
C73   H34   S    
C9    H108  S    
C59   H15   S    
C40   C45   S    
N20   Ni8   S    
C58   H14   S    
C73   N7    A    
C27   C31   A    
C16   C73   A    
N2    Ni6   S    
C83   N17   A    
C68   H28   S    
C10   C57   S    
N16   Ni2   S    
C51   C76   A    
C39   C41   A    
C75   H36   S    
N20   N34   A    
C48   H13   S    
C62   H18   S    
C36   C65   S    
C89   N22   A    
C79   H39   S    
C99   H64   S    
C58   C64   D    
C97   H59   S    
C91   C95   A    
C55   C104  S    
C75   C98   A    
C86   N20   A    
C4    H101  S    
C18   C23   A    
C61   H17   S    
C17   C83   A    
C34   C38   A    
C14   C23   S    
N5    N14   A    
C80   H40   S    
C68   N2    A    
C45   H54   S    
C29   C34   A    
N21   Ni7   S    
C67   H27   S    
C10   H10   S    
C105  H81   S    
C5    H99   S    
C12   C62   S    
C84   H45   S    
C20   C42   A    
C13   C63   S    
C75   N9    A    
C53   C102  S    
C41   C46   S    
C72   N6    A    
C57   C108  S    
N23   Ni2   S    
C16   C82   A    
C3    H92   S    
C31   H1    S    
C46   H65   S    
N23   N25   A    
C86   H47   S    
C7    H105  S    
C39   C76   S    
C65   C85   A    
C11   H8    S    
C56   C106  S    
C82   H42   S    
C50   N33   A    
C50   H24   S    
N17   Ni2   S    
C21   N28   S    
C37   C54   S    
C8    H5    S    
C1    C93   A    
C15   C24   S    
C28   C33   A    
N33   Ni3   S    
N9    N36   A    
N8    Ni7   S    
N8    N17   A    
C81   N15   A    
C17   C74   A    
C3    H93   S    
N9    Ni3   S    
N1    Ni1   S    
C74   H35   S    
N3    Ni7   S    
N19   N33   A    
N5    Ni6   S    
C11   H9    S    
C76   C86   A    
H71   N30   S    
C101  H73   S    
N7    N16   A    
C107  H89   S    
C83   H44   S    
C19   C55   S    
C78   N11   A    
N18   Ni6   S    
C21   N12   A    
C82   N16   A    
C71   H31   S    
N10   Ni3   S    
N25   Ni7   S    
N34   Ni4   S    
C85   N19   A    
N26   Ni8   S    
C105  H82   S    
C52   C87   A    
C102  H79   S    
C30   H57   S    
C80   N14   A    
C4    C5    S    
C2    C66   S    
C104  C105  S    
N6    N15   A    
C7    H103  S    
C23   C29   A    
C89   H49   S    
N11   Ni4   S    
C3    H94   S    
C32   N23   A    
C8    H6    S    
C3    C108  S    
C25   C27   A    
C97   H60   S    
C30   C35   A    
C22   C26   A    
C26   C28   A    
N26   N31   A    
C90   N24   A    
C32   N29   S    
C92   H52   S    
N24   Ni6   S    
C37   C44   A    
C46   H2    S    
C19   C24   A    
C106  H91   S    
C48   H87   S    
C101  H72   S    
C27   H53   S    
C60   C62   D    
C38   C40   A    
C51   H25   S    
C70   H30   S    
N35   Ni4   S    
C99   H66   S    
C88   N21   A    
C81   H41   S    
C35   C39   A    
C47   H76   S    
C34   H32   S    
C70   N4    A    
C33   C37   A    
C85   H46   S    
C89   C93   A    
C102  C103  S    
N15   Ni1   S    
C52   N35   A    
C24   C30   A    
N13   Ni4   S    
C49   N32   A    
C10   C11   S    
C78   H38   S    
C5    H97   S    
N12   Ni1   S    
N31   Ni2   S    
C19   C41   A    
H67   N29   S    
C32   C95   A    
C99   H63   S    
C87   C88   A    
C108  H96   S    
C21   C94   A    
C6    H106  S    
C2    C77   A    
C43   C96   A    
C47   H12   S    
C31   C36   A    
N21   N35   A    
C1    N1    A    
N3    N11   A    
N1    N22   A    
N2    N10   A    
C107  H86   S    
C63   H19   S    
C101  H74   S    
C44   C48   S    
C28   H55   S    
C47   C56   S    
C5    H100  S    
C60   C94   S    
