data_mof_unit_37917.cif
_audit_creation_date              2012-12-10T18:21:15-0500
_audit_creation_method            fapswitch 2.2
_symmetry_space_group_name_H-M    P1
_symmetry_Int_Tables_number       1
_space_group_crystal_system       triclinic
_cell_length_a                    14.920877
_cell_length_b                    14.005485
_cell_length_c                    10.702193
_cell_angle_alpha                 90.269135
_cell_angle_beta                  88.808521
_cell_angle_gamma                 89.481506
_cell_volume                      2235.87954584

loop_
_atom_site_label
_atom_site_type_symbol
_atom_type_description
_atom_site_fract_x
_atom_site_fract_y
_atom_site_fract_z
_atom_type_partial_charge
C1    C     C_R   0.326733 0.500277 0.500218 0.879596
C2    C     C_R   0.039593 0.413132 0.702743 -0.004879
C3    C     C_R   0.090546 0.455619 0.604164 0.043761
C4    C     C_R   0.497718 0.500029 0.257613 0.842686
C5    C     C_R   0.046145 0.488368 0.495906 -0.007521
C6    C     C_R   0.094915 0.523857 0.391917 0.101449
C7    C     C_R   0.051002 0.556126 0.285657 -0.279088
C8    C     C_R   0.957574 0.556925 0.282139 0.206906
C9    C     C_R   0.183853 0.468215 0.609899 0.145210
C10   C     C_R   0.230935 0.499563 0.502887 -0.106283
C11   C     C_R   0.187350 0.526407 0.395167 -0.271344
C12   C     C_3   0.597497 0.490916 0.927051 0.034254
C13   C     C_R   0.562381 0.797834 0.430507 -0.023719
C14   C     C_R   0.562295 0.200539 0.430222 -0.026621
C15   C     C_R   0.436833 0.798031 0.570254 -0.040321
C16   C     C_R   0.437307 0.203842 0.570900 -0.036633
C17   C     C_R   0.433194 0.899278 0.572023 -0.105046
C18   C     C_R   0.434544 0.102804 0.574088 -0.104064
C19   C     C_R   0.673002 0.499524 0.497715 0.896621
C20   C     C_R   0.497872 0.949461 0.500877 0.045918
C21   C     C_R   0.498277 0.050737 0.501461 0.046212
C22   C     C_R   0.562776 0.898271 0.429006 0.044775
C23   C     C_R   0.814815 0.532063 0.392192 -0.263499
C24   C     C_R   0.562916 0.100089 0.429087 0.046104
C25   C     C_R   0.368245 0.951604 0.643801 0.184147
C26   C     C_R   0.369449 0.052686 0.645679 0.179231
C27   C     C_R   0.626578 0.048297 0.357324 -0.191330
C28   C     C_R   0.626617 0.948271 0.357474 -0.189357
C29   C     C_R   0.498201 0.500068 0.742282 0.870176
C30   C     C_3   0.454043 0.599520 0.070983 0.223185
C31   C     C_3   0.443473 0.409170 0.070775 0.225248
C32   C     C_3   0.452750 0.593341 0.927149 -0.457328
C33   C     C_3   0.439951 0.415909 0.927235 -0.509624
C34   C     C_R   0.768000 0.497461 0.495868 -0.066526
C35   C     C_3   0.595036 0.493985 0.072072 -0.544826
C36   C     C_3   0.495673 0.500763 0.120842 -0.058795
C37   C     C_3   0.498619 0.499930 0.878661 0.005388
C38   C     C_1   0.510964 0.682776 0.103887 0.223604
C39   C     C_1   0.493388 0.319172 0.100524 0.244031
C40   C     C_1   0.079119 0.364849 0.807685 0.206375
C41   C     C_3   0.216089 0.543350 0.806107 -0.812572
C42   C     C_3   0.886331 0.515401 0.089357 -0.789920
C43   C     C_3   0.322224 0.887403 0.843559 -0.764463
C44   C     C_3   0.222670 0.126754 0.658544 -0.737269
C45   C     C_R   0.810998 0.455926 0.595694 -0.222411
C46   C     C_3   0.315299 0.703602 0.089914 -0.832431
C47   C     C_3   0.303991 0.315021 0.118136 -0.757619
C48   C     C_1   0.654206 0.569170 0.878497 0.130933
C49   C     C_1   0.640152 0.400355 0.884207 0.143823
C50   C     C_R   0.903463 0.452280 0.595882 0.123119
C51   C     C_R   0.952701 0.488114 0.492677 0.025960
C52   C     C_R   0.908043 0.525556 0.387604 0.096370
C53   C     C_R   0.946695 0.413084 0.697865 -0.275862
H1    H     H_    0.225606 0.550310 0.314289 0.142922
H2    H     H_    0.369906 0.426920 0.898064 0.178565
H3    H     H_    0.484700 0.657244 0.883969 0.186835
H4    H     H_    0.460846 0.347105 0.882075 0.190359
H5    H     H_    0.634591 0.554705 0.108700 0.180530
H6    H     H_    0.629460 0.430653 0.112448 0.177814
H7    H     H_    0.777963 0.562645 0.315574 0.166255
H8    H     H_    0.772155 0.428480 0.674141 0.153360
H9    H     H_    0.907707 0.382631 0.774440 0.159529
H10   H     H_    0.293615 0.436523 0.720186 0.217436
H11   H     H_    0.240185 0.526954 0.900969 0.244842
H12   H     H_    0.089356 0.581381 0.205376 0.148496
H13   H     H_    0.144042 0.563359 0.815798 0.256571
H14   H     H_    0.253645 0.604840 0.766786 0.230900
H15   H     H_    0.948896 0.643204 0.126478 0.230540
H16   H     H_    0.945883 0.476332 0.050426 0.246586
H17   H     H_    0.848849 0.547143 0.010950 0.250541
H18   H     H_    0.841523 0.464389 0.138716 0.246093
H19   H     H_    0.271578 0.846713 0.671364 0.212759
H20   H     H_    0.378389 0.835011 0.848892 0.224885
H21   H     H_    0.262607 0.858766 0.893934 0.237672
H22   H     H_    0.341491 0.955007 0.890173 0.263479
H23   H     H_    0.611902 0.757394 0.376545 0.141378
H24   H     H_    0.329363 0.157364 0.774407 0.210976
H25   H     H_    0.174131 0.159465 0.726505 0.246538
H26   H     H_    0.191953 0.061693 0.618665 0.253820
H27   H     H_    0.236443 0.178762 0.582593 0.225910
H28   H     H_    0.355450 0.602601 0.216436 0.234886
H29   H     H_    0.245919 0.700662 0.129261 0.238490
H30   H     H_    0.310281 0.711068 0.987550 0.245187
H31   H     H_    0.348507 0.767247 0.129534 0.259414
H32   H     H_    0.310798 0.459817 0.099429 0.242152
H33   H     H_    0.234090 0.325715 0.153648 0.245205
H34   H     H_    0.611289 0.239687 0.375342 0.137009
H35   H     H_    0.335750 0.260263 0.177879 0.254623
H36   H     H_    0.301897 0.289123 0.019960 0.239802
H37   H     H_    0.390209 0.756264 0.625280 0.136070
H38   H     H_    0.389447 0.246984 0.623688 0.136736
H39   H     H_    0.676506 0.085203 0.301220 0.149253
H40   H     H_    0.676631 0.909955 0.301572 0.151401
H41   H     H_    0.383267 0.594270 0.893334 0.182076
N1    N     N_R   0.500070 0.750030 0.500050 -0.106534
N2    N     N_2   0.363309 0.616882 0.122680 -0.330945
N3    N     N_2   0.352131 0.404570 0.125084 -0.318141
N4    N     N_1   0.698512 0.630347 0.840407 -0.191953
N5    N     N_1   0.673232 0.329308 0.851099 -0.205886
N6    N     N_R   0.500070 0.249970 0.500050 -0.105791
N7    N     N_1   0.555032 0.747537 0.128371 -0.233625
N8    N     N_1   0.531935 0.249436 0.122957 -0.232269
N9    N     N_1   0.110429 0.326139 0.891797 -0.220112
N10   N     N_2   0.228266 0.460391 0.725982 -0.308725
N11   N     N_2   0.914156 0.590415 0.173181 -0.312305
N12   N     N_2   0.300184 0.904446 0.714684 -0.288388
N13   N     N_2   0.304480 0.102290 0.721548 -0.289962
O1    O     O_R   0.367860 0.580280 0.500020 -0.628116
O2    O     O_R   0.367860 0.419720 0.500020 -0.624740
O3    O     O_R   0.500000 0.580270 0.314790 -0.633541
O4    O     O_R   0.500000 0.419730 0.314790 -0.603876
O5    O     O_R   0.632160 0.580270 0.499960 -0.612795
O6    O     O_R   0.632160 0.419730 0.499960 -0.619726
O7    O     O_R   0.500030 0.580270 0.685200 -0.623737
O8    O     O_R   0.500030 0.419730 0.685200 -0.629174
Zn1   Zn    Zn3+2 0.500020 0.607200 0.499990 0.950029
Zn2   Zn    Zn3+2 0.500020 0.392800 0.499990 0.956680

loop_
_geom_bond_atom_site_label_1
_geom_bond_atom_site_label_2
_ccdc_geom_bond_type
C43   H20   S    
C32   H41   S    
C29   O7    A    
C4    C36   S    
C33   H2    S    
C18   C21   A    
C35   C36   S    
C18   C26   A    
C24   C27   A    
C12   C48   S    
C8    N11   S    
C12   C49   S    
O2    Zn2   S    
C7    C8    A    
C41   H14   S    
C19   O5    A    
C13   N1    A    
C35   H5    S    
C14   H34   S    
C38   N7    T    
C15   N1    A    
C5    C6    A    
C49   N5    T    
C19   O6    A    
C42   H17   S    
C17   C20   A    
C30   C38   S    
C35   H6    S    
C14   C24   A    
C12   C37   S    
C30   N2    S    
C1    O2    A    
C46   H29   S    
O8    Zn2   S    
C31   C33   S    
C9    C10   A    
C8    C52   A    
C43   H21   S    
C29   O8    A    
C22   C28   A    
C47   H36   S    
C25   N12   S    
C43   H22   S    
C23   H7    S    
C50   C53   A    
C51   C52   A    
C47   H33   S    
C44   H27   S    
C6    C11   A    
H28   N2    S    
C16   N6    A    
C25   C26   A    
C19   C34   S    
C42   H16   S    
C33   C37   S    
C28   H40   S    
C43   N12   S    
C3    C9    A    
C7    H12   S    
C53   H9    S    
C13   H23   S    
H24   N13   S    
N1    Zn1   S    
C23   C34   A    
C50   C51   A    
C27   H39   S    
C34   C45   A    
C32   C37   S    
C12   C35   S    
C6    C7    A    
C11   H1    S    
C46   H31   S    
C4    O4    A    
C20   C22   A    
O6    Zn2   S    
H15   N11   S    
O3    Zn1   S    
O5    Zn1   S    
C39   N8    T    
C44   N13   S    
C15   C17   A    
C4    O3    A    
C33   H4    S    
C44   H26   S    
C1    C10   S    
H19   N12   S    
H10   N10   S    
C3    C5    A    
C2    C53   A    
C26   N13   S    
O7    Zn1   S    
C14   N6    A    
C41   H13   S    
C48   N4    T    
C47   N3    S    
C41   N10   S    
C30   C36   S    
O4    Zn2   S    
C17   C25   A    
C47   H35   S    
O1    Zn1   S    
C44   H25   S    
C2    C3    A    
C15   H37   S    
C30   C32   S    
C23   C52   A    
C45   C50   A    
C9    N10   S    
C45   H8    S    
C42   H18   S    
C31   C39   S    
C13   C22   A    
C31   N3    S    
C42   N11   S    
H32   N3    S    
C10   C11   A    
C1    O1    A    
C46   H30   S    
C2    C40   S    
C46   N2    S    
C20   C21   A    
C16   H38   S    
C16   C18   A    
C21   C24   A    
C29   C37   S    
C27   C28   A    
C31   C36   S    
C5    C51   A    
N6    Zn2   S    
C41   H11   S    
C32   H3    S    
C40   N9    T    
