data_mof_unit_34464.cif
_audit_creation_date              2012-12-11T16:24:22-0500
_audit_creation_method            fapswitch 2.2
_symmetry_space_group_name_H-M    P1
_symmetry_Int_Tables_number       1
_space_group_crystal_system       triclinic
_cell_length_a                    14.756153
_cell_length_b                    14.769064
_cell_length_c                    33.283009
_cell_angle_alpha                 96.086799
_cell_angle_beta                  96.243208
_cell_angle_gamma                 61.18848
_cell_volume                      6305.92481438

loop_
_atom_site_label
_atom_site_type_symbol
_atom_type_description
_atom_site_fract_x
_atom_site_fract_y
_atom_site_fract_z
_atom_type_partial_charge
C1    C     C_R   0.390986 0.699492 0.446088 0.546578
C2    C     C_1   0.313466 0.339315 0.229305 0.016625
C3    C     C_1   0.319206 0.343186 0.265631 -0.008435
C4    C     C_R   0.405821 0.386332 0.434016 0.544599
C5    C     C_R   0.290829 0.294314 0.101867 -0.001742
C6    C     C_R   0.756604 0.373068 0.410223 0.022069
C7    C     C_R   0.790371 0.434494 0.393816 -0.129518
C8    C     C_R   0.820130 0.413555 0.354198 -0.118247
C9    C     C_R   0.816889 0.330697 0.330339 0.035488
C10   C     C_R   0.792554 0.263527 0.347979 -0.120676
C11   C     C_R   0.762551 0.284598 0.387650 -0.131280
C12   C     C_R   0.329500 0.346925 0.308902 0.039821
C13   C     C_R   0.836999 0.311170 0.205081 0.347982
C14   C     C_R   0.828835 0.321001 0.286516 0.347073
C15   C     C_R   0.837719 0.389772 0.142652 -0.114663
C16   C     C_R   0.700727 0.409981 0.447528 0.546480
C17   C     C_R   0.867053 0.378792 0.103364 -0.127619
C18   C     C_R   0.909705 0.197895 0.099272 -0.131072
C19   C     C_R   0.880209 0.208939 0.138662 -0.119714
C20   C     C_R   0.848650 0.303809 0.161313 0.035214
C21   C     C_R   0.907979 0.281612 0.082062 0.021811
C22   C     C_R   0.370949 0.754191 0.409008 0.021943
C23   C     C_R   0.411325 0.264335 0.328599 -0.110156
C24   C     C_R   0.277012 0.783466 0.385690 -0.129889
C25   C     C_R   0.266916 0.811280 0.346146 -0.119464
C26   C     C_R   0.350444 0.810616 0.329276 0.034955
C27   C     C_R   0.440859 0.790832 0.353832 -0.119677
C28   C     C_R   0.393494 0.701222 0.561275 0.546481
C29   C     C_R   0.451069 0.762764 0.393421 -0.130540
C30   C     C_R   0.343523 0.828398 0.204309 0.347949
C31   C     C_R   0.346330 0.821144 0.285534 0.348436
C32   C     C_R   0.258500 0.831868 0.135188 -0.120066
C33   C     C_R   0.238789 0.862491 0.095661 -0.130607
C34   C     C_R   0.431407 0.273706 0.370312 -0.123687
C35   C     C_R   0.381505 0.901932 0.104949 -0.131331
C36   C     C_R   0.401287 0.871181 0.144539 -0.120290
C37   C     C_R   0.336712 0.840672 0.160582 0.035467
C38   C     C_R   0.296876 0.902571 0.080874 0.021986
C39   C     C_R   0.370938 0.369949 0.585028 0.024724
C40   C     C_R   0.407315 0.388969 0.548999 0.545623
C41   C     C_R   0.285628 0.450788 0.604038 -0.136822
C42   C     C_R   0.265780 0.441883 0.642969 -0.129755
C43   C     C_R   0.330609 0.351975 0.663446 0.038906
C44   C     C_R   0.410099 0.267730 0.643010 -0.119567
C45   C     C_R   0.391844 0.252419 0.166151 -0.140617
C46   C     C_R   0.430171 0.276689 0.604115 -0.130617
C47   C     C_R   0.313214 0.348955 0.787839 0.365571
C48   C     C_R   0.321346 0.349398 0.706841 0.340347
C49   C     C_R   0.213745 0.406960 0.851086 0.098217
C50   C     C_R   0.205974 0.386141 0.890265 -0.124671
C51   C     C_R   0.383426 0.248368 0.891831 -0.141549
C52   C     C_R   0.701352 0.413621 0.562680 0.542967
C53   C     C_R   0.392212 0.268945 0.853065 -0.151599
C54   C     C_R   0.306492 0.344642 0.831469 0.072959
C55   C     C_R   0.288705 0.303371 0.909922 0.002906
C56   C     C_R   0.383552 0.233821 0.124370 -0.136134
C57   C     C_R   0.754537 0.380413 0.602849 0.020003
C58   C     C_R   0.778592 0.447567 0.629475 -0.126325
C59   C     C_R   0.807486 0.426730 0.670197 -0.110724
C60   C     C_R   0.813163 0.338496 0.684682 0.042283
C61   C     C_R   0.795646 0.268018 0.657976 -0.107139
C62   C     C_R   0.766757 0.288616 0.617241 -0.124978
C63   C     C_R   0.887002 0.212313 0.822674 -0.108945
C64   C     C_R   0.369938 0.366235 0.392625 0.020008
C65   C     C_R   0.913919 0.201337 0.864116 -0.127160
C66   C     C_R   0.873998 0.381631 0.873115 -0.128005
C67   C     C_R   0.209374 0.378754 0.121508 -0.106758
C68   C     C_R   0.847024 0.392379 0.831741 -0.114365
C69   C     C_R   0.856331 0.307064 0.806334 0.041756
C70   C     C_1   0.841157 0.315526 0.763312 -0.020000
C71   C     C_1   0.829399 0.324543 0.727352 -0.019365
C72   C     C_R   0.911047 0.285067 0.889533 0.020051
C73   C     C_R   0.376706 0.753128 0.602274 -0.022469
C74   C     C_R   0.281997 0.786067 0.619435 -0.115177
C75   C     C_R   0.273261 0.810135 0.661298 0.284504
C76   C     C_R   0.283293 0.445937 0.372909 -0.126508
C77   C     C_R   0.358443 0.807336 0.685555 0.053330
C78   C     C_R   0.217202 0.397845 0.163629 0.118616
C79   C     C_R   0.450648 0.781599 0.668186 -0.166046
C80   C     C_R   0.459979 0.754305 0.626812 -0.145671
C81   C     C_R   0.399066 0.880216 0.833299 -0.114178
C82   C     C_R   0.378220 0.909577 0.873935 -0.125219
C83   C     C_R   0.229469 0.879324 0.863237 -0.127606
C84   C     C_R   0.250612 0.849868 0.822651 -0.105221
C85   C     C_R   0.333667 0.853014 0.807435 0.037343
C86   C     C_1   0.346500 0.835944 0.764756 -0.010614
C87   C     C_1   0.353502 0.823401 0.728721 0.023228
C88   C     C_R   0.263514 0.436365 0.331168 -0.105785
C89   C     C_R   0.307986 0.331765 0.185929 0.069163
C90   C     C_R   0.291161 0.912652 0.889004 0.019575
C91   C     C_R   0.963582 0.264207 0.045560 0.546642
C92   C     C_R   0.272671 0.259441 0.060050 0.545640
C93   C     C_R   0.259230 0.959671 0.043779 0.545785
C94   C     C_R   0.962783 0.267564 0.930676 0.542690
C95   C     C_R   0.270803 0.264135 0.945415 0.547189
C96   C     C_R   0.256197 0.964882 0.929000 0.543147
C97   C     C_3   0.151657 0.761202 0.673194 0.004892
C98   C     C_3   0.042401 0.804511 0.652550 -0.261715
C99   C     C_3   0.006946 0.722295 0.645521 -0.485569
Cr1   Cr    Cr6+3 0.576280 0.580550 0.506370 1.012916
Cr2   Cr    Cr6+3 0.346780 0.572400 0.496520 1.011102
Cr3   Cr    Cr6+3 0.576960 0.347070 0.497150 1.012830
Cr4   Cr    Cr6+3 0.087320 0.083240 0.984860 1.012749
Cr5   Cr    Cr6+3 0.087720 0.316210 0.996740 1.011046
Cr6   Cr    Cr6+3 0.317350 0.090340 0.995890 1.013230
H1    H     H_    0.447606 0.168396 0.110092 0.136161
H2    H     H_    0.524190 0.741346 0.410805 0.129949
H3    H     H_    0.173897 0.860804 0.077610 0.129490
H4    H     H_    0.462135 0.201784 0.183294 0.119156
H5    H     H_    0.195399 0.828275 0.328205 0.136898
H6    H     H_    0.506076 0.791000 0.341810 0.136088
H7    H     H_    0.208764 0.806557 0.146447 0.133573
H8    H     H_    0.428127 0.931775 0.094250 0.129860
H9    H     H_    0.463034 0.877491 0.163241 0.134987
H10   H     H_    0.238155 0.523526 0.589992 0.123882
H11   H     H_    0.495835 0.212769 0.590030 0.128942
H12   H     H_    0.737665 0.235361 0.399623 0.129429
H13   H     H_    0.132413 0.430352 0.903981 0.126812
H14   H     H_    0.203108 0.507478 0.657777 0.122739
H15   H     H_    0.460415 0.196702 0.657775 0.133721
H16   H     H_    0.462548 0.194686 0.311469 0.116957
H17   H     H_    0.449030 0.185066 0.906564 0.135715
H18   H     H_    0.465078 0.221607 0.839184 0.134371
H19   H     H_    0.942764 0.125815 0.875738 0.127972
H20   H     H_    0.894225 0.145887 0.803180 0.114670
H21   H     H_    0.800146 0.199357 0.668942 0.113487
H22   H     H_    0.748691 0.235378 0.597569 0.126452
H23   H     H_    0.863547 0.445039 0.090651 0.129965
H24   H     H_    0.769604 0.519003 0.619428 0.126280
H25   H     H_    0.823024 0.466131 0.819326 0.109027
H26   H     H_    0.871024 0.447526 0.891821 0.126037
H27   H     H_    0.498576 0.210974 0.384605 0.129525
H28   H     H_    0.821172 0.481614 0.690708 0.112544
H29   H     H_    0.427058 0.935077 0.892930 0.128452
H30   H     H_    0.463608 0.882747 0.821722 0.111547
H31   H     H_    0.516774 0.778558 0.686919 0.116841
H32   H     H_    0.534080 0.728922 0.614526 0.138462
H33   H     H_    0.216314 0.787838 0.600818 0.127972
H34   H     H_    0.840635 0.465494 0.341673 0.136685
H35   H     H_    0.199681 0.828713 0.802770 0.122256
H36   H     H_    0.161837 0.880976 0.873852 0.127350
H37   H     H_    0.234557 0.518186 0.389221 0.128845
H38   H     H_    0.137542 0.426318 0.104504 0.124072
H39   H     H_    0.199838 0.500530 0.316045 0.122564
H40   H     H_    0.787812 0.502501 0.410659 0.130675
H41   H     H_    0.103434 0.556258 0.847900 0.224433
H42   H     H_    0.063952 0.468887 0.829500 0.229020
H43   H     H_    0.150683 0.737046 0.703583 0.159481
H44   H     H_    0.205620 0.689691 0.655686 0.115268
H45   H     H_    0.790545 0.198339 0.330458 0.134459
H46   H     H_    0.987460 0.870387 0.671825 0.175931
H47   H     H_    0.040988 0.833699 0.622935 0.163785
H48   H     H_    0.057039 0.658819 0.624222 0.142473
H49   H     H_    0.925943 0.757501 0.632095 0.148125
H50   H     H_    0.009920 0.690024 0.674601 0.158362
H51   H     H_    0.068649 0.518391 0.163476 0.222650
H52   H     H_    0.155165 0.534563 0.196196 0.232433
H53   H     H_    0.811515 0.464494 0.159070 0.139162
H54   H     H_    0.940482 0.122113 0.083455 0.131265
H55   H     H_    0.888268 0.141608 0.152120 0.136921
H56   H     H_    0.213451 0.778729 0.397038 0.130804
N1    N     N_R   0.831413 0.394657 0.228324 -0.222797
N2    N     N_R   0.422943 0.827731 0.268993 -0.229806
N3    N     N_R   0.421194 0.831996 0.229157 -0.229802
N4    N     N_R   0.245522 0.432882 0.767276 -0.176761
N5    N     N_3   0.124934 0.486445 0.830616 -0.604056
N6    N     N_3   0.131773 0.480240 0.184102 -0.613702
N7    N     N_R   0.249757 0.433277 0.727584 -0.244542
N8    N     N_R   0.389171 0.265647 0.727416 -0.236609
N9    N     N_R   0.384926 0.265329 0.767060 -0.246035
N10   N     N_R   0.827085 0.399619 0.268191 -0.225873
N11   N     N_R   0.834256 0.237380 0.263309 -0.230360
N12   N     N_R   0.839005 0.232226 0.223361 -0.230567
N13   N     N_R   0.267274 0.821440 0.220889 -0.231199
N14   N     N_R   0.268837 0.817526 0.260660 -0.230342
O1    O     O_R   0.679450 0.499830 0.463150 -0.519201
O2    O     O_R   0.340240 0.172500 0.045430 -0.518002
O3    O     O_R   0.309670 0.000990 0.032050 -0.502060
O4    O     O_R   0.480650 0.664000 0.464630 -0.501348
O5    O     O_R   0.168330 0.982130 0.939200 -0.520567
O6    O     O_R   0.000140 0.178170 0.944610 -0.501905
O7    O     O_R   0.983010 0.336750 0.948660 -0.520614
O8    O     O_R   0.181800 0.312190 0.959860 -0.503665
O9    O     O_R   0.338500 0.175680 0.956950 -0.518065
O10   O     O_R   0.308050 0.003930 0.950020 -0.501805
O11   O     O_3   0.164130 0.163270 0.992500 -0.235968
O12   O     O_R   0.356040 0.477400 0.534170 -0.503287
O13   O     O_R   0.323930 0.675950 0.455370 -0.519668
O14   O     O_R   0.354700 0.475360 0.451930 -0.501630
O15   O     O_R   0.494470 0.320860 0.448390 -0.519346
O16   O     O_R   0.662580 0.357570 0.460050 -0.501997
O17   O     O_R   0.680900 0.502040 0.551870 -0.520541
O18   O     O_R   0.481990 0.666040 0.546870 -0.499094
O19   O     O_R   0.325370 0.678160 0.544080 -0.522053
O20   O     O_3   0.180910 0.840372 0.678751 -0.568484
O21   O     O_R   0.495910 0.323070 0.537100 -0.519513
O22   O     O_R   0.663920 0.359620 0.542290 -0.501738
O23   O     O_3   0.500010 0.500010 0.500010 -0.236547
O24   O     O_R   0.170070 0.978950 0.027680 -0.519757
O25   O     O_R   0.001760 0.175230 0.026640 -0.501305
O26   O     O_R   0.984760 0.333570 0.037150 -0.519464
O27   O     O_R   0.183410 0.309240 0.041890 -0.502257

loop_
_geom_bond_atom_site_label_1
_geom_bond_atom_site_label_2
_ccdc_geom_bond_type
C66   C68   A    
C24   C25   A    
C63   C65   A    
C41   C42   A    
C22   C29   A    
C27   C29   A    
C18   C21   A    
N8    N9    A    
C5    C56   A    
Cr5   O7    S    
N2    N3    A    
C30   N3    A    
Cr6   O3    S    
C5    C67   A    
C67   H38   S    
H52   N6    S    
C81   C82   A    
C7    C8    A    
C39   C41   A    
C40   O12   A    
C98   H47   S    
C53   C54   A    
Cr2   O19   S    
C13   N12   A    
C79   H31   S    
C74   H33   S    
C12   C23   A    
C26   C27   A    
C16   O16   A    
C8    H34   S    
C19   H55   S    
C36   C37   A    
C93   O24   A    
C18   C19   A    
Cr2   O14   S    
Cr3   O23   S    
C40   O21   A    
C62   H22   S    
C47   N4    A    
C45   H4    S    
C95   O9    A    
C44   H15   S    
C58   H24   S    
C80   H32   S    
C99   H49   S    
C50   H13   S    
Cr4   O5    S    
C52   O17   A    
C65   H19   S    
Cr6   O10   S    
N13   N14   A    
C18   H54   S    
C66   C72   A    
N1    N10   A    
C63   C69   A    
C45   C56   A    
C8    C9    A    
H51   N6    S    
C24   H56   S    
C99   H50   S    
Cr1   O1    S    
C28   O19   A    
C81   H30   S    
C70   C71   T    
C3    C12   S    
C94   O6    A    
Cr2   O13   S    
C45   C89   A    
C9    C10   A    
C76   C88   A    
C61   C62   A    
C75   O20   S    
C72   C94   S    
C16   O1    A    
C14   N11   A    
H41   N5    S    
C27   H6    S    
C59   C60   A    
C78   N6    S    
C84   H35   S    
Cr1   O17   S    
C67   C78   A    
C41   H10   S    
C28   C73   S    
C96   O10   A    
C44   C46   A    
C97   C98   S    
C98   H46   S    
C77   C79   A    
C78   C89   A    
C15   C20   A    
C31   N2    A    
C74   C75   A    
C12   C88   A    
C4    O15   A    
C13   N1    A    
C35   C38   A    
C84   C85   A    
C15   H53   S    
C23   H16   S    
C53   H18   S    
Cr3   O22   S    
Cr6   O2    S    
C39   C40   S    
C83   H36   S    
Cr2   O23   S    
C68   C69   A    
C31   N14   A    
C60   C71   S    
C57   C62   A    
C25   C26   A    
C85   C86   S    
C59   H28   S    
C17   C21   A    
C48   N8    A    
C30   C37   S    
Cr3   O21   S    
C60   C61   A    
C51   C53   A    
C35   C36   A    
Cr5   O27   S    
Cr6   O11   S    
C82   H29   S    
C2    C89   S    
C9    C14   S    
H42   N5    S    
C83   C84   A    
C48   N7    A    
C23   C34   A    
Cr5   O8    S    
C34   C64   A    
Cr3   O16   S    
C64   C76   A    
Cr4   O24   S    
C32   C37   A    
C96   O5    A    
C68   H25   S    
C75   C77   A    
C56   H1    S    
C63   H20   S    
C25   H5    S    
C47   C54   S    
C33   H3    S    
C91   O25   A    
C55   C95   S    
C92   O2    A    
C98   C99   S    
N4    N7    A    
C39   C46   A    
C43   C44   A    
C97   H43   S    
C22   C24   A    
C42   C43   A    
C52   C57   S    
C11   H12   S    
C73   C74   A    
C6    C11   A    
C47   N9    A    
C92   O27   A    
N11   N12   A    
C86   C87   T    
C66   H26   S    
C21   C91   S    
C1    O13   A    
C15   C17   A    
C83   C90   A    
C32   H7    S    
C13   C20   S    
Cr4   O6    S    
C26   C31   S    
C4    O14   A    
C50   C55   A    
C91   O26   A    
C14   N10   A    
C28   O18   A    
C93   O3    A    
C17   H23   S    
C90   C96   S    
C6    C7    A    
C65   C72   A    
Cr5   O11   S    
C4    C64   S    
C33   C38   A    
C82   C90   A    
C46   H11   S    
C43   C48   S    
C32   C33   A    
C97   O20   S    
C19   C20   A    
C2    C3    T    
C58   C59   A    
C49   N5    S    
Cr5   O26   S    
C1    O4    A    
C95   O8    A    
C57   C58   A    
C99   H48   S    
C38   C93   S    
Cr3   O15   S    
C73   C80   A    
C30   N13   A    
C36   H9    S    
C35   H8    S    
C51   C55   A    
Cr4   O25   S    
Cr6   O9    S    
C69   C70   S    
C42   H14   S    
C81   C85   A    
C5    C92   S    
C10   C11   A    
C6    C16   S    
C79   C80   A    
C34   H27   S    
Cr1   O18   S    
C1    C22   S    
C61   H21   S    
C77   C87   S    
C49   C50   A    
C51   H17   S    
C97   H44   S    
C29   H2    S    
C52   O22   A    
C94   O7    A    
Cr2   O12   S    
Cr1   O4    S    
Cr4   O11   S    
C88   H39   S    
C10   H45   S    
C49   C54   A    
Cr1   O23   S    
C7    H40   S    
C76   H37   S    
