data_mof_unit_48708.cif
_audit_creation_date              2013-03-05T16:00:43-0500
_audit_creation_method            fapswitch 2.2
_symmetry_space_group_name_H-M    P1
_symmetry_Int_Tables_number       1
_space_group_crystal_system       triclinic
_cell_length_a                    21.169179
_cell_length_b                    21.167597
_cell_length_c                    14.011146
_cell_angle_alpha                 89.928643
_cell_angle_beta                  89.942075
_cell_angle_gamma                 90.073514
_cell_volume                      6278.39037268

loop_
_atom_site_label
_atom_site_type_symbol
_atom_site_description
_atom_site_fract_x
_atom_site_fract_y
_atom_site_fract_z
_atom_type_partial_charge
O1    O     O_R   0.066090 0.433930 0.580280 -0.618698
O2    O     O_R   0.933910 0.566070 0.419720 -0.607162
O3    O     O_R   0.933910 0.566070 0.580280 -0.630797
O4    O     O_R   0.066090 0.433930 0.419720 -0.624702
O5    O     O_R   0.933910 0.433930 0.419720 -0.612080
O6    O     O_R   0.066090 0.566070 0.580280 -0.632674
O7    O     O_R   0.066090 0.566070 0.419720 -0.622657
O8    O     O_R   0.933910 0.433930 0.580280 -0.624097
O9    O     O_R   0.566090 0.933930 0.580280 -0.601208
O10   O     O_R   0.433910 0.066070 0.419720 -0.632978
O11   O     O_R   0.433910 0.066070 0.580280 -0.603675
O12   O     O_R   0.566090 0.933930 0.419720 -0.633550
O13   O     O_R   0.433910 0.933930 0.419720 -0.605921
O14   O     O_R   0.566090 0.066070 0.580280 -0.614093
O15   O     O_R   0.566090 0.066070 0.419720 -0.629387
O16   O     O_R   0.433910 0.933930 0.580280 -0.620816
C1    C     C_R   0.087788 0.414737 0.499847 0.866643
C2    C     C_R   0.912489 0.585676 0.499815 0.906147
C3    C     C_R   0.912459 0.414592 0.500192 0.880020
C4    C     C_R   0.088079 0.585292 0.499979 0.865153
C5    C     C_R   0.587937 0.914685 0.499993 0.898721
C6    C     C_R   0.412409 0.085489 0.499998 0.900365
C7    C     C_R   0.412297 0.914696 0.499999 0.877633
C8    C     C_R   0.587682 0.085321 0.499910 0.872562
Zn1   Zn    Zn3+2 1.000000 0.500000 0.607200 0.950697
Zn2   Zn    Zn3+2 1.000000 0.500000 0.392800 0.959313
Zn3   Zn    Zn3+2 0.500000 0.000000 0.607200 0.968824
Zn4   Zn    Zn3+2 0.500000 1.000000 0.392800 0.958864
C9    C     C_R   0.136122 0.677429 0.430530 -0.240216
C10   C     C_R   0.877398 0.310741 0.458470 -0.211393
C11   C     C_R   0.872335 0.684634 0.558787 -0.241970
C12   C     C_R   0.125729 0.313675 0.552171 -0.213150
C13   C     C_R   0.626416 0.185972 0.550253 -0.209870
C14   C     C_R   0.374978 0.813431 0.551448 -0.218501
C15   C     C_R   0.368353 0.181392 0.438583 -0.236890
C16   C     C_R   0.638227 0.824633 0.429218 -0.237730
C17   C     C_R   0.139281 0.629997 0.498500 -0.117456
C18   C     C_R   0.864014 0.367765 0.501339 -0.135756
C19   C     C_R   0.865107 0.633934 0.497949 -0.092464
C20   C     C_R   0.136037 0.367549 0.498759 -0.139944
C21   C     C_R   0.637381 0.130973 0.500360 -0.135958
C22   C     C_R   0.363890 0.867737 0.499084 -0.121856
C23   C     C_R   0.362099 0.130610 0.499395 -0.089296
C24   C     C_R   0.639490 0.870599 0.498860 -0.095099
C25   C     C_R   0.191733 0.623604 0.559240 0.078358
C26   C     C_R   0.806477 0.379428 0.547312 0.083910
C27   C     C_R   0.816430 0.631006 0.430900 0.080835
C28   C     C_R   0.190295 0.375428 0.442702 0.093625
C29   C     C_R   0.695154 0.118693 0.455194 0.080866
C30   C     C_R   0.310259 0.874607 0.441099 0.105454
C31   C     C_R   0.308524 0.121500 0.556136 0.062324
C32   C     C_R   0.690133 0.876737 0.562361 0.070472
C33   C     C_R   0.242290 0.666682 0.550765 0.032057
C34   C     C_R   0.761587 0.330348 0.553991 0.028123
C35   C     C_R   0.775199 0.683091 0.420932 0.001797
C36   C     C_R   0.233427 0.325109 0.434949 0.028081
C37   C     C_R   0.743398 0.164805 0.458677 0.027682
C38   C     C_R   0.270761 0.821790 0.427757 -0.027341
C39   C     C_R   0.259468 0.167244 0.554124 0.003105
C40   C     C_R   0.740445 0.832430 0.558461 0.004020
C41   C     C_R   0.235296 0.718867 0.487029 -0.037103
C42   C     C_R   0.775149 0.271781 0.507325 -0.064640
C43   C     C_R   0.780683 0.733652 0.488291 -0.044048
C44   C     C_R   0.223645 0.270380 0.493160 -0.065073
C45   C     C_R   0.730340 0.223022 0.506759 -0.063663
C46   C     C_R   0.279793 0.767811 0.487086 -0.055888
C47   C     C_R   0.268248 0.221507 0.493977 -0.042417
C48   C     C_R   0.736019 0.782469 0.489687 -0.040980
C49   C     C_R   0.182798 0.723064 0.424897 0.033693
C50   C     C_R   0.833511 0.262253 0.460213 0.094664
C51   C     C_R   0.830164 0.734526 0.555917 0.091815
C52   C     C_R   0.169407 0.265007 0.551463 0.090848
C53   C     C_R   0.671960 0.232733 0.553754 0.093713
C54   C     C_R   0.332556 0.763667 0.548395 0.094507
C55   C     C_R   0.322302 0.227372 0.434969 0.093400
C56   C     C_R   0.685859 0.780447 0.423183 0.090949
C57   C     C_R   0.298877 0.660540 0.604651 0.361974
C58   C     C_R   0.704062 0.337307 0.605362 0.363174
C59   C     C_R   0.728688 0.686725 0.348015 0.326982
C60   C     C_R   0.285562 0.327275 0.371197 0.366761
C61   C     C_R   0.803656 0.155509 0.415734 0.364976
C62   C     C_R   0.222335 0.821208 0.358117 0.407901
C63   C     C_R   0.202826 0.162012 0.609022 0.326958
C64   C     C_R   0.794078 0.834784 0.620014 0.331286
C65   C     C_R   0.848069 0.204514 0.416327 0.001002
C66   C     C_R   0.177924 0.772639 0.357893 0.023946
C67   C     C_R   0.158529 0.211122 0.607424 0.032304
C68   C     C_R   0.837903 0.785274 0.619082 0.033365
C69   C     C_R   0.343319 0.709561 0.603999 0.000836
C70   C     C_R   0.659347 0.288675 0.603933 0.001159
C71   C     C_R   0.683418 0.734607 0.351031 0.032717
C72   C     C_R   0.330167 0.278771 0.372637 0.003523
H1    H     H_    0.095171 0.679395 0.384380 0.155648
H2    H     H_    0.923003 0.304698 0.424286 0.179039
H3    H     H_    0.911712 0.684667 0.608242 0.188326
H4    H     H_    0.082761 0.310258 0.594122 0.184098
H5    H     H_    0.580986 0.192192 0.584901 0.179667
H6    H     H_    0.417366 0.810573 0.594689 0.183788
H7    H     H_    0.410773 0.185194 0.395430 0.185416
H8    H     H_    0.598349 0.822907 0.380742 0.191288
C73   C     C_R   0.943868 0.500769 0.798222 -0.033760
C74   C     C_R   0.056102 0.500229 0.201718 -0.039895
C75   C     C_R   0.056101 0.499064 0.798088 -0.045565
C76   C     C_R   0.943867 0.499951 0.201952 -0.035245
C77   C     C_R   0.443885 0.001668 0.798206 -0.038569
C78   C     C_R   0.556080 0.997999 0.201753 -0.042076
C79   C     C_R   0.556098 0.998294 0.798062 -0.040387
C80   C     C_R   0.443882 0.001770 0.201966 -0.025257
N1    N     N_R   0.000000 0.500000 0.750030 -0.107659
N2    N     N_R   1.000000 0.500000 0.249970 -0.109255
N3    N     N_R   0.500000 1.000000 0.750030 -0.108590
N4    N     N_R   0.500000 1.000000 0.249970 -0.110233
C81   C     C_R   0.057459 0.499413 0.898726 0.010974
C82   C     C_R   0.942487 0.500277 0.101291 0.006430
C83   C     C_R   0.942490 0.500616 0.898889 0.007470
C84   C     C_R   0.057457 0.499948 0.101081 0.009465
C85   C     C_R   0.557443 0.998115 0.898714 0.007255
C86   C     C_R   0.442514 0.001752 0.101292 0.003017
C87   C     C_R   0.442518 0.001728 0.898875 0.005712
C88   C     C_R   0.557432 0.997984 0.101099 0.011521
C89   C     C_R   0.999971 0.500067 0.949390 0.086916
C90   C     C_R   0.999970 0.500100 0.050601 0.086011
C91   C     C_R   0.499977 0.999912 0.949383 0.089978
C92   C     C_R   0.499973 0.999895 0.050606 0.085655
C93   C     C_R   0.114636 0.499106 0.949667 -0.178863
C94   C     C_R   0.885309 0.500737 0.050346 -0.169240
C95   C     C_R   0.885312 0.500998 0.950024 -0.173779
C96   C     C_R   0.114637 0.499506 0.049970 -0.173600
C97   C     C_R   0.614584 0.996193 0.949664 -0.179999
C98   C     C_R   0.385368 0.003540 0.050325 -0.161995
C99   C     C_R   0.385371 0.003529 0.950002 -0.179965
C100  C     C_R   0.614577 0.996104 0.049975 -0.178720
H9    H     H_    0.900228 0.501432 0.758062 0.134007
H10   H     H_    0.099737 0.500694 0.241776 0.132355
H11   H     H_    0.099729 0.497926 0.757848 0.133421
H12   H     H_    0.900239 0.499631 0.242256 0.139418
H13   H     H_    0.400254 0.002939 0.758010 0.144649
H14   H     H_    0.599697 0.996336 0.241886 0.132708
H15   H     H_    0.599733 0.997107 0.757769 0.147260
H16   H     H_    0.400247 0.003149 0.242306 0.153504
H17   H     H_    0.159337 0.498663 0.911956 0.168086
H18   H     H_    0.840608 0.500971 0.088065 0.170601
H19   H     H_    0.840610 0.501408 0.912455 0.168580
H20   H     H_    0.159340 0.499338 0.087548 0.171684
H21   H     H_    0.659263 0.994737 0.911955 0.165540
H22   H     H_    0.340686 0.004946 0.088026 0.175342
H23   H     H_    0.340692 0.004949 0.912424 0.165747
H24   H     H_    0.659253 0.994603 0.087549 0.163856
N5    N     N_3   0.192401 0.575321 0.631236 -0.375586
H25   H     H_    0.157718 0.585322 0.682074 0.208794
H26   H     H_    0.183899 0.531282 0.600099 0.189932
N6    N     N_3   0.792832 0.441987 0.581118 -0.372548
H27   H     H_    0.798965 0.474209 0.525246 0.182336
H28   H     H_    0.823829 0.453323 0.636475 0.214183
N7    N     N_3   0.807304 0.572132 0.381915 -0.459614
H29   H     H_    0.760260 0.557515 0.387578 0.236786
H30   H     H_    0.822508 0.576138 0.311280 0.251005
N8    N     N_3   0.203596 0.435923 0.400604 -0.368029
H31   H     H_    0.200721 0.470942 0.452951 0.174298
H32   H     H_    0.170620 0.445180 0.347100 0.218585
N9    N     N_3   0.704225 0.059455 0.407322 -0.366547
H33   H     H_    0.694687 0.022408 0.454657 0.185239
H34   H     H_    0.673518 0.056780 0.349175 0.206842
N10   N     N_3   0.292607 0.935644 0.403411 -0.378639
H35   H     H_    0.322649 0.971830 0.425568 0.172558
H36   H     H_    0.248784 0.947186 0.433165 0.209837
N11   N     N_3   0.306423 0.065070 0.612896 -0.451474
H37   H     H_    0.303665 0.076489 0.685294 0.245257
H38   H     H_    0.269984 0.035577 0.589619 0.235473
N12   N     N_3   0.687840 0.928196 0.628792 -0.446549
H39   H     H_    0.688897 0.911158 0.698787 0.240523
H40   H     H_    0.723552 0.960803 0.613712 0.247467
Cl1   Cl    Cl    0.319144 0.591454 0.669764 -0.594000
Cl2   Cl    Cl    0.685828 0.403995 0.677164 -0.602845
Cl3   Cl    Cl    0.726778 0.636766 0.246439 -0.668732
Cl4   Cl    Cl    0.295721 0.386715 0.282837 -0.606185
Cl5   Cl    Cl    0.827787 0.083754 0.361116 -0.589213
Cl6   Cl    Cl    0.218331 0.876636 0.263199 -0.553349
Cl7   Cl    Cl    0.182281 0.095890 0.680706 -0.665499
Cl8   Cl    Cl    0.811660 0.898032 0.698738 -0.654811
N13   N     N_3   0.908773 0.196084 0.371906 -0.449915
H41   H     H_    0.902112 0.185356 0.299785 0.241101
H42   H     H_    0.932060 0.158492 0.405130 0.244877
N14   N     N_3   0.127940 0.774803 0.288625 -0.376296
H43   H     H_    0.084638 0.778325 0.324142 0.196844
H44   H     H_    0.128916 0.733370 0.248093 0.201681
N15   N     N_3   0.101681 0.206855 0.663485 -0.450664
H45   H     H_    0.113847 0.201847 0.735401 0.244448
H46   H     H_    0.075893 0.167284 0.641645 0.247037
N16   N     N_3   0.890979 0.785893 0.683164 -0.449466
H47   H     H_    0.874340 0.787891 0.753383 0.242505
H48   H     H_    0.918540 0.825865 0.669138 0.249953
N17   N     N_3   0.399741 0.705033 0.660642 -0.448301
H49   H     H_    0.386930 0.698816 0.732133 0.240062
H50   H     H_    0.425705 0.665800 0.638104 0.246013
N18   N     N_3   0.600322 0.295680 0.653771 -0.450046
H51   H     H_    0.609469 0.302265 0.726403 0.243761
H52   H     H_    0.576880 0.335420 0.627138 0.241913
N19   N     N_3   0.634311 0.737283 0.280214 -0.449463
H53   H     H_    0.609087 0.694777 0.281511 0.240744
H54   H     H_    0.654888 0.743146 0.212912 0.247903
N20   N     N_3   0.384130 0.281198 0.310238 -0.450729
H55   H     H_    0.368500 0.281667 0.239484 0.242775
H56   H     H_    0.409352 0.322721 0.323832 0.241080

loop_
_geom_bond_atom_site_label_1
_geom_bond_atom_site_label_2
_geom_bond_distance
_ccdc_geom_bond_type
C26   N6    1.436539 S    
N16   H47   1.045594 S    
C83   C89   1.408285 A    
O5    Zn2   2.012012 S    
N7    H30   1.043690 S    
C31   N11   1.434804 S    
C14   C22   1.383365 A    
C23   C31   1.397398 A    
N9    H33   1.045752 S    
C47   C55   1.416257 A    
C29   C37   1.412749 A    
C91   C92   1.418251 A    
N11   H38   1.044483 S    
C78   N4    1.366068 A    
N13   H41   1.045627 S    
O10   C6    1.281361 A    
C68   N16   1.439020 S    
O13   C7    1.279688 A    
C94   C95   1.405634 A    
O7    Zn2   2.013192 S    
N20   H56   1.045620 S    
O12   Zn4   2.015034 S    
C54   C69   1.403340 A    
C27   C35   1.413940 A    
N10   H35   1.042731 S    
C75   C81   1.410408 A    
C39   C63   1.428019 A    
C53   C70   1.403678 A    
C38   C62   1.416028 A    
C82   C94   1.405866 A    
C78   H14   1.082159 S    
O6    Zn1   2.012009 S    
C98   H22   1.083379 S    
N12   H39   1.044779 S    
O10   Zn4   2.015156 S    
C46   C54   1.412492 A    
C57   Cl1   1.775962 S    
C83   C95   1.405974 A    
N14   H43   1.045387 S    
C42   C50   1.414982 A    
O3    C2    1.284236 A    
C28   C36   1.408027 A    
O14   C8    1.280772 A    
C64   Cl8   1.775055 S    
C75   H11   1.081884 S    
C16   C56   1.378823 A    
C10   C50   1.383700 A    
C33   C41   1.427541 A    
C41   C46   1.399331 A    
N8    H32   1.043421 S    
C7    C22   1.426807 S    
C93   H17   1.083384 S    
N17   H50   1.045454 S    
C35   C43   1.432500 A    
C93   C96   1.405406 A    
C65   N13   1.438675 S    
C36   C44   1.430693 A    
O13   Zn4   2.012012 S    
C99   H23   1.083388 S    
O14   Zn3   2.012009 S    
C15   C23   1.377006 A    
Zn2   N2    2.001213 S    
C59   C71   1.396430 A    
C27   N7    1.436397 S    
Zn1   N1    2.001212 S    
C97   C100  1.405476 A    
C71   N19   1.438924 S    
C85   C97   1.405797 A    
C24   C32   1.399896 A    
O16   Zn3   2.013195 S    
C11   C51   1.384305 A    
C77   N3    1.366212 A    
Zn3   N3    2.001212 S    
N19   H53   1.045806 S    
O1    Zn1   2.015156 S    
C8    C21   1.427638 S    
N5    H26   1.045220 S    
C26   C34   1.410035 A    
C15   H7    1.084920 S    
C21   C29   1.401227 A    
N9    H34   1.044322 S    
C38   C46   1.425353 A    
C9    C49   1.383079 A    
N13   H42   1.045680 S    
C79   C85   1.410568 A    
O8    C3    1.278525 A    
N15   H46   1.045527 S    
N20   H55   1.045461 S    
C30   N10   1.444890 S    
C100  H24   1.083361 S    
C44   C47   1.401587 A    
C59   Cl3   1.774606 S    
O3    Zn1   2.015034 S    
C74   C84   1.410320 A    
C60   Cl4   1.776782 S    
C12   C52   1.385207 A    
C45   C53   1.415111 A    
C32   N12   1.434496 S    
N11   H37   1.044659 S    
C80   H16   1.082882 S    
C9    H1    1.082833 S    
N18   H51   1.045581 S    
C67   N15   1.439088 S    
C34   C42   1.431571 A    
C62   C66   1.392251 A    
C28   N8    1.436612 S    
O12   C5    1.282667 A    
C94   H18   1.083412 S    
C58   C70   1.397757 A    
C80   N4    1.366277 A    
C1    C20   1.429603 S    
C30   C38   1.407999 A    
C60   C72   1.395935 A    
C33   C57   1.422634 A    
C2    C19   1.432765 S    
C74   H10   1.081396 S    
C86   C98   1.405914 A    
C3    C18   1.425420 S    
C80   C86   1.410890 A    
C5    C24   1.436915 S    
C35   C59   1.421663 A    
C39   C47   1.435538 A    
C87   C99   1.405912 A    
C6    C23   1.431488 S    
C11   C19   1.379823 A    
O11   Zn3   2.015034 S    
C69   N17   1.437930 S    
C62   Cl6   1.774554 S    
C70   N18   1.438687 S    
O2    Zn2   2.015156 S    
C95   H19   1.083357 S    
C96   H20   1.083395 S    
C89   C90   1.418070 A    
C84   C90   1.408191 A    
C55   C72   1.403942 A    
C22   C30   1.404337 A    
C76   C82   1.410718 A    
O4    C1    1.279384 A    
C13   C53   1.381811 A    
O15   C8    1.280254 A    
C12   H4    1.084773 S    
C43   C51   1.413271 A    
N17   H49   1.045583 S    
O16   C7    1.281418 A    
C87   C91   1.408407 A    
C12   C20   1.380228 A    
N8    H31   1.045226 S    
C73   C83   1.410736 A    
C37   C61   1.423830 A    
C16   C24   1.379083 A    
C31   C39   1.421041 A    
C17   C25   1.406244 A    
C86   C92   1.408492 A    
C52   C67   1.401977 A    
C72   N20   1.438652 S    
O9    Zn3   2.015156 S    
C19   C27   1.396478 A    
C41   C49   1.415208 A    
C20   C28   1.400481 A    
C43   C48   1.401657 A    
N16   H48   1.045481 S    
C76   H12   1.082060 S    
C42   C45   1.400931 A    
C78   C88   1.410540 A    
C88   C100  1.405882 A    
C57   C69   1.399790 A    
C79   N3    1.366062 A    
C66   N14   1.437259 S    
C15   C55   1.379342 A    
N6    H28   1.044407 S    
O2    C2    1.279798 A    
C63   C67   1.401068 A    
O4    Zn2   2.015034 S    
C16   H8    1.084646 S    
O5    C3    1.281542 A    
C73   H9    1.082288 S    
C48   C56   1.414068 A    
O6    C4    1.282737 A    
O11   C6    1.281314 A    
O1    C1    1.283219 A    
C36   C60   1.419782 A    
C63   Cl7   1.775096 S    
C75   N1    1.365964 A    
C13   C21   1.378526 A    
C77   H13   1.082630 S    
N10   H36   1.046025 S    
C98   C99   1.405636 A    
C85   C91   1.408473 A    
C61   Cl5   1.776988 S    
N15   H45   1.045550 S    
C10   H2    1.085068 S    
N5    H25   1.044507 S    
O8    Zn1   2.013195 S    
C76   N2    1.366123 A    
C4    C17   1.438062 S    
C40   C64   1.427334 A    
O9    C5    1.282897 A    
O15   Zn4   2.013192 S    
C64   C68   1.400598 A    
N12   H40   1.044292 S    
C11   H3    1.084502 S    
C81   C93   1.405800 A    
C14   H6    1.084918 S    
C34   C58   1.421849 A    
N14   H44   1.045650 S    
C25   N5    1.435204 S    
C97   H21   1.083412 S    
C44   C52   1.412832 A    
C79   H15   1.082431 S    
N19   H54   1.045520 S    
C18   C26   1.399636 A    
N18   H52   1.045840 S    
C74   N2    1.365983 A    
C56   C71   1.403064 A    
C25   C33   1.409944 A    
C51   C68   1.402237 A    
C82   C90   1.408351 A    
C81   C89   1.408336 A    
N6    H27   1.045530 S    
C40   C48   1.434640 A    
C32   C40   1.421086 A    
O7    C4    1.283941 A    
C84   C96   1.405841 A    
C29   N9    1.435805 S    
C9    C17   1.384691 A    
N7    H29   1.045377 S    
C58   Cl2   1.777062 S    
C77   C87   1.410755 A    
C14   C54   1.384086 A    
C10   C18   1.378547 A    
C13   H5    1.085109 S    
C50   C65   1.403309 A    
C73   N1    1.366247 A    
Zn4   N4    2.001213 S    
C61   C65   1.399150 A    
C49   C66   1.411113 A    
C88   C92   1.408347 A    
C37   C45   1.432263 A    
