data_mof_unit_24714.cif
_audit_creation_date              2012-12-10T19:15:19-0500
_audit_creation_method            fapswitch 2.2
_symmetry_space_group_name_H-M    P1
_symmetry_Int_Tables_number       1
_space_group_crystal_system       triclinic
_cell_length_a                    10.988121
_cell_length_b                    9.872844
_cell_length_c                    23.041045
_cell_angle_alpha                 89.457866
_cell_angle_beta                  87.903275
_cell_angle_gamma                 89.235358
_cell_volume                      2497.58816523

loop_
_atom_site_label
_atom_site_type_symbol
_atom_type_description
_atom_site_fract_x
_atom_site_fract_y
_atom_site_fract_z
_atom_type_partial_charge
C1    C     C_R   0.257626 0.499760 0.501748 0.957924
C2    C     C_R   0.274377 0.311401 0.975679 -0.082494
C3    C     C_R   0.266522 0.312780 0.036437 -0.018892
C4    C     C_R   0.317116 0.423273 0.066339 -0.102050
C5    C     C_R   0.356937 0.539228 0.034381 0.010476
C6    C     C_R   0.397494 0.655986 0.063203 -0.098192
C7    C     C_R   0.427112 0.774661 0.030231 -0.041275
C8    C     C_R   0.435237 0.766933 0.969642 -0.084089
C9    C     C_R   0.337776 0.419606 0.126292 0.521207
C10   C     C_R   0.414876 0.645206 0.123256 0.506413
C11   C     C_R   0.535635 0.481782 0.226613 -0.051819
C12   C     C_R   0.499886 0.500918 0.389404 0.877243
C13   C     C_R   0.567473 0.476723 0.284948 -0.085295
C14   C     C_R   0.476460 0.505032 0.327993 -0.119226
C15   C     C_R   0.358457 0.542309 0.312663 -0.139834
C16   C     C_R   0.328343 0.547558 0.254870 -0.093289
C17   C     C_R   0.416652 0.517024 0.211959 0.274918
C18   C     C_R   0.345097 0.587324 0.752823 0.009979
C19   C     C_R   0.380425 0.583150 0.694360 -0.209860
C20   C     C_R   0.476893 0.500007 0.674004 -0.070530
C21   C     C_R   0.541896 0.418977 0.713598 -0.078172
C22   C     C_R   0.509563 0.427676 0.772836 -0.070274
C23   C     C_R   0.742006 0.498938 0.498452 0.789998
C24   C     C_R   0.412665 0.510818 0.792474 0.244493
C25   C     C_3   0.063681 0.554283 0.564640 -0.184457
C26   C     C_3   0.073708 0.341106 0.492116 -0.104102
C27   C     C_3   0.918439 0.574131 0.558487 -0.153804
C28   C     C_3   0.927792 0.340531 0.497370 -0.097589
C29   C     C_3   0.071932 0.587508 0.453651 -0.387218
C30   C     C_3   0.119909 0.494978 0.504120 -0.023235
C31   C     C_3   0.878327 0.494632 0.501336 -0.142048
C32   C     C_3   0.934726 0.569635 0.446859 -0.454535
C33   C     C_3   0.381343 0.080655 0.482599 -0.239391
C34   C     C_3   0.387281 0.922580 0.474826 -0.240108
C35   C     C_3   0.594364 0.080226 0.456908 -0.173134
C36   C     C_3   0.604380 0.918546 0.462582 -0.185636
C37   C     C_3   0.528857 0.076260 0.557281 -0.128285
C38   C     C_3   0.515864 0.916361 0.558266 -0.121227
C39   C     C_R   0.500435 0.499333 0.611001 0.878584
C40   C     C_R   0.421747 0.637526 0.880879 0.590972
C41   C     C_R   0.338906 0.415141 0.883521 0.580190
C42   C     C_R   0.324491 0.419970 0.944092 -0.067898
C43   C     C_R   0.361062 0.536338 0.973248 -0.007913
C44   C     C_R   0.406368 0.647836 0.941181 -0.057511
H1    H     H_    0.239615 0.225412 0.952853 0.228404
H2    H     H_    0.328373 0.641309 0.663752 0.152561
H3    H     H_    0.559687 0.369868 0.804499 0.190681
H4    H     H_    0.890586 0.669196 0.439063 0.234141
H5    H     H_    0.920950 0.514857 0.405982 0.191331
H6    H     H_    0.313488 0.100617 0.517113 0.246290
H7    H     H_    0.305679 0.876064 0.495104 0.271955
H8    H     H_    0.683014 0.120162 0.468804 0.186450
H9    H     H_    0.690597 0.896188 0.485198 0.178578
H10   H     H_    0.462245 0.855563 0.944458 0.228102
H11   H     H_    0.289768 0.568266 0.345653 0.164495
N1    N     N_R   0.389009 0.521966 0.853590 -0.339548
N2    N     N_R   0.386921 0.528309 0.152439 -0.339247
N3    N     N_3   0.499750 0.138610 0.498760 -0.109985
N4    N     N_3   0.499750 0.861390 0.498760 -0.114652
O1    O     O_R   0.314910 0.616040 0.499990 -0.610744
O2    O     O_R   0.314910 0.383960 0.499990 -0.613905
O3    O     O_R   0.500080 0.616070 0.416130 -0.634550
O4    O     O_R   0.500080 0.383930 0.416130 -0.589493
O5    O     O_R   0.685320 0.616040 0.499970 -0.594837
O6    O     O_R   0.685320 0.383960 0.499970 -0.681670
O7    O     O_R   0.500150 0.616010 0.583820 -0.637387
O8    O     O_R   0.500150 0.383990 0.583820 -0.607730
O9    O     O_2   0.470457 0.741173 0.849673 -0.528530
O10   O     O_2   0.304510 0.304425 0.854687 -0.509777
O11   O     O_2   0.316637 0.306349 0.158026 -0.559995
O12   O     O_2   0.465997 0.746612 0.152227 -0.565696
Zn1   Zn    Zn3+2 0.500150 0.654960 0.499970 0.973476
Zn2   Zn    Zn3+2 0.500150 0.345040 0.499970 0.974712
C45   C     C_2   0.643867 0.327418 0.694920 0.461553
H12   H     H_    0.660139 0.303039 0.649675 0.036929
O13   O     O_2   0.710828 0.275807 0.730302 -0.488448
C46   C     C_2   0.119300 0.689263 0.582261 0.527962
H13   H     H_    0.139035 0.707635 0.627362 0.106413
O14   O     O_2   0.132117 0.783716 0.548365 -0.554111
C47   C     C_2   0.125135 0.288964 0.432358 0.407839
H14   H     H_    0.107614 0.185991 0.419347 0.166593
O15   O     O_2   0.193019 0.353857 0.400004 -0.620994
C48   C     C_2   0.099684 0.461329 0.615046 0.277856
H15   H     H_    0.034892 0.412959 0.644315 0.225608
O16   O     O_2   0.206751 0.443589 0.625676 -0.594805
C49   C     C_2   0.121813 0.232148 0.533028 0.404091
H16   H     H_    0.182809 0.254658 0.566289 0.207307
O17   O     O_2   0.092557 0.113611 0.528166 -0.510732
C50   C     C_2   0.845075 0.528715 0.612727 0.513679
H17   H     H_    0.766486 0.466272 0.608699 0.020931
O18   O     O_2   0.866659 0.572335 0.660728 -0.527620
C51   C     C_2   0.874290 0.255007 0.548809 0.493048
H18   H     H_    0.802070 0.184919 0.541803 0.093214
O19   O     O_2   0.910999 0.259729 0.597938 -0.596752
C52   C     C_2   0.883572 0.726650 0.551577 0.512384
H19   H     H_    0.920098 0.786403 0.515599 0.125492
O20   O     O_2   0.817195 0.786443 0.586866 -0.558521
C53   C     C_2   0.878693 0.269964 0.443632 0.333994
H20   H     H_    0.827576 0.325033 0.411719 0.129391
O21   O     O_2   0.894991 0.148467 0.436109 -0.553122
H21   H     H_    0.090129 0.695629 0.460242 0.225633
H22   H     H_    0.119319 0.569476 0.411353 0.214469
H23   H     H_    0.346687 0.131513 0.443298 0.150739
H24   H     H_    0.380968 0.898365 0.428113 0.108814
C54   C     C_2   0.198802 0.201338 0.066406 0.494213
H25   H     H_    0.151682 0.217955 0.107910 0.131229
O22   O     O_2   0.191273 0.090272 0.043999 -0.570622
C55   C     C_2   0.576684 0.126534 0.394685 0.495146
H26   H     H_    0.491997 0.108768 0.373491 0.053894
O23   O     O_2   0.659915 0.178905 0.366531 -0.557032
C56   C     C_2   0.621737 0.849885 0.404299 0.555503
H27   H     H_    0.550269 0.853256 0.373062 0.045451
O24   O     O_2   0.717654 0.792750 0.390847 -0.586714
H28   H     H_    0.625667 0.096863 0.565254 0.062795
H29   H     H_    0.602545 0.873725 0.574381 0.150376
C57   C     C_2   0.464176 0.136379 0.610509 0.533258
H30   H     H_    0.508938 0.130578 0.651578 0.026565
O25   O     O_2   0.359896 0.179153 0.610286 -0.509285
C58   C     C_2   0.421569 0.867950 0.603230 0.467850
H31   H     H_    0.452894 0.821433 0.642840 0.057695
O26   O     O_2   0.313821 0.895654 0.599794 -0.524679
C59   C     C_2   0.443954 0.909548 0.056765 0.577055
H32   H     H_    0.397858 0.935458 0.097624 0.134149
O27   O     O_2   0.506580 0.995483 0.032184 -0.542823
H33   H     H_    0.603118 0.461548 0.192217 0.182570
C60   C     C_2   0.695429 0.449043 0.300192 0.553719
H34   H     H_    0.722777 0.459266 0.344619 0.028106
O28   O     O_2   0.772175 0.415548 0.263226 -0.533712
H35   H     H_    0.236996 0.576837 0.243281 0.155529
C61   C     C_2   0.236513 0.670844 0.770037 0.516305
H36   H     H_    0.197364 0.740160 0.738739 0.075642
O29   O     O_2   0.187443 0.661439 0.818265 -0.523464

loop_
_geom_bond_atom_site_label_1
_geom_bond_atom_site_label_2
_ccdc_geom_bond_type
C33   N3    S    
C41   C42   A    
C27   C52   S    
C52   H19   S    
C36   N4    S    
C19   H2    S    
C7    C8    A    
C37   C57   S    
C46   H13   S    
C3    C54   S    
C54   O22   D    
C34   H7    S    
C60   H34   S    
C45   O13   D    
C35   N3    S    
C18   C24   A    
C11   H33   S    
C37   C38   S    
C29   C32   S    
C2    C3    A    
C5    C6    A    
C49   O17   D    
O1    Zn1   S    
C15   C16   A    
O6    Zn2   S    
C55   H26   S    
C18   C19   A    
C51   H18   S    
C36   H9    S    
O7    Zn1   S    
C31   C32   S    
C55   O23   D    
C16   C17   A    
C40   N1    A    
O8    Zn2   S    
C50   O18   D    
C9    N2    A    
C37   N3    S    
N4    Zn1   S    
C10   O12   S    
C46   O14   D    
C22   H3    S    
C5    C43   A    
C21   C22   A    
C32   H4    S    
C58   O26   D    
C2    H1    S    
C45   H12   S    
C27   C31   S    
C10   N2    A    
C9    O11   S    
C28   C51   S    
C1    O1    A    
C8    H10   S    
C12   O4    A    
C49   H16   S    
C4    C5    A    
C37   H28   S    
O4    Zn2   S    
O2    Zn2   S    
C33   H6    S    
C21   C45   S    
C26   C47   S    
C35   C36   S    
C23   C31   S    
C61   O29   D    
C43   C44   A    
C41   N1    A    
C29   C30   S    
C12   O3    A    
C48   H15   S    
C26   C49   S    
C36   C56   S    
C51   O19   D    
C33   C34   S    
C29   H21   S    
C56   O24   D    
C16   H35   S    
C13   C60   S    
C47   O15   D    
C23   O5    A    
C48   O16   D    
C12   C14   S    
C26   C30   S    
C53   O21   D    
C34   N4    S    
C39   O7    A    
C25   C46   S    
C18   C61   S    
C24   N1    S    
C42   C43   A    
C38   C58   S    
C7    C59   S    
C59   O27   D    
C3    C4    A    
C41   O10   S    
C35   C55   S    
C28   C53   S    
C25   C30   S    
C20   C39   S    
C11   C17   A    
C60   O28   D    
C56   H27   S    
C33   H23   S    
C39   O8    A    
C28   C31   S    
C8    C44   A    
C47   H14   S    
C1    O2    A    
C6    C10   A    
C58   H31   S    
C52   O20   D    
C59   H32   S    
C6    C7    A    
C25   C27   S    
C54   H25   S    
C26   C28   S    
O3    Zn1   S    
C23   O6    A    
C19   C20   A    
C61   H36   S    
C50   H17   S    
C38   H29   S    
C11   C13   A    
C2    C42   A    
C57   H30   S    
C1    C30   S    
C57   O25   D    
C29   H22   S    
C27   C50   S    
C22   C24   A    
O5    Zn1   S    
C34   H24   S    
C32   H5    S    
C38   N4    S    
C40   C44   A    
C20   C21   A    
C53   H20   S    
C40   O9    S    
C17   N2    S    
C35   H8    S    
C25   C48   S    
C14   C15   A    
C4    C9    A    
C13   C14   A    
N3    Zn2   S    
C15   H11   S    
