data_mof_unit_52721.cif
_audit_creation_date              2012-12-10T16:57:09-0500
_audit_creation_method            fapswitch 2.2
_symmetry_space_group_name_H-M    P1
_symmetry_Int_Tables_number       1
_space_group_crystal_system       triclinic
_cell_length_a                    7.759274
_cell_length_b                    8.564074
_cell_length_c                    17.046543
_cell_angle_alpha                 91.88592
_cell_angle_beta                  81.725369
_cell_angle_gamma                 93.680722
_cell_volume                      1118.33366661

loop_
_atom_site_label
_atom_site_type_symbol
_atom_type_description
_atom_site_fract_x
_atom_site_fract_y
_atom_site_fract_z
_atom_type_partial_charge
C1    C     C_R   0.546147 0.794756 0.497864 0.981647
C2    C     C_R   0.431742 0.590339 0.226887 0.134526
C3    C     C_R   0.592198 0.433374 0.850900 -0.145151
C4    C     C_R   0.407815 0.566628 0.149098 -0.145147
C5    C     C_R   0.521932 0.560371 0.894804 0.023796
C6    C     C_R   0.478085 0.439633 0.105194 0.023793
C7    C     C_R   0.430404 0.670781 0.860419 -0.033449
C8    C     C_R   0.569609 0.329222 0.139580 -0.033452
C9    C     C_R   0.411179 0.650903 0.779774 0.136868
C10   C     C_R   0.588825 0.349096 0.220226 0.136876
C11   C     C_2   0.528337 0.563549 0.979225 -0.190222
C12   C     C_R   0.453853 0.205244 0.502136 0.981647
C13   C     C_2   0.471683 0.436455 0.020773 -0.190231
C14   C     C_2   0.353848 0.802457 0.909791 0.478247
C15   C     C_2   0.646171 0.197547 0.090207 0.478249
C16   C     C_2   0.570509 0.958206 0.496742 -0.310984
C17   C     C_2   0.429491 0.041794 0.503259 -0.310985
C18   C     C_R   0.480025 0.504380 0.652909 0.931222
C19   C     C_R   0.519975 0.495620 0.347091 0.931222
C20   C     C_R   0.479150 0.518613 0.737140 -0.170799
C21   C     C_R   0.520851 0.481385 0.262860 -0.170803
C22   C     C_R   0.568263 0.409661 0.773112 0.134526
H1    H     H_    0.425635 0.329570 0.992205 0.167714
H2    H     H_    0.578140 0.142564 0.044282 0.038483
H3    H     H_    0.574383 0.670435 0.007792 0.167714
H4    H     H_    0.338264 0.650900 0.121652 0.175008
H5    H     H_    0.661751 0.349104 0.878345 0.175006
H6    H     H_    0.703679 0.009219 0.490585 0.191054
H7    H     H_    0.296320 0.990781 0.509415 0.191054
H8    H     H_    0.022930 0.381741 0.439978 0.207908
H9    H     H_    0.977069 0.618259 0.560022 0.207908
H10   H     H_    0.421893 0.857454 0.955709 0.038484
I1    I     I_    0.668204 0.203210 0.715086 -0.291286
I2    I     I_    0.331795 0.796788 0.284913 -0.291276
I3    I     I_    0.698863 0.170632 0.280010 -0.231921
I4    I     I_    0.301131 0.829365 0.719993 -0.231927
N1    N     N_2   0.953500 0.457650 0.478520 -0.157211
N2    N     N_2   0.046500 0.542350 0.521480 -0.157211
O1    O     O_R   0.388470 0.738640 0.505270 -0.603530
O2    O     O_2   0.789287 0.153574 0.097725 -0.508251
O3    O     O_R   0.611530 0.261360 0.494730 -0.603530
O4    O     O_R   0.679650 0.711510 0.491500 -0.628037
O5    O     O_R   0.320350 0.288490 0.508500 -0.628037
O6    O     O_R   0.337210 0.515200 0.623500 -0.592360
O7    O     O_R   0.662790 0.484800 0.376500 -0.592361
O8    O     O_R   0.628380 0.488060 0.609730 -0.611901
O9    O     O_R   0.371620 0.511940 0.390270 -0.611900
O10   O     O_2   0.210721 0.846417 0.902282 -0.508252
Zn1   Zn    Zn3+2 0.305580 0.518120 0.509190 1.008630
Zn2   Zn    Zn3+2 0.694420 0.481880 0.490810 1.008630

loop_
_geom_bond_atom_site_label_1
_geom_bond_atom_site_label_2
_ccdc_geom_bond_type
C12   C17   S    
C16   H6    S    
C9    I4    S    
C4    H4    S    
C1    O4    A    
C19   O7    A    
N1    N2    D    
C18   O6    A    
C8    C15   S    
C17   H7    S    
O8    Zn2   S    
C9    C20   A    
C2    C4    A    
H9    N2    S    
C2    I2    S    
C2    C21   A    
C3    H5    S    
O9    Zn1   S    
C1    C16   S    
C6    C13   S    
N1    Zn2   S    
C11   C13   D    
C10   I3    S    
O7    Zn2   S    
O4    Zn2   S    
C14   O10   D    
C18   O8    A    
C4    C6    A    
C15   H2    S    
O1    Zn1   S    
C20   C22   A    
C5    C11   S    
C12   O5    A    
C18   C20   S    
C7    C14   S    
C10   C21   A    
C19   O9    A    
C15   O2    D    
C11   H3    S    
C7    C9    A    
O3    Zn2   S    
N2    Zn1   S    
C13   H1    S    
C12   O3    A    
C8    C10   A    
C5    C7    A    
C22   I1    S    
C1    O1    A    
O5    Zn1   S    
C3    C22   A    
C6    C8    A    
C19   C21   S    
O6    Zn1   S    
H8    N1    S    
C14   H10   S    
C16   C17   D    
C3    C5    A    
