data_mof_unit_9301.cif
_audit_creation_date              2013-03-05T15:51:42-0500
_audit_creation_method            fapswitch 2.2
_symmetry_space_group_name_H-M    P1
_symmetry_Int_Tables_number       1
_space_group_crystal_system       triclinic
_cell_length_a                    30.132772
_cell_length_b                    22.524426
_cell_length_c                    18.119898
_cell_angle_alpha                 90.023206
_cell_angle_beta                  123.6376
_cell_angle_gamma                 89.759073
_cell_volume                      10239.0111041

loop_
_atom_site_label
_atom_site_type_symbol
_atom_site_description
_atom_site_fract_x
_atom_site_fract_y
_atom_site_fract_z
_atom_type_partial_charge
C1    C     C_R   0.545102 0.581771 0.742770 -0.096500
C2    C     C_R   0.458978 0.411342 0.265031 -0.093908
C3    C     C_R   0.455863 0.582041 0.258117 -0.067652
C4    C     C_R   0.541676 0.411425 0.735721 -0.085195
C5    C     C_R   0.044634 0.081598 0.742352 -0.023843
C6    C     C_R   0.962327 0.904047 0.273770 -0.046102
C7    C     C_R   0.955723 0.083942 0.258977 -0.076195
C8    C     C_R   0.040601 0.906445 0.730962 -0.087018
H1    H     H_    0.519479 0.576970 0.766382 0.168665
H2    H     H_    0.486982 0.408398 0.245886 0.135388
H3    H     H_    0.482809 0.578450 0.236947 0.161255
H4    H     H_    0.514124 0.408533 0.755891 0.130509
H5    H     H_    0.019173 0.076995 0.766595 0.143998
H6    H     H_    0.992730 0.896165 0.260702 0.126610
H7    H     H_    0.982302 0.081883 0.236891 0.161979
H8    H     H_    0.013130 0.901988 0.750909 0.133908
N1    N     N_R   0.532910 0.558440 0.665240 -0.057322
N2    N     N_R   0.467090 0.441560 0.334760 -0.052770
N3    N     N_R   0.467090 0.558440 0.334760 -0.056805
N4    N     N_R   0.532910 0.441560 0.665240 -0.052526
N5    N     N_R   0.032910 0.058440 0.665240 -0.059840
N6    N     N_R   0.967090 0.941560 0.334760 -0.055758
N7    N     N_R   0.967090 0.058440 0.334760 -0.055903
N8    N     N_R   0.032910 0.941560 0.665240 -0.054956
C9    C     C_R   0.644414 0.582301 0.574118 -0.125591
C10   C     C_R   0.370854 0.394056 0.425223 -0.107703
C11   C     C_R   0.373929 0.608739 0.425240 -0.115864
C12   C     C_R   0.628696 0.393340 0.575116 -0.108350
C13   C     C_R   0.144517 0.082050 0.574202 -0.126274
C14   C     C_R   0.869258 0.895532 0.425229 -0.107773
C15   C     C_R   0.855635 0.083081 0.425763 -0.127824
C16   C     C_R   0.144368 0.916787 0.574433 -0.121950
H9    H     H_    0.678518 0.578610 0.641761 0.092034
H10   H     H_    0.342415 0.383166 0.356721 0.088720
H11   H     H_    0.347105 0.620614 0.356449 0.090265
H12   H     H_    0.656910 0.382293 0.643659 0.088822
H13   H     H_    0.178605 0.078246 0.641833 0.127524
H14   H     H_    0.839818 0.885499 0.356889 0.088266
H15   H     H_    0.821462 0.079714 0.358160 0.094838
H16   H     H_    0.178568 0.920044 0.642016 0.094205
N9    N     N_R   0.597030 0.558910 0.545540 -0.042044
N10   N     N_R   0.402970 0.441090 0.454460 -0.043118
N11   N     N_R   0.402970 0.558910 0.454460 -0.043026
N12   N     N_R   0.597030 0.441090 0.545540 -0.042458
N13   N     N_R   0.097030 0.058910 0.545540 -0.040929
N14   N     N_R   0.902970 0.941090 0.454460 -0.041691
N15   N     N_R   0.902970 0.058910 0.454460 -0.041662
N16   N     N_R   0.097030 0.941090 0.545540 -0.038417
C17   C     C_R   0.595201 0.582795 0.426546 -0.109671
C18   C     C_R   0.420983 0.392324 0.573114 -0.113854
C19   C     C_R   0.424235 0.610072 0.573269 -0.116656
C20   C     C_R   0.578764 0.391653 0.427424 -0.119900
C21   C     C_R   0.095447 0.082423 0.426695 -0.112551
C22   C     C_R   0.919321 0.893691 0.572966 -0.127146
C23   C     C_R   0.904807 0.083364 0.573345 -0.090697
C24   C     C_R   0.095646 0.917034 0.427072 -0.127419
H17   H     H_    0.583904 0.581079 0.358619 0.116073
H18   H     H_    0.437478 0.379905 0.640945 0.102840
H19   H     H_    0.443164 0.623023 0.641661 0.120576
H20   H     H_    0.562391 0.379004 0.359838 0.102941
H21   H     H_    0.084307 0.080500 0.358859 0.111021
H22   H     H_    0.934570 0.881992 0.640540 0.105006
H23   H     H_    0.916012 0.081689 0.641242 0.114872
H24   H     H_    0.085191 0.919393 0.359653 0.108237
N17   N     N_R   0.566200 0.559270 0.454460 -0.046011
N18   N     N_R   0.433800 0.440730 0.545540 -0.043512
N19   N     N_R   0.433800 0.559270 0.545540 -0.044143
N20   N     N_R   0.566200 0.440730 0.454460 -0.044262
N21   N     N_R   0.066200 0.059270 0.454460 -0.044264
N22   N     N_R   0.933800 0.940730 0.545540 -0.044610
N23   N     N_R   0.933800 0.059270 0.545540 -0.046884
N24   N     N_R   0.066200 0.940730 0.454460 -0.043798
C25   C     C_R   0.381944 0.582373 0.257499 -0.137825
C26   C     C_R   0.616234 0.410290 0.737703 -0.128238
C27   C     C_R   0.617896 0.584537 0.739934 -0.116758
C28   C     C_R   0.384243 0.410184 0.262467 -0.123184
C29   C     C_R   0.882351 0.085546 0.260819 -0.118333
C30   C     C_R   0.114324 0.903626 0.729578 -0.119980
C31   C     C_R   0.117580 0.084953 0.739393 -0.142945
C32   C     C_R   0.886185 0.904760 0.267818 -0.122518
H25   H     H_    0.340443 0.577330 0.233727 0.115295
H26   H     H_    0.657969 0.407409 0.761846 0.105835
H27   H     H_    0.659157 0.581746 0.761220 0.116452
H28   H     H_    0.342569 0.407079 0.238482 0.102802
H29   H     H_    0.840998 0.083262 0.239027 0.129351
H30   H     H_    0.154564 0.896297 0.747260 0.092919
H31   H     H_    0.158287 0.084981 0.758172 0.113188
H32   H     H_    0.844525 0.900292 0.243113 0.102666
N25   N     N_R   0.421050 0.559750 0.334770 -0.047936
N26   N     N_R   0.578950 0.440250 0.665230 -0.046172
N27   N     N_R   0.578950 0.559750 0.665230 -0.048097
N28   N     N_R   0.421050 0.440250 0.334770 -0.045819
N29   N     N_R   0.921050 0.059750 0.334770 -0.048222
N30   N     N_R   0.078950 0.940250 0.665230 -0.045854
N31   N     N_R   0.078950 0.059750 0.665230 -0.046355
N32   N     N_R   0.921050 0.940250 0.334770 -0.046815
C33   C     C_R   0.598255 0.600301 0.791258 0.103281
C34   C     C_R   0.407956 0.389141 0.219688 0.139037
C35   C     C_R   0.402220 0.598690 0.207329 0.101113
C36   C     C_R   0.593120 0.389581 0.781143 0.144959
C37   C     C_R   0.097751 0.099370 0.790841 0.099437
C38   C     C_R   0.911849 0.879561 0.230511 0.125496
C39   C     C_R   0.902388 0.102301 0.210608 0.092988
C40   C     C_R   0.090671 0.880286 0.771110 0.133564
C41   C     C_R   0.645013 0.597051 0.500738 0.036642
C42   C     C_R   0.382498 0.361388 0.498389 0.035333
C43   C     C_R   0.387418 0.642847 0.498472 0.033460
C44   C     C_R   0.616706 0.360090 0.502359 0.037081
C45   C     C_R   0.145280 0.096585 0.500962 0.035701
C46   C     C_R   0.880234 0.863366 0.498263 0.038561
C47   C     C_R   0.855053 0.098191 0.499059 0.033852
C48   C     C_R   0.145121 0.901632 0.501438 0.042499
Ni1   Ni    Ni4+2 0.483090 0.500000 0.604440 0.247035
Ni2   Ni    Ni4+2 0.516910 0.500000 0.395560 0.238778
Ni3   Ni    Ni4+2 0.983090 0.000000 0.604440 0.236337
Ni4   Ni    Ni4+2 0.016910 0.000000 0.395560 0.237571
Ni5   Ni    Ni4+2 0.586780 0.500000 0.604440 0.226859
Ni6   Ni    Ni4+2 0.413220 0.500000 0.395560 0.227501
Ni7   Ni    Ni4+2 0.086780 0.000000 0.604440 0.223797
Ni8   Ni    Ni4+2 0.913220 0.000000 0.395560 0.230785
C49   C     C_R   0.296508 0.775477 0.419676 -0.151038
C50   C     C_R   0.710126 0.230098 0.581794 -0.180161
C51   C     C_R   0.779886 0.657544 0.580663 -0.152511
C52   C     C_R   0.286199 0.235418 0.420871 -0.177794
C53   C     C_R   0.719984 0.159578 0.419266 -0.153278
C54   C     C_R   0.278699 0.835686 0.581418 -0.151468
C55   C     C_R   0.279974 0.157970 0.581342 -0.144029
C56   C     C_R   0.784302 0.737141 0.420166 -0.186175
H33   H     H_    0.257748 0.786715 0.361514 0.124710
H34   H     H_    0.750086 0.220421 0.637939 0.128096
H35   H     H_    0.810313 0.682055 0.638009 0.122538
H36   H     H_    0.245486 0.227275 0.366358 0.125511
H37   H     H_    0.689971 0.185460 0.362925 0.121944
H38   H     H_    0.307269 0.807717 0.636213 0.124031
H39   H     H_    0.310045 0.183033 0.638342 0.130424
H40   H     H_    0.743527 0.728974 0.365914 0.128683
C57   C     C_R   0.320682 0.723322 0.418484 -0.154898
C58   C     C_R   0.686907 0.283378 0.581284 -0.177602
C59   C     C_R   0.736650 0.636758 0.580444 -0.159024
C60   C     C_R   0.309571 0.288469 0.421978 -0.180907
C61   C     C_R   0.763904 0.140044 0.420116 -0.157277
C62   C     C_R   0.234392 0.855292 0.579375 -0.158609
C63   C     C_R   0.236589 0.137217 0.580747 -0.142610
C64   C     C_R   0.807250 0.790597 0.421739 -0.180364
H41   H     H_    0.300268 0.697162 0.358514 0.108604
H42   H     H_    0.709104 0.312198 0.638138 0.115822
H43   H     H_    0.735853 0.644343 0.638681 0.110313
H44   H     H_    0.286774 0.318941 0.367126 0.115273
H45   H     H_    0.765672 0.149815 0.363300 0.110258
H46   H     H_    0.230800 0.843387 0.633752 0.110341
H47   H     H_    0.235262 0.145484 0.638331 0.155309
H48   H     H_    0.784161 0.821381 0.367437 0.118044
C65   C     C_R   0.367326 0.702818 0.495999 0.132885
C66   C     C_R   0.638021 0.300986 0.505687 0.145818
C67   C     C_R   0.693131 0.611684 0.503372 0.131593
C68   C     C_R   0.360043 0.303440 0.495499 0.147012
C69   C     C_R   0.806765 0.112866 0.496145 0.132883
C70   C     C_R   0.193459 0.885893 0.505132 0.132282
C71   C     C_R   0.193545 0.111235 0.504007 0.119128
C72   C     C_R   0.857724 0.805534 0.495228 0.144782
C73   C     C_R   0.392730 0.738921 0.571717 -0.145741
C74   C     C_R   0.610275 0.261986 0.433730 -0.130014
C75   C     C_R   0.695947 0.602039 0.429524 -0.142558
C76   C     C_R   0.388483 0.262808 0.565378 -0.127352
C77   C     C_R   0.802853 0.100319 0.568202 -0.140064
C78   C     C_R   0.199443 0.901004 0.436007 -0.148020
C79   C     C_R   0.196957 0.100805 0.430929 -0.145555
C80   C     C_R   0.886716 0.764470 0.564262 -0.125770
H49   H     H_    0.429826 0.725391 0.631430 0.133621
H50   H     H_    0.571584 0.273740 0.375881 0.124413
H51   H     H_    0.663851 0.580754 0.370345 0.130451
H52   H     H_    0.428132 0.272906 0.621728 0.126204
H53   H     H_    0.834503 0.077384 0.626381 0.127630
H54   H     H_    0.169201 0.926451 0.379426 0.123489
H55   H     H_    0.165224 0.078807 0.372118 0.123620
H56   H     H_    0.926476 0.774512 0.620349 0.125028
C81   C     C_R   0.368499 0.791396 0.572798 -0.164380
C82   C     C_R   0.633618 0.208397 0.434265 -0.161887
C83   C     C_R   0.739358 0.623013 0.429737 -0.163496
C84   C     C_R   0.364954 0.209471 0.564320 -0.159139
C85   C     C_R   0.758686 0.119863 0.567286 -0.164879
C86   C     C_R   0.244062 0.881436 0.438146 -0.163029
C87   C     C_R   0.240487 0.121837 0.431452 -0.164448
C88   C     C_R   0.863725 0.710617 0.562537 -0.157539
H57   H     H_    0.757929 0.113650 0.625870 0.121285
H58   H     H_    0.246683 0.890478 0.381970 0.127948
H59   H     H_    0.240654 0.117754 0.372024 0.123772
H60   H     H_    0.885185 0.680769 0.618693 0.127013
H61   H     H_    0.386550 0.816396 0.633892 0.130202
H62   H     H_    0.613474 0.180639 0.375740 0.126000
H63   H     H_    0.739052 0.619640 0.369798 0.121072
H64   H     H_    0.385957 0.180082 0.621121 0.128665
C89   C     C_R   0.318417 0.807801 0.498525 0.104752
C90   C     C_R   0.685042 0.193821 0.506391 0.113935
C91   C     C_R   0.779835 0.654257 0.503391 0.111381
C92   C     C_R   0.312750 0.196703 0.493632 0.115933
C93   C     C_R   0.718522 0.152713 0.494820 0.110733
C94   C     C_R   0.282703 0.846130 0.508964 0.108340
C95   C     C_R   0.280579 0.153746 0.504754 0.102034
C96   C     C_R   0.811455 0.697866 0.492168 0.112666
C97   C     C_R   0.368110 0.617214 0.112260 -0.049892
C98   C     C_R   0.615391 0.344997 0.852154 -0.063174
C99   C     C_R   0.633105 0.619592 0.885760 -0.048358
C100  C     C_R   0.387395 0.342892 0.151326 -0.058637
C101  C     C_R   0.867215 0.122634 0.117039 -0.050366
C102  C     C_R   0.111200 0.831150 0.836086 -0.064157
C103  C     C_R   0.130942 0.120121 0.883977 -0.034933
C104  C     C_R   0.891638 0.831631 0.164167 -0.062555
C105  C     C_R   0.346955 0.632067 0.962490 -0.256697
C106  C     C_R   0.617500 0.293514 0.971520 -0.282025
C107  C     C_R   0.657766 0.630896 0.038079 -0.264120
C108  C     C_R   0.390640 0.284769 0.041818 -0.275792
C109  C     C_R   0.837295 0.128342 0.961594 -0.264595
C110  C     C_R   0.108217 0.769664 0.943232 -0.288409
C111  C     C_R   0.147016 0.165214 0.018575 -0.277164
C112  C     C_R   0.892857 0.774254 0.051882 -0.276626
C113  C     C_R   0.384205 0.617556 0.051976 0.372839
C114  C     C_R   0.602127 0.343043 0.915733 0.320079
C115  C     C_R   0.619110 0.617783 0.948724 0.379726
C116  C     C_R   0.405141 0.335827 0.094091 0.325688
C117  C     C_R   0.877588 0.115146 0.050268 0.371034
C118  C     C_R   0.094629 0.822505 0.894707 0.324647
C119  C     C_R   0.110768 0.144941 0.931762 0.371504
C120  C     C_R   0.907913 0.825049 0.104800 0.324753
C121  C     C_R   0.315346 0.633010 0.080170 -0.196215
C122  C     C_R   0.645159 0.298947 0.847921 -0.192860
C123  C     C_R   0.684839 0.637375 0.914740 -0.200257
C124  C     C_R   0.354372 0.300163 0.152428 -0.183439
C125  C     C_R   0.817494 0.145059 0.092627 -0.204100
C126  C     C_R   0.143935 0.788578 0.832237 -0.196574
C127  C     C_R   0.186248 0.118163 0.924995 -0.300825
C128  C     C_R   0.858962 0.788571 0.166389 -0.187244
C129  C     C_R   0.277212 0.643148 0.990348 0.121825
C130  C     C_R   0.660148 0.248914 0.902630 0.117289
C131  C     C_R   0.724492 0.646025 0.004184 0.121891
C132  C     C_R   0.339181 0.249196 0.099705 0.125581
C133  C     C_R   0.775750 0.152262 0.004326 0.122527
C134  C     C_R   0.158393 0.735740 0.881536 0.114703
C135  C     C_R   0.219346 0.154776 0.996359 0.093996
C136  C     C_R   0.843580 0.737485 0.113385 0.116916
C137  C     C_R   0.294197 0.646803 0.932175 0.122625
C138  C     C_R   0.647606 0.247731 0.967299 0.133135
C139  C     C_R   0.709794 0.646512 0.065588 0.127596
C140  C     C_R   0.355968 0.243238 0.041297 0.058090
C141  C     C_R   0.786901 0.148134 0.938648 0.129350
C142  C     C_R   0.140955 0.727436 0.939102 0.135463
C143  C     C_R   0.201081 0.171699 0.050137 0.167036
C144  C     C_R   0.859612 0.731854 0.053530 0.132659
C145  C     C_R   0.224143 0.658265 0.960337 0.046632
C146  C     C_R   0.693485 0.204009 0.902921 0.045108
C147  C     C_R   0.776846 0.662028 0.031432 0.043500
C148  C     C_R   0.301105 0.209378 0.094209 0.087025
C149  C     C_R   0.724945 0.171154 0.981889 0.043227
C150  C     C_R   0.195479 0.694832 0.884388 0.043965
C151  C     C_R   0.268583 0.177133 0.014025 -0.056953
C152  C     C_R   0.806986 0.695909 0.109707 0.045522
C153  C     C_R   0.700963 0.193672 0.832752 -0.074628
C154  C     C_R   0.200268 0.643203 0.007052 -0.064597
C155  C     C_R   0.289214 0.207092 0.160134 -0.074978
C156  C     C_R   0.798924 0.649776 0.980941 -0.060390
C157  C     C_R   0.209309 0.692061 0.820766 -0.079967
C158  C     C_R   0.706131 0.163263 0.038054 -0.054984
C159  C     C_R   0.795664 0.689479 0.175987 -0.078211
C160  C     C_R   0.284499 0.174645 0.952385 -0.020279
C161  C     C_R   0.747914 0.165512 0.851838 -0.283825
C162  C     C_R   0.158761 0.678436 0.995750 -0.296121
C163  C     C_R   0.237359 0.193829 0.134596 -0.303470
C164  C     C_R   0.840248 0.685239 0.992823 -0.290497
C165  C     C_R   0.258729 0.667605 0.845755 -0.278171
C166  C     C_R   0.667413 0.202064 0.029842 -0.292683
C167  C     C_R   0.746857 0.664697 0.152722 -0.281510
C168  C     C_R   0.331902 0.201553 0.973822 -0.170377
H65   H     H_    0.754689 0.158748 0.799534 0.128976
H66   H     H_    0.142138 0.669351 0.034529 0.137572
H67   H     H_    0.225805 0.198952 0.181308 0.130343
H68   H     H_    0.855709 0.678106 0.951824 0.135753
H69   H     H_    0.270297 0.666805 0.798733 0.137748
H70   H     H_    0.654549 0.198299 0.074963 0.135720
H71   H     H_    0.737172 0.661191 0.201992 0.128091
H72   H     H_    0.343941 0.199041 0.927415 0.166264
H73   H     H_    0.657562 0.303352 0.802554 0.132902
H74   H     H_    0.304194 0.640890 0.126541 0.115098
H75   H     H_    0.338781 0.308477 0.192578 0.124910
H76   H     H_    0.693951 0.647311 0.866305 0.117813
H77   H     H_    0.159505 0.798195 0.792489 0.132165
H78   H     H_    0.811473 0.158301 0.143816 0.121058
H79   H     H_    0.844264 0.796444 0.208004 0.131301
H80   H     H_    0.203589 0.089839 0.899582 0.149725
H81   H     H_    0.360037 0.634554 0.917597 0.175583
H82   H     H_    0.608592 0.292336 0.021843 0.180883
H83   H     H_    0.646389 0.631371 0.085325 0.173215
H84   H     H_    0.402380 0.280376 0.995286 0.177673
H85   H     H_    0.845908 0.124596 0.911075 0.171946
H86   H     H_    0.096182 0.763347 0.989069 0.180334
H87   H     H_    0.132409 0.180981 0.057945 0.175790
H88   H     H_    0.904305 0.769766 0.004984 0.179529
N33   N     N_R   0.576584 0.392265 0.928632 0.233538
O1    O     O_R   0.546040 0.383210 0.957404 -0.331977
O2    O     O_R   0.589584 0.446470 0.923778 -0.368725
N34   N     N_R   0.438379 0.608272 0.080375 0.222413
O3    O     O_R   0.449710 0.567258 0.042662 -0.292307
O4    O     O_R   0.473000 0.649894 0.124888 -0.407220
N35   N     N_R   0.433278 0.382018 0.081882 0.229763
O5    O     O_R   0.467735 0.368632 0.062494 -0.345888
O6    O     O_R   0.418815 0.437204 0.076756 -0.360501
N36   N     N_R   0.565604 0.607857 0.923311 0.225962
O7    O     O_R   0.556218 0.567639 0.964440 -0.287463
O8    O     O_R   0.529724 0.648539 0.877786 -0.416060
N37   N     N_R   0.068081 0.868453 0.911451 0.227215
O9    O     O_R   0.033373 0.854735 0.929976 -0.356180
O10   O     O_R   0.084463 0.923075 0.921972 -0.387711
N38   N     N_R   0.928833 0.097584 0.070674 0.225802
O11   O     O_R   0.932877 0.051258 0.031862 -0.302002
O12   O     O_R   0.967358 0.136041 0.106800 -0.393480
N39   N     N_R   0.935851 0.871231 0.092134 0.229801
O13   O     O_R   0.970170 0.857805 0.072459 -0.348915
O14   O     O_R   0.921070 0.926340 0.086290 -0.356537
N40   N     N_R   0.054833 0.152324 0.893352 0.221983
O15   O     O_R   0.035005 0.138602 0.939164 -0.339967
O16   O     O_R   0.026570 0.184655 0.822329 -0.405128
C169  C     C_2   0.658605 0.203914 0.737994 0.503462
H89   H     H_    0.668715 0.205191 0.689179 0.023507
O17   O     O_2   0.611795 0.207874 0.712783 -0.560683
C170  C     C_2   0.214274 0.588903 0.062314 0.506030
H90   H     H_    0.202997 0.585270 0.109584 -0.000135
O18   O     O_2   0.236398 0.546771 0.053065 -0.563420
C171  C     C_2   0.330280 0.213631 0.256304 0.494991
H91   H     H_    0.318298 0.219960 0.302110 0.024205
O19   O     O_2   0.377714 0.209244 0.285744 -0.558987
C172  C     C_2   0.783796 0.597599 0.921627 0.503582
H92   H     H_    0.793032 0.596754 0.871606 -0.005352
O20   O     O_2   0.763135 0.554058 0.930499 -0.566811
C173  C     C_2   0.171567 0.706863 0.725686 0.522210
H93   H     H_    0.186520 0.716079 0.684434 0.003227
O21   O     O_2   0.123446 0.706147 0.691485 -0.554246
C174  C     C_2   0.721976 0.112407 0.099996 0.495594
H94   H     H_    0.715893 0.114603 0.153659 -0.006843
O22   O     O_2   0.739667 0.066652 0.089432 -0.573762
C175  C     C_2   0.835726 0.700090 0.271558 0.509539
H95   H     H_    0.823027 0.704779 0.316699 0.021681
O23   O     O_2   0.883371 0.700467 0.301662 -0.551542
C176  C     C_2   0.249166 0.157308 0.858186 0.451478
H96   H     H_    0.207881 0.171721 0.819839 0.027337
O24   O     O_2   0.266353 0.128676 0.821860 -0.603324

loop_
_geom_bond_atom_site_label_1
_geom_bond_atom_site_label_2
_geom_bond_distance
_ccdc_geom_bond_type
N21   Ni4   1.840289 S    
C111  C143  1.404345 A    
C21   N21   1.340546 A    
C123  H76   1.078574 S    
C130  C146  1.420501 A    
C31   H31   1.076102 S    
C9    C41   1.380424 A    
N35   O6    1.301689 A    
C83   C91   1.402549 A    
C173  H93   1.085758 S    
C2    C34   1.376777 A    
C97   C121  1.401353 A    
C163  H67   1.084913 S    
C81   C89   1.403850 A    
C134  C150  1.424070 A    
C13   C45   1.379546 A    
N16   N24   1.374145 A    
C117  N38   1.428282 S    
C90   C93   1.464735 S    
C28   C34   1.395205 A    
C14   H14   1.075113 S    
C37   C103  1.483302 S    
C111  H87   1.084035 S    
C150  C157  1.427765 A    
C170  H90   1.085631 S    
C24   N24   1.342412 A    
C83   H63   1.083629 S    
C3    N3    1.343233 A    
N29   Ni8   1.836316 S    
C64   C72   1.399905 A    
C5    H5    1.080009 S    
C108  H84   1.084396 S    
C58   C66   1.401286 A    
C146  C149  1.409224 A    
C167  H71   1.085041 S    
C8    H8    1.076144 S    
C28   H28   1.080162 S    
C50   C90   1.402113 A    
C99   C123  1.401610 A    
C5    C37   1.393251 A    
C78   H54   1.082178 S    
C172  H92   1.085702 S    
N13   N21   1.374107 A    
N26   Ni5   1.836316 S    
C153  C161  1.405007 A    
C106  C138  1.400434 A    
C9    N9    1.330937 A    
C176  H96   1.083958 S    
C26   C36   1.390208 A    
C108  C116  1.398391 A    
N31   Ni7   1.834206 S    
C12   N12   1.334093 A    
C13   N13   1.331032 A    
C155  C171  1.483879 S    
C112  C120  1.398503 A    
C147  C156  1.424193 A    
C11   H11   1.077433 S    
N35   O5    1.301418 A    
C22   N22   1.343288 A    
N36   O7    1.300860 A    
C133  C141  1.407292 A    
C55   C63   1.384634 A    
C121  H74   1.078232 S    
C8    C40   1.389099 A    
C131  C139  1.407171 A    
C48   C70   1.462674 S    
C60   C68   1.400282 A    
C61   C69   1.401269 A    
C14   C46   1.378231 A    
C135  C151  1.427324 A    
C127  H80   1.075021 S    
C29   C39   1.394825 A    
C128  H79   1.079562 S    
C105  C137  1.402656 A    
C66   C74   1.402947 A    
N34   O3    1.300886 A    
C21   C45   1.390142 A    
C119  N40   1.432113 S    
C23   C47   1.389777 A    
C140  C168  1.387386 A    
N6    N32   1.387851 A    
C141  C161  1.398925 A    
C174  H94   1.085757 S    
N22   Ni3   1.840289 S    
C112  C144  1.399176 A    
C105  C113  1.406018 A    
C26   N26   1.342361 A    
C32   H32   1.079271 S    
C166  H70   1.085063 S    
C147  C152  1.413069 A    
C30   N30   1.338915 A    
C65   C73   1.403714 A    
C71   C79   1.403394 A    
C62   C70   1.400536 A    
C72   C80   1.402482 A    
N14   N22   1.374107 A    
C3    H3    1.075849 S    
N11   Ni6   1.831866 S    
C4    N4    1.336776 A    
C5    N5    1.342883 A    
C54   H38   1.082965 S    
C19   C43   1.393113 A    
C169  H89   1.083817 S    
C106  H82   1.084182 S    
C38   C104  1.474770 S    
C23   N23   1.339800 A    
C103  C119  1.418327 A    
N18   Ni1   1.840289 S    
C136  C144  1.416177 A    
C101  C125  1.398251 A    
C78   C86   1.393107 A    
C145  C154  1.423399 A    
C85   C93   1.403225 A    
N1    Ni1   1.839359 S    
C12   C44   1.379573 A    
C86   H58   1.083152 S    
N4    Ni1   1.830945 S    
C51   C59   1.384185 A    
C17   H17   1.080828 S    
N38   O11   1.300595 A    
C52   H36   1.083311 S    
C49   C57   1.386124 A    
N28   Ni6   1.834208 S    
N40   O16   1.301200 A    
C20   H20   1.075128 S    
C21   H21   1.080917 S    
C53   C61   1.384859 A    
C88   C96   1.402718 A    
C23   H23   1.081074 S    
C24   H24   1.080725 S    
C156  C164  1.395039 A    
C110  C118  1.398299 A    
C157  C165  1.404410 A    
C27   N27   1.328996 A    
C143  C163  1.391438 A    
C54   C94   1.403376 A    
N6    Ni4   1.839361 S    
C29   H29   1.080140 S    
C168  H72   1.086122 S    
C7    C39   1.398640 A    
N33   O2    1.301591 A    
C120  N39   1.437038 S    
C52   C92   1.401860 A    
C24   C48   1.388929 A    
C109  C117  1.407223 A    
C132  C148  1.418673 A    
C92   C95   1.463239 S    
C114  N33   1.438113 S    
N37   O10   1.301680 A    
C116  N35   1.437244 S    
C136  C152  1.422879 A    
C30   C40   1.395853 A    
C69   C77   1.403436 A    
C171  O19   1.221252 D    
N5    N31   1.387854 A    
C67   C75   1.403679 A    
N7    N29   1.387603 A    
C32   C38   1.397261 A    
C6    H6    1.079724 S    
C158  C174  1.484120 S    
C59   C67   1.402005 A    
C164  H68   1.085121 S    
N14   Ni8   1.834374 S    
C19   N19   1.342436 A    
C109  C141  1.404450 A    
C43   C65   1.468446 S    
C130  C138  1.416809 A    
C148  C151  1.423568 A    
C124  H75   1.078361 S    
C161  H65   1.084960 S    
N15   Ni8   1.831866 S    
C41   C67   1.463092 S    
C125  H78   1.080713 S    
C42   C68   1.460270 S    
C75   C83   1.390661 A    
C76   H52   1.082725 S    
C4    H4    1.078752 S    
C157  C173  1.483003 S    
C154  C162  1.394289 A    
C115  N36   1.428958 S    
C46   C72   1.458077 S    
C10   N10   1.334071 A    
C79   H55   1.081710 S    
C129  C137  1.406415 A    
C80   H56   1.082836 S    
C63   H47   1.082122 S    
C156  C172  1.484871 S    
C14   N14   1.333307 A    
C39   C101  1.487749 S    
C84   C92   1.403239 A    
C104  C120  1.415409 A    
C107  C115  1.406628 A    
C1    N1    1.346814 A    
C122  C130  1.399054 A    
N2    N28   1.387851 A    
C98   C114  1.413942 A    
C64   H48   1.082155 S    
C58   H42   1.081571 S    
C7    N7    1.345661 A    
C126  H77   1.077515 S    
C7    H7    1.076349 S    
C8    N8    1.338268 A    
C137  C165  1.398627 A    
C73   C81   1.392523 A    
C74   C82   1.391823 A    
C126  C134  1.403419 A    
C3    C35   1.395523 A    
N39   O13   1.301406 A    
C44   C66   1.462346 S    
N11   N19   1.374145 A    
C15   C47   1.380374 A    
C31   C37   1.395251 A    
N9    Ni5   1.834374 S    
C142  C162  1.394784 A    
C9    H9    1.081291 S    
C45   C71   1.463623 S    
C159  C175  1.483038 S    
N5    Ni3   1.839359 S    
C51   C91   1.401229 A    
C10   C42   1.380374 A    
C129  C145  1.414567 A    
C98   C122  1.398099 A    
C82   C90   1.403348 A    
C172  O20   1.221224 D    
C100  C116  1.414362 A    
C133  C149  1.412495 A    
C55   H39   1.083286 S    
C56   H40   1.083264 S    
C82   H62   1.083258 S    
C176  O24   1.221439 D    
C102  C126  1.401977 A    
C89   C94   1.468619 S    
C6    N6    1.334319 A    
C27   C33   1.396057 A    
C135  C143  1.410623 A    
N33   O1    1.301432 A    
C25   H25   1.080118 S    
C107  H83   1.084253 S    
N7    Ni4   1.830943 S    
C36   C98   1.467373 S    
N1    N27   1.387854 A    
N36   O8    1.301254 A    
N27   Ni5   1.834206 S    
C165  H69   1.084800 S    
C40   C102  1.477224 S    
C75   H51   1.081495 S    
C146  C153  1.427683 A    
C76   C84   1.392295 A    
N13   Ni7   1.834374 S    
C145  C150  1.412941 A    
C160  C168  1.396750 A    
C15   N15   1.331619 A    
C35   C97   1.494448 S    
C16   N16   1.332184 A    
C60   H44   1.082136 S    
C33   C99   1.494935 S    
C49   C89   1.401950 A    
C159  C167  1.404312 A    
N34   O4    1.301240 A    
N16   Ni7   1.831869 S    
C173  O21   1.221257 D    
C18   H18   1.076226 S    
C107  C139  1.403126 A    
C1    H1    1.075914 S    
C50   C58   1.384060 A    
C174  O22   1.221175 D    
N10   Ni6   1.834374 S    
C17   C41   1.389781 A    
C22   H22   1.075059 S    
N3    Ni2   1.830943 S    
C54   C62   1.385342 A    
C55   C95   1.401147 A    
C32   N32   1.344897 A    
C56   C96   1.402302 A    
C31   N31   1.324767 A    
C87   H59   1.083488 S    
C158  C166  1.395084 A    
C57   H41   1.080920 S    
C175  H95   1.083040 S    
C74   H50   1.082501 S    
C11   C43   1.385823 A    
C59   H43   1.082227 S    
C134  C142  1.416802 A    
C112  H88   1.084317 S    
C70   C78   1.402951 A    
C16   C48   1.378168 A    
C51   H35   1.083277 S    
C105  H81   1.084279 S    
C52   C60   1.384075 A    
C49   H33   1.083016 S    
C63   C71   1.402128 A    
N24   Ni4   1.831837 S    
C121  C129  1.395579 A    
C62   H46   1.083070 S    
C47   C69   1.462898 S    
C122  H73   1.079838 S    
C25   N25   1.332767 A    
C171  H91   1.082159 S    
C27   H27   1.080085 S    
C162  H66   1.085108 S    
C29   N29   1.325432 A    
N38   O12   1.300994 A    
C160  C176  1.479560 S    
C139  C167  1.399148 A    
C155  C163  1.395577 A    
C11   N11   1.335946 A    
C151  C160  1.440067 A    
C12   H12   1.075127 S    
C152  C159  1.426252 A    
C13   H13   1.081191 S    
C18   C42   1.389306 A    
C148  C155  1.425639 A    
C149  C158  1.424402 A    
C2    N2    1.333413 A    
N17   Ni2   1.840289 S    
C86   C94   1.404459 A    
C131  C147  1.415660 A    
N2    Ni2   1.839361 S    
C61   H45   1.082676 S    
N37   O9    1.301443 A    
C22   C46   1.387719 A    
C17   N17   1.339437 A    
C138  C166  1.394643 A    
C34   C100  1.468872 S    
C102  C118  1.415690 A    
C154  C170  1.484976 S    
C77   H53   1.081748 S    
C127  C135  1.387148 A    
C10   H10   1.076253 S    
C79   C87   1.391590 A    
C80   C88   1.391157 A    
C110  H86   1.084349 S    
C153  C169  1.483354 S    
C100  C124  1.395325 A    
C20   N20   1.344177 A    
C109  H85   1.084152 S    
C30   H30   1.080779 S    
C53   C93   1.402531 A    
C6    C38   1.384914 A    
C73   H49   1.081929 S    
N39   O14   1.301395 A    
C81   H61   1.083248 S    
C57   C65   1.403416 A    
C84   H64   1.083252 S    
C1    C33   1.399188 A    
C85   H57   1.083494 S    
N9    N17   1.374107 A    
C169  O17   1.221187 D    
N4    N26   1.387606 A    
C87   C95   1.403223 A    
C88   H60   1.083275 S    
N40   O15   1.301090 A    
N3    N25   1.387603 A    
N8    N30   1.387606 A    
C56   C64   1.383434 A    
N30   Ni7   1.836317 S    
N15   N23   1.374145 A    
N23   Ni3   1.831833 S    
C110  C142  1.399039 A    
C18   N18   1.343626 A    
C20   C44   1.389358 A    
C28   N28   1.341997 A    
C170  O18   1.221242 D    
C175  O23   1.221163 D    
C104  C128  1.401340 A    
C4    C36   1.379433 A    
N12   N20   1.374145 A    
C19   H19   1.078971 S    
C2    H2    1.077312 S    
C128  C136  1.404203 A    
C91   C96   1.461749 S    
C26   H26   1.080253 S    
C53   H37   1.083117 S    
C25   C35   1.397248 A    
N32   Ni8   1.834208 S    
C113  N34   1.428231 S    
C111  C119  1.405744 A    
C144  C164  1.395015 A    
C118  N37   1.436922 S    
C123  C131  1.395938 A    
C106  C114  1.399567 A    
C99   C115  1.419300 A    
C77   C85   1.391376 A    
C132  C140  1.409400 A    
N19   Ni1   1.831833 S    
C97   C113  1.419677 A    
C108  C140  1.401419 A    
C103  C127  1.399581 A    
N12   Ni5   1.831869 S    
C101  C117  1.417157 A    
C15   H15   1.081549 S    
C16   H16   1.081416 S    
C124  C132  1.399700 A    
N25   Ni6   1.836314 S    
C68   C76   1.402669 A    
N8    Ni3   1.830945 S    
N10   N18   1.374107 A    
C125  C133  1.391883 A    
C50   H34   1.083155 S    
N20   Ni2   1.831837 S    
