data_mof_unit_34176.cif
_audit_creation_date              2012-12-10T17:15:11-0500
_audit_creation_method            fapswitch 2.2
_symmetry_space_group_name_H-M    P1
_symmetry_Int_Tables_number       1
_space_group_crystal_system       triclinic
_cell_length_a                    10.165797
_cell_length_b                    10.758029
_cell_length_c                    12.888066
_cell_angle_alpha                 90.301993
_cell_angle_beta                  92.808626
_cell_angle_gamma                 95.567116
_cell_volume                      1401.08506777

loop_
_atom_site_label
_atom_site_type_symbol
_atom_type_description
_atom_site_fract_x
_atom_site_fract_y
_atom_site_fract_z
_atom_type_partial_charge
C1    C     C_R   0.445312 0.267166 0.489354 0.916903
C2    C     C_R   0.555694 0.732920 0.503241 0.956182
C3    C     C_2   0.073967 0.490824 0.512731 0.202425
C4    C     C_2   0.933123 0.521955 0.504611 0.179440
C5    C     C_R   0.474815 0.497169 0.698365 0.879304
C6    C     C_R   0.520919 0.487242 0.301509 0.864919
C7    C     C_R   0.524684 0.460116 0.191583 -0.081547
C8    C     C_R   0.458759 0.481443 0.808221 -0.085337
C9    C     C_R   0.331218 0.517966 0.955221 -0.239727
C10   C     C_R   0.654315 0.420403 0.045774 -0.236712
C11   C     C_R   0.353183 0.533675 0.851506 -0.254744
C12   C     C_R   0.646651 0.442066 0.150858 -0.242163
C13   C     C_R   0.548771 0.417678 0.871255 0.038860
C14   C     C_R   0.408018 0.453250 0.125570 0.036378
C15   C     C_R   0.543354 0.431732 0.978689 0.129837
C16   C     C_R   0.425159 0.465188 0.019642 0.125749
C17   C     C_2   0.416015 0.134840 0.471442 -0.387982
C18   C     C_2   0.588682 0.865567 0.493267 -0.397812
C19   C     C_2   0.517054 0.066914 0.458896 -0.155792
C20   C     C_2   0.494359 0.933733 0.456510 -0.152508
H1    H     H_    0.736217 0.443462 0.200195 0.170190
H2    H     H_    0.286151 0.585275 0.804811 0.173751
H3    H     H_    0.247115 0.557677 0.985914 0.143248
H4    H     H_    0.750478 0.407617 0.017304 0.139485
H5    H     H_    0.395396 0.892258 0.433006 0.187715
H6    H     H_    0.619097 0.108484 0.460287 0.188658
H7    H     H_    0.687152 0.907674 0.517168 0.150634
H8    H     H_    0.314243 0.092830 0.470356 0.150306
H9    H     H_    0.859619 0.364862 0.571415 0.143478
H10   H     H_    0.133963 0.617242 0.406529 0.161391
N1    N     N_2   0.162330 0.550370 0.457540 -0.222761
N2    N     N_2   0.837670 0.449630 0.542460 -0.223755
O1    O     O_R   0.567930 0.307680 0.508550 -0.614853
O2    O     O_R   0.432070 0.692320 0.491450 -0.610304
O3    O     O_R   0.351090 0.340020 0.481290 -0.600746
O4    O     O_R   0.648910 0.659980 0.518710 -0.612226
O5    O     O_R   0.590490 0.486480 0.665020 -0.612426
O6    O     O_R   0.409510 0.513520 0.334980 -0.618017
O7    O     O_R   0.373660 0.518820 0.637760 -0.586474
O8    O     O_R   0.626340 0.481180 0.362240 -0.643093
Zn1   Zn    Zn3+2 0.644780 0.478400 0.518200 0.913124
Zn2   Zn    Zn3+2 0.355220 0.521600 0.481800 0.936602
C21   C     C_3   0.268017 0.419588 0.162903 -0.408758
C22   C     C_3   0.256072 0.291494 0.215882 -0.287414
C23   C     C_3   0.121498 0.263933 0.262775 -0.886511
H11   H     H_    0.107465 0.335254 0.322726 0.264679
H12   H     H_    0.040835 0.263655 0.201406 0.250608
H13   H     H_    0.115925 0.170829 0.299985 0.241673
H14   H     H_    0.268790 0.217661 0.157523 0.206099
H15   H     H_    0.334245 0.286286 0.278141 0.229683
H16   H     H_    0.236174 0.494472 0.212550 0.224616
H17   H     H_    0.193328 0.410437 0.096937 0.182204
C24   C     C_3   0.638294 0.325282 0.827452 -0.420532
C25   C     C_3   0.556799 0.216132 0.769643 -0.302530
C26   C     C_3   0.646195 0.126276 0.723563 -0.877252
H18   H     H_    0.709446 0.174829 0.665428 0.262032
H19   H     H_    0.710164 0.088386 0.785672 0.250682
H20   H     H_    0.584448 0.047106 0.684647 0.261622
H21   H     H_    0.491509 0.164229 0.824820 0.210561
H22   H     H_    0.492628 0.250201 0.706214 0.220497
H23   H     H_    0.714149 0.372647 0.778465 0.228820
H24   H     H_    0.695603 0.281151 0.889993 0.187702
N3    N     N_2   0.905877 0.633151 0.451811 -0.313742
H25   H     H_    0.819073 0.629520 0.407318 0.279666
C27   C     C_3   0.940698 0.747605 0.510663 -0.798892
H26   H     H_    0.883733 0.747756 0.582030 0.261129
H27   H     H_    0.918256 0.828764 0.462310 0.226550
H28   H     H_    0.048043 0.758135 0.533344 0.233173
N4    N     N_2   0.112133 0.392929 0.578232 -0.249535
H29   H     H_    0.084628 0.304496 0.548616 0.197900
C28   C     C_3   0.092387 0.405862 0.688185 -0.771939
H30   H     H_    0.999777 0.350908 0.709605 0.199377
H31   H     H_    0.088412 0.505243 0.710749 0.237169
H32   H     H_    0.175351 0.368097 0.732828 0.251062

loop_
_geom_bond_atom_site_label_1
_geom_bond_atom_site_label_2
_ccdc_geom_bond_type
C22   H14   S    
C28   H32   S    
C21   C22   S    
N3    C27   S    
C8    C13   A    
N1    Zn2   S    
C5    O5    A    
C2    C18   S    
C3    N4    S    
C24   H24   S    
C11   H2    S    
C13   C24   S    
C19   C20   S    
O2    Zn2   S    
C13   C15   A    
C26   H18   S    
C27   H28   S    
O1    Zn1   S    
C2    O2    A    
C5    O7    A    
C1    O1    A    
C28   H30   S    
C26   H19   S    
C25   H22   S    
C24   C25   S    
C3    N1    D    
C9    C11   A    
C4    N3    S    
C21   H16   S    
O4    Zn1   S    
C6    C7    S    
C10   C12   A    
C8    C11   A    
C15   C16   A    
O8    Zn1   S    
C17   C19   D    
C9    C16   A    
O6    Zn2   S    
O7    Zn2   S    
C18   C20   D    
C10   C15   A    
C23   H12   S    
C14   C16   A    
O5    Zn1   S    
H10   N1    S    
C21   H17   S    
N4    H29   S    
C7    C12   A    
C23   H13   S    
C5    C8    S    
H9    N2    S    
C20   H5    S    
C4    N2    D    
N2    Zn1   S    
C22   H15   S    
C3    C4    S    
C23   H11   S    
C6    O8    A    
C22   C23   S    
C1    O3    A    
C28   H31   S    
C27   H26   S    
C26   H20   S    
C2    O4    A    
N4    C28   S    
O3    Zn2   S    
C25   C26   S    
C9    H3    S    
C10   H4    S    
C6    O6    A    
C25   H21   S    
C17   H8    S    
C24   H23   S    
C12   H1    S    
C1    C17   S    
C7    C14   A    
C18   H7    S    
N3    H25   S    
C14   C21   S    
C27   H27   S    
C19   H6    S    
