data_mof_unit_32318.cif
_audit_creation_date              2012-12-11T18:40:07-0500
_audit_creation_method            fapswitch 2.2
_symmetry_space_group_name_H-M    P1
_symmetry_Int_Tables_number       1
_space_group_crystal_system       triclinic
_cell_length_a                    8.369138
_cell_length_b                    14.384529
_cell_length_c                    19.026077
_cell_angle_alpha                 97.79331
_cell_angle_beta                  91.709907
_cell_angle_gamma                 91.552055
_cell_volume                      2267.18826831

loop_
_atom_site_label
_atom_site_type_symbol
_atom_type_description
_atom_site_fract_x
_atom_site_fract_y
_atom_site_fract_z
_atom_type_partial_charge
Ba1   Ba    Ba6+2 0.843770 0.541130 0.463760 1.657583
Ba2   Ba    Ba6+2 0.346040 0.458940 0.536250 1.653915
C1    C     C_3   0.631395 0.848526 0.230453 -0.201698
C2    C     C_R   0.018931 0.534310 0.725708 0.078081
C3    C     C_R   0.855600 0.445344 0.824161 -0.117443
C4    C     C_3   0.070685 0.740822 0.262260 0.364607
C5    C     C_R   0.797893 0.435120 0.753100 -0.060783
C6    C     C_R   0.347416 0.560893 0.180455 -0.158585
C7    C     C_R   0.404327 0.555686 0.249150 0.004482
C8    C     C_R   0.112398 0.471709 0.202694 -0.135827
C9    C     C_R   0.168239 0.470407 0.274373 0.066607
C10   C     C_R   0.983130 0.509446 0.850115 0.025257
C11   C     C_R   0.891332 0.471619 0.703320 -0.208850
C12   C     C_3   0.599751 0.765216 0.270705 0.285766
C13   C     C_R   0.192631 0.528121 0.155961 -0.009491
C14   C     C_R   0.310908 0.517213 0.297086 -0.259001
C15   C     C_R   0.750098 0.519759 0.967913 -0.077292
C16   C     C_3   0.036859 0.771164 0.189886 -0.340867
C17   C     C_R   0.640615 0.497193 0.016965 -0.084976
C18   C     C_R   0.690683 0.495380 0.086293 -0.033234
C19   C     C_R   0.846553 0.522875 0.107125 -0.066222
C20   C     C_R   0.965275 0.526700 0.057506 0.017092
C21   C     C_R   0.916130 0.522863 0.984032 0.064967
C22   C     C_R   0.126516 0.546473 0.081134 -0.017331
C23   C     C_3   0.499569 0.318094 0.323175 0.295182
C24   C     C_R   0.220464 0.586965 0.030769 0.028534
C25   C     C_R   0.188551 0.560461 0.956309 0.027773
C26   C     C_R   0.031374 0.528271 0.930326 0.009152
C27   C     C_R   0.333161 0.661704 0.050559 -0.082499
C28   C     C_3   0.184823 0.743162 0.602835 0.335039
C29   C     C_R   0.440274 0.688581 0.001975 -0.056353
C30   C     C_R   0.437145 0.640765 0.933502 -0.083371
C31   C     C_R   0.314491 0.574884 0.911147 -0.112090
C32   C     C_R   0.707453 0.941600 0.527322 0.040860
C33   C     C_R   0.518257 0.800361 0.493568 0.040161
C34   C     C_3   0.475123 0.291490 0.243349 -0.360854
C35   C     C_R   0.376892 0.764726 0.457205 -0.282961
C36   C     C_R   0.274710 0.822925 0.425495 -0.007572
C37   C     C_R   0.321706 0.915731 0.421870 -0.108023
C38   C     C_R   0.468706 0.952588 0.452664 0.001963
C39   C     C_R   0.567221 0.896960 0.491706 -0.071361
C40   C     C_3   0.226149 0.848378 0.613055 -0.365298
C41   C     C_R   0.653955 0.088122 0.481312 -0.013766
C42   C     C_R   0.760766 0.030991 0.513304 -0.033892
C43   C     C_R   0.690841 0.185707 0.486752 0.037020
C44   C     C_R   0.829143 0.223931 0.524185 -0.275668
C45   C     C_3   0.048349 0.204634 0.728229 0.334418
C46   C     C_R   0.941060 0.166152 0.549563 -0.018342
C47   C     C_R   0.911232 0.069482 0.540485 -0.157399
C48   C     C_R   0.510222 0.047344 0.449681 -0.012029
C49   C     C_3   0.007619 0.244011 0.378964 0.298751
C50   C     C_3   0.012334 0.137850 0.359901 -0.348916
C51   C     C_3   0.604543 0.703132 0.687981 0.329205
C52   C     C_3   0.490863 0.740139 0.748251 -0.171651
C53   C     C_3   0.766247 0.682868 0.719766 -0.165050
C54   C     C_3   0.854964 0.765375 0.765240 -0.348054
C55   C     C_3   0.488714 0.846774 0.771613 -0.190276
C56   C     C_3   0.132455 0.216136 0.802470 -0.252453
C57   C     C_3   0.368372 0.870459 0.829670 -0.451759
C58   C     C_2   0.522780 0.927701 0.252790 0.811839
C59   C     C_3   0.920466 0.122946 0.718614 -0.272964
C60   C     C_3   0.753489 0.153681 0.697407 -0.380076
C61   C     C_2   0.026890 0.208871 0.864703 0.833658
C62   C     C_2   0.756425 0.921906 0.598374 0.876023
C63   C     C_3   0.545004 0.281958 0.815778 0.252618
C64   C     C_3   0.497734 0.340496 0.884319 -0.393230
C65   C     C_R   0.054637 0.558813 0.798745 -0.144686
H1    H     H_    0.637299 0.785344 0.327482 0.052349
H2    H     H_    0.554919 0.635025 0.661330 0.075150
H3    H     H_    0.757102 0.874358 0.240926 0.111775
H4    H     H_    0.516813 0.704951 0.795210 0.072171
H5    H     H_    0.368794 0.717664 0.732224 0.141379
H6    H     H_    0.469205 0.748856 0.266842 -0.034999
H7    H     H_    0.385498 0.343136 0.345681 0.009546
H8    H     H_    0.592873 0.375093 0.333121 0.082735
H9    H     H_    0.378170 0.236780 0.231826 0.133844
H10   H     H_    0.441903 0.353763 0.218259 0.058733
H11   H     H_    0.587407 0.263971 0.220042 0.140874
H12   H     H_    0.357226 0.860647 0.616093 0.094482
H13   H     H_    0.612650 0.825920 0.172491 0.055307
H14   H     H_    0.099585 0.725926 0.148981 0.060974
H15   H     H_    0.995461 0.273395 0.722312 0.006010
H16   H     H_    0.226030 0.162823 0.802663 0.068264
H17   H     H_    0.193556 0.286178 0.810696 0.104659
H18   H     H_    0.676137 0.278544 0.812252 0.034287
H19   H     H_    0.502758 0.208743 0.818053 0.060387
H20   H     H_    0.578659 0.325490 0.928395 0.122673
H21   H     H_    0.373899 0.323237 0.898115 0.109035
H22   H     H_    0.016492 0.669464 0.262606 0.057017
H23   H     H_    0.179919 0.880693 0.567101 0.108757
H24   H     H_    0.506998 0.415919 0.878974 0.113896
H25   H     H_    0.135161 0.618385 0.814207 0.051103
H26   H     H_    0.793923 0.407833 0.860274 0.112478
H27   H     H_    0.432007 0.587448 0.146972 0.072870
H28   H     H_    0.008553 0.427917 0.184623 0.094396
H29   H     H_    0.852604 0.461079 0.647965 0.059646
H30   H     H_    0.357001 0.516083 0.350704 0.060998
H31   H     H_    0.702911 0.535068 0.917729 0.054237
H32   H     H_    0.515376 0.485352 0.002385 0.085775
H33   H     H_    0.606452 0.478383 0.124458 0.086858
H34   H     H_    0.174719 0.884533 0.662197 0.166308
H35   H     H_    0.202186 0.738564 0.270408 -0.032160
H36   H     H_    0.872911 0.547602 0.161806 0.124290
H37   H     H_    0.338285 0.701395 0.103028 0.073332
H38   H     H_    0.530374 0.743240 0.018427 0.074283
H39   H     H_    0.530148 0.654897 0.898120 0.068792
H40   H     H_    0.318164 0.536950 0.858516 0.122528
H41   H     H_    0.338926 0.692531 0.458678 0.060638
H42   H     H_    0.241328 0.959885 0.396537 0.088365
H43   H     H_    0.001210 0.025427 0.559360 0.103592
H44   H     H_    0.854082 0.298886 0.530660 0.058690
H45   H     H_    0.882924 0.263996 0.389261 0.005505
H46   H     H_    0.907870 0.763507 0.175309 0.129556
H47   H     H_    0.427675 0.089144 0.423492 0.078725
H48   H     H_    0.077884 0.845167 0.189683 0.166588
H49   H     H_    0.291725 0.704594 0.584186 -0.023541
H50   H     H_    0.087448 0.728289 0.561730 0.109535
H51   H     H_    0.861686 0.827731 0.737094 0.171644
H52   H     H_    0.798008 0.781919 0.817117 0.093772
H53   H     H_    0.978553 0.745873 0.777679 0.118486
H54   H     H_    0.748973 0.626380 0.753222 0.034184
H55   H     H_    0.837381 0.658410 0.673752 0.086438
H56   H     H_    0.085893 0.265585 0.426951 0.047670
H57   H     H_    0.246007 0.845919 0.810062 0.142053
H58   H     H_    0.401028 0.836850 0.877118 0.145252
H59   H     H_    0.368161 0.947692 0.845365 0.135284
H60   H     H_    0.606899 0.875669 0.792447 0.122010
H61   H     H_    0.453039 0.883012 0.726480 0.179706
H62   H     H_    0.503261 0.063245 0.293490 0.326928
H63   H     H_    0.663919 0.129187 0.733054 0.151977
H64   H     H_    0.716097 0.122172 0.643328 0.156528
H65   H     H_    0.746879 0.230318 0.698096 0.076643
H66   H     H_    0.959368 0.065555 0.678809 0.136783
H67   H     H_    0.934414 0.114548 0.312133 0.163418
H68   H     H_    0.909624 0.088408 0.766966 0.099636
H69   H     H_    0.096964 0.078243 0.877267 0.260445
H70   H     H_    0.715744 0.948792 0.702419 0.295641
H71   H     H_    0.969631 0.102168 0.404036 0.073362
H72   H     H_    0.136828 0.116820 0.348817 0.116470
O1    O     O_2   0.890230 0.433890 0.328780 -0.452457
O2    O     O_2   0.266425 0.176708 0.553779 -0.456556
O3    O     O_3   0.170750 0.184816 0.679369 -0.557199
O4    O     O_3   0.136580 0.442380 0.417110 -0.500481
O5    O     O_3   0.551510 0.615640 0.531790 -0.507383
O6    O     O_2   0.394780 0.268760 0.474430 -0.454045
O7    O     O_3   0.547120 0.238797 0.352676 -0.645131
O8    O     O_2   0.487216 0.492773 0.753220 -0.503786
O9    O     O_3   0.472109 0.312361 0.755599 -0.550409
O10   O     O_3   0.636390 0.607640 0.365630 -0.470933
O11   O     O_2   0.716349 0.506160 0.249003 -0.504169
O12   O     O_3   0.626048 0.766894 0.639079 -0.620797
O13   O     O_3   0.061357 0.284871 0.321215 -0.631310
O14   O     O_3   0.686193 0.687568 0.240892 -0.608798
O15   O     O_2   0.794910 0.731270 0.525620 -0.435879
O16   O     O_3   0.045950 0.658760 0.399470 -0.492868
O17   O     O_2   0.950455 0.828319 0.449352 -0.469833
O18   O     O_2   0.377993 0.916296 0.243444 -0.635192
O19   O     O_R   0.588231 0.015007 0.282637 -0.752685
O20   O     O_2   0.944966 0.274361 0.886898 -0.607337
O21   O     O_R   0.025670 0.129193 0.899484 -0.712144
O22   O     O_2   0.885423 0.888014 0.608956 -0.628574
O23   O     O_3   0.004352 0.805109 0.314726 -0.580326
O24   O     O_R   0.660206 0.952237 0.654949 -0.784759
O25   O     O_2   0.299470 0.566150 0.671260 -0.476512
O26   O     O_3   0.053110 0.557700 0.582890 -0.497740
O27   O     O_3   0.553300 0.392440 0.634370 -0.434093
O28   O     O_3   0.134873 0.715813 0.666987 -0.652005
O29   O     O_3   0.638180 0.384440 0.468210 -0.487769
O30   O     O_3   0.143740 0.341320 0.600540 -0.462284
P1    P     P_3+3 0.064140 0.407250 0.340900 0.981614
P2    P     P_3+3 0.622060 0.719380 0.547490 0.991279
P3    P     P_3+3 0.070472 0.779309 0.397721 0.959140
P4    P     P_3+3 0.125560 0.592830 0.659110 0.949735
P5    P     P_3+3 0.124753 0.218398 0.595977 0.997086
P6    P     P_3+3 0.610842 0.588863 0.274801 0.928498
P7    P     P_3+3 0.568545 0.267699 0.444805 0.946122
P8    P     P_3+3 0.583015 0.405239 0.726980 0.954596

loop_
_geom_bond_atom_site_label_1
_geom_bond_atom_site_label_2
_ccdc_geom_bond_type
C42   C47   A    
C53   C54   S    
C53   H54   S    
C38   C39   A    
C49   H45   S    
C50   H67   S    
C60   H63   S    
C17   C18   A    
C31   H40   S    
C61   O20   D    
Ba2   O5    S    
C51   H2    S    
C16   H14   S    
C55   H61   S    
C59   H66   S    
C63   H19   S    
O3    P5    S    
C28   H49   S    
C43   C44   A    
C25   C31   A    
Ba2   O6    S    
C45   O3    S    
C24   C25   A    
C15   C21   A    
C57   H59   S    
C10   C26   S    
C33   C35   A    
C7    C14   A    
C58   O19   S    
C28   O28   S    
C23   H7    S    
C34   H10   S    
Ba2   P4    S    
C64   H21   S    
C36   C37   A    
C14   H30   S    
C55   C57   S    
O26   P4    S    
Ba1   P1    S    
C57   H57   S    
C50   H72   S    
O12   P2    S    
C5    P8    S    
Ba1   Ba2   S    
C45   H15   S    
C2    C11   A    
Ba1   O16   S    
C34   H9    S    
O16   P3    S    
C52   H4    S    
C4    O23   S    
C6    C7    A    
O7    P7    S    
C50   H71   S    
O30   P5    S    
Ba1   O10   S    
C23   O7    S    
C15   H31   S    
Ba2   O27   S    
O28   P4    S    
C1    C58   S    
O11   P6    D    
C53   H55   S    
C40   H12   S    
C30   H39   S    
C33   P2    S    
Ba2   O4    S    
C54   H53   S    
C59   C60   S    
C32   C39   A    
C61   O21   S    
C62   O24   S    
C1    H13   S    
C16   H46   S    
H62   O19   S    
C37   H42   S    
C46   P5    S    
C51   C53   S    
C4    C16   S    
C10   C65   A    
C44   C46   A    
C11   H29   S    
C49   C50   S    
C12   H6    S    
C60   H65   S    
C1    H3    S    
C32   C42   A    
C58   O18   D    
C35   H41   S    
C43   P7    S    
Ba2   O25   S    
C37   C38   A    
C3    C5    A    
C17   H32   S    
Ba2   O30   S    
Ba1   O29   S    
C51   C52   S    
O17   P3    D    
O9    P8    S    
C9    P1    S    
C27   H37   S    
C48   H47   S    
H69   O21   S    
C41   C42   A    
C45   C59   S    
C35   C36   A    
Ba1   O4    S    
C56   H17   S    
O13   P1    S    
C9    C14   A    
O8    P8    D    
C29   C30   A    
O5    P2    S    
O6    P7    D    
Ba1   O26   S    
C44   H44   S    
C49   H56   S    
C32   C62   S    
C6    H27   S    
O25   P4    D    
O27   P8    S    
C21   C26   A    
C63   O9    S    
C63   H18   S    
C41   C43   A    
Ba2   O26   S    
Ba1   O1    S    
C3    C10   A    
C13   C22   S    
C49   O13   S    
C6    C13   A    
C2    P4    S    
C12   O14   S    
O2    P5    D    
C54   H52   S    
C20   C22   A    
O23   P3    S    
C23   H8    S    
C40   H34   S    
Ba2   O29   S    
C64   H20   S    
C59   H68   S    
H70   O24   S    
C56   C61   S    
O29   P7    S    
C46   C47   A    
O1    P1    D    
C54   H51   S    
C60   H64   S    
O4    P1    S    
C22   C24   A    
C62   O22   D    
C16   H48   S    
C55   H60   S    
C2    C65   A    
C3    H26   S    
C41   C48   A    
C36   P3    S    
C64   H24   S    
C28   H50   S    
C1    C12   S    
C57   H58   S    
C4    H22   S    
O14   P6    S    
C8    C13   A    
C30   C31   A    
C18   H33   S    
C27   C29   A    
Ba1   O5    S    
C34   H11   S    
C56   H16   S    
C45   C56   S    
O10   P6    S    
C8    H28   S    
C38   C48   A    
C65   H25   S    
C15   C17   A    
Ba1   P2    S    
O15   P2    D    
C7    P6    S    
C4    H35   S    
Ba1   O15   S    
C33   C39   A    
C8    C9    A    
C23   C34   S    
C19   H36   S    
C5    C11   A    
C52   H5    S    
C18   C19   A    
C24   C27   A    
C63   C64   S    
C29   H38   S    
C25   C26   A    
C51   O12   S    
C12   H1    S    
C20   C21   A    
C28   C40   S    
C40   H23   S    
C19   C20   A    
C47   H43   S    
C52   C55   S    
