data_mof_unit_37809.cif
_audit_creation_date              2012-12-10T18:51:33-0500
_audit_creation_method            fapswitch 2.2
_symmetry_space_group_name_H-M    P1
_symmetry_Int_Tables_number       1
_space_group_crystal_system       triclinic
_cell_length_a                    10.876863
_cell_length_b                    9.821241
_cell_length_c                    10.493262
_cell_angle_alpha                 90.341735
_cell_angle_beta                  89.915431
_cell_angle_gamma                 89.972636
_cell_volume                      1120.91400114

loop_
_atom_site_label
_atom_site_type_symbol
_atom_type_description
_atom_site_fract_x
_atom_site_fract_y
_atom_site_fract_z
_atom_type_partial_charge
C1    C     C_R   0.874668 0.490378 0.491468 -0.160670
C2    C     C_R   0.127508 0.488721 0.526276 -0.159508
C3    C     C_R   0.260077 0.498025 0.510315 0.878971
C4    C     C_R   0.740785 0.498262 0.494104 0.878201
C5    C     C_R   0.499962 0.499509 0.257118 0.857721
C6    C     C_R   0.499262 0.500488 0.742799 0.848483
C7    C     C_3   0.396907 0.562348 0.043234 -0.178468
C8    C     C_3   0.600850 0.437568 0.956517 -0.178114
C9    C     C_3   0.496790 0.630041 0.960475 -0.136152
C10   C     C_3   0.500914 0.369905 0.039200 -0.143564
C11   C     C_3   0.398455 0.434020 0.957510 -0.192470
C12   C     C_3   0.599275 0.565957 0.042017 -0.191910
C13   C     C_3   0.498473 0.501517 0.877623 0.041256
C14   C     C_3   0.499435 0.498464 0.122130 0.036672
C15   C     C_R   0.475583 0.072615 0.609194 -0.094423
C16   C     C_R   0.524711 0.927377 0.390946 -0.104488
C17   C     C_R   0.525290 0.071249 0.391061 -0.094389
C18   C     C_R   0.476149 0.928715 0.609283 -0.111993
C19   C     C_R   0.065144 0.360449 0.515670 0.042119
C20   C     C_R   0.942149 0.613298 0.493362 0.048215
C21   C     C_R   0.936439 0.361073 0.500945 0.041277
C22   C     C_R   0.060874 0.610082 0.541270 0.053176
H1    H     H_    0.316811 0.380865 0.917875 0.119954
H2    H     H_    0.681178 0.619631 0.079940 0.127686
N1    N     N_R   0.500000 0.857200 0.500000 -0.074168
N2    N     N_R   0.500000 0.142800 0.500000 -0.067674
O1    O     O_R   0.316770 0.614620 0.499990 -0.610970
O2    O     O_R   0.683230 0.385380 0.500010 -0.629630
O3    O     O_R   0.683230 0.614620 0.500010 -0.613647
O4    O     O_R   0.316770 0.385380 0.499990 -0.631428
O5    O     O_R   0.499970 0.614650 0.313950 -0.626456
O6    O     O_R   0.500030 0.385350 0.686050 -0.639179
O7    O     O_R   0.500030 0.614650 0.686050 -0.630774
O8    O     O_R   0.499970 0.385350 0.313950 -0.640248
Zn1   Zn    Zn3+2 0.500000 0.653120 0.500000 0.933151
Zn2   Zn    Zn3+2 0.500000 0.346880 0.500000 0.914746
H3    H     H_    0.455540 0.127242 0.696491 0.132933
H4    H     H_    0.544156 0.872659 0.303564 0.144227
H5    H     H_    0.545722 0.124845 0.303913 0.126014
H6    H     H_    0.457483 0.875009 0.696708 0.135996
H7    H     H_    0.314110 0.612532 0.083959 0.127691
H8    H     H_    0.683687 0.386996 0.916209 0.121060
H9    H     H_    0.494812 0.736047 0.924315 0.133214
H10   H     H_    0.502625 0.263887 0.075334 0.128193
C23   C     C_3   0.132006 0.221701 0.522192 -0.348703
C24   C     C_3   0.166827 0.170656 0.386960 -0.309709
C25   C     C_3   0.204599 0.021569 0.386731 -0.906297
H11   H     H_    0.271085 0.001302 0.463827 0.280059
H12   H     H_    0.122913 0.957380 0.401481 0.243660
H13   H     H_    0.246690 0.993920 0.293632 0.250920
H14   H     H_    0.088062 0.182766 0.320684 0.195340
H15   H     H_    0.243315 0.230812 0.346227 0.252600
H16   H     H_    0.210662 0.221235 0.588994 0.205413
H17   H     H_    0.077253 0.143888 0.572593 0.182527
C26   C     C_3   0.896725 0.744951 0.432243 -0.398705
C27   C     C_3   0.864962 0.724656 0.290841 -0.318244
C28   C     C_3   0.841584 0.860856 0.225639 -0.924615
H18   H     H_    0.768177 0.918300 0.276098 0.258637
H19   H     H_    0.926852 0.923108 0.225143 0.262303
H20   H     H_    0.812490 0.842892 0.125567 0.245848
H21   H     H_    0.942350 0.672421 0.241324 0.214084
H22   H     H_    0.781755 0.660320 0.280939 0.219827
H23   H     H_    0.819088 0.790384 0.485314 0.232940
H24   H     H_    0.969183 0.823187 0.435472 0.186824
C29   C     C_3   0.869317 0.222279 0.496435 -0.344546
C30   C     C_3   0.829461 0.179224 0.631830 -0.310002
C31   C     C_3   0.797591 0.028700 0.637541 -0.918986
H25   H     H_    0.732161 0.001586 0.560721 0.281045
H26   H     H_    0.882528 0.967760 0.626421 0.242124
H27   H     H_    0.755439 0.004628 0.731176 0.250398
H28   H     H_    0.904790 0.199199 0.700932 0.197088
H29   H     H_    0.748831 0.238581 0.665155 0.250779
H30   H     H_    0.794148 0.217212 0.425671 0.206707
H31   H     H_    0.925161 0.140796 0.452324 0.186528
C32   C     C_3   0.109214 0.731460 0.618351 -0.410751
C33   C     C_3   0.154822 0.689005 0.750984 -0.316775
C34   C     C_3   0.183499 0.813278 0.833841 -0.911285
H32   H     H_    0.252654 0.878961 0.786582 0.253269
H33   H     H_    0.098607 0.873517 0.851402 0.259995
H34   H     H_    0.220744 0.779839 0.926950 0.246667
H35   H     H_    0.083006 0.627353 0.799291 0.212298
H36   H     H_    0.239242 0.626109 0.742715 0.220230
H37   H     H_    0.181647 0.787219 0.565993 0.229529
H38   H     H_    0.034148 0.805726 0.635124 0.190351

loop_
_geom_bond_atom_site_label_1
_geom_bond_atom_site_label_2
_ccdc_geom_bond_type
C15   C18   A    
C6    O6    A    
C26   C27   S    
C1    C21   A    
C8    C13   S    
C25   H12   S    
C34   H32   S    
C7    C11   S    
C17   N2    A    
O6    Zn2   S    
C19   C21   A    
C8    H8    S    
C32   H38   S    
C28   H19   S    
C24   H15   S    
C29   H30   S    
C27   C28   S    
C17   H5    S    
C18   H6    S    
C15   H3    S    
C9    C13   S    
C7    C14   S    
C30   H29   S    
C25   H11   S    
C16   C17   A    
C26   H23   S    
C2    C22   A    
O8    Zn2   S    
C4    O3    A    
C30   C31   S    
C23   H16   S    
C26   H24   S    
C18   N1    A    
C22   C32   S    
C20   C26   S    
C4    O2    A    
C25   H13   S    
C34   H33   S    
C9    H9    S    
C10   H10   S    
C31   H25   S    
C33   C34   S    
C10   C14   S    
C33   H36   S    
C15   N2    A    
O1    Zn1   S    
C23   C24   S    
C24   H14   S    
C29   H31   S    
C31   H26   S    
C3    O4    A    
C32   C33   S    
C30   H28   S    
C8    C12   S    
C5    O8    A    
C5    C14   S    
N1    Zn1   S    
N2    Zn2   S    
C12   C14   S    
C23   H17   S    
C27   H22   S    
C34   H34   S    
C16   N1    A    
C7    C9    S    
C12   H2    S    
C24   C25   S    
C1    C20   A    
C21   C29   S    
C2    C19   A    
C20   C22   A    
C28   H20   S    
C33   H35   S    
C19   C23   S    
O3    Zn1   S    
C6    O7    A    
O4    Zn2   S    
C1    C4    S    
C31   H27   S    
C3    O1    A    
C2    C3    S    
C6    C13   S    
C11   C13   S    
C32   H37   S    
C28   H18   S    
C11   H1    S    
O7    Zn1   S    
O5    Zn1   S    
C7    H7    S    
C9    C12   S    
C10   C11   S    
O2    Zn2   S    
C8    C10   S    
C29   C30   S    
C27   H21   S    
C16   H4    S    
C5    O5    A    
