data_mof_unit_12415.cif
_audit_creation_date              2012-12-10T19:01:21-0500
_audit_creation_method            fapswitch 2.2
_symmetry_space_group_name_H-M    P1
_symmetry_Int_Tables_number       1
_space_group_crystal_system       triclinic
_cell_length_a                    9.611096
_cell_length_b                    10.775073
_cell_length_c                    15.487771
_cell_angle_alpha                 89.495823
_cell_angle_beta                  73.397979
_cell_angle_gamma                 91.265881
_cell_volume                      1536.48799557

loop_
_atom_site_label
_atom_site_type_symbol
_atom_type_description
_atom_site_fract_x
_atom_site_fract_y
_atom_site_fract_z
_atom_type_partial_charge
C1    C     C_R   0.998190 0.262758 0.502095 0.777798
C2    C     C_R   0.671164 0.434600 0.906822 0.037296
C3    C     C_R   0.770855 0.418249 0.957402 -0.046727
C4    C     C_R   0.525456 0.464424 0.951985 0.110320
C5    C     C_R   0.472732 0.448852 0.047000 0.058212
C6    C     C_R   0.572236 0.416981 0.094917 -0.248887
C7    C     C_R   0.719323 0.408287 0.051282 -0.178933
C8    C     C_R   0.436922 0.522001 0.905623 -0.246105
C9    C     C_R   0.297302 0.557727 0.950464 -0.174282
C10   C     C_R   0.240548 0.535737 0.042811 0.180387
C11   C     C_R   0.325936 0.477119 0.091572 0.055863
C12   C     C_R   0.917185 0.488231 0.671944 0.833104
C13   C     C_R   0.100682 0.575700 0.087633 -0.136062
C14   C     C_R   0.045595 0.560209 0.180624 -0.212666
C15   C     C_R   0.263649 0.455014 0.184324 -0.257651
C16   C     C_R   0.118351 0.068890 0.452625 0.036904
C17   C     C_R   0.998261 0.129493 0.505756 -0.047120
C18   C     C_R   0.886928 0.060749 0.566730 -0.247510
C19   C     C_R   0.888199 0.931142 0.565006 -0.170302
C20   C     C_R   0.002550 0.870934 0.503673 -0.023449
C21   C     C_R   0.120603 0.940982 0.450659 0.017166
C22   C     C_3   0.187380 0.942406 0.350273 0.341611
C23   C     C_R   0.001496 0.737472 0.499360 0.831356
C24   C     C_3   0.185635 0.083521 0.353768 -0.526228
C25   C     C_R   0.583498 0.607645 0.486009 0.120286
C26   C     C_R   0.558917 0.396134 0.525254 0.550222
C27   C     C_R   0.408592 0.399395 0.528255 -0.201806
C28   C     C_R   0.440980 0.604906 0.479041 0.146390
C29   C     C_3   0.487622 0.683036 0.393735 -0.159271
C30   C     C_3   0.638174 0.695688 0.408872 0.278408
C31   C     C_R   0.082348 0.499275 0.327991 0.803048
C32   C     C_R   0.869967 0.456387 0.769792 -0.290494
C33   C     C_R   0.128700 0.502267 0.229390 -0.041651
C34   C     C_R   0.920981 0.416598 0.912987 0.392036
C35   C     C_R   0.970561 0.451205 0.821116 0.380787
C36   C     C_R   0.722703 0.423010 0.812314 -0.013209
Cu1   Cu    Cu3+1 0.140670 0.499980 0.500000 0.950806
Cu2   Cu    Cu3+1 0.859330 0.500020 0.500000 0.976031
H1    H     H_    0.792714 0.396393 0.092157 0.179441
H2    H     H_    0.035539 0.622065 0.051021 0.143772
H3    H     H_    0.798307 0.106837 0.613701 0.166479
H4    H     H_    0.799227 0.878158 0.610007 0.159858
H5    H     H_    0.297904 0.903819 0.330862 0.066399
H6    H     H_    0.296101 0.127220 0.337622 0.152712
H7    H     H_    0.111324 0.127419 0.319732 0.199168
H8    H     H_    0.337605 0.320041 0.552973 0.159823
H9    H     H_    0.318914 0.403060 0.223758 0.139507
H10   H     H_    0.427845 0.771347 0.402202 0.183144
H11   H     H_    0.732895 0.657153 0.357534 0.100650
H12   H     H_    0.940333 0.596825 0.214600 0.137069
H13   H     H_    0.234186 0.604753 0.912841 0.189011
H14   H     H_    0.542458 0.409010 0.167268 0.137722
H15   H     H_    0.478155 0.548436 0.835435 0.162455
N1    N     N_R   0.648210 0.500930 0.499430 -0.258401
N2    N     N_R   0.352300 0.500890 0.499430 -0.202504
O1    O     O_R   0.118810 0.319640 0.500000 -0.601110
O2    O     O_R   0.881230 0.319680 0.499990 -0.524049
O3    O     O_R   0.055580 0.499970 0.629840 -0.525340
O4    O     O_R   0.818000 0.500010 0.629830 -0.587946
O5    O     O_R   0.118770 0.680320 0.500010 -0.586116
O6    O     O_R   0.881190 0.680360 0.500000 -0.544946
O7    O     O_R   0.182000 0.499990 0.370170 -0.581502
O8    O     O_R   0.944420 0.500030 0.370160 -0.595863
O9    O     O_3   0.090712 0.890323 0.305865 -0.571632
C37   C     C_3   0.149954 0.904370 0.211708 -0.365363
H16   H     H_    0.262884 0.871060 0.187603 0.165205
H17   H     H_    0.146552 0.002612 0.190240 0.170207
H18   H     H_    0.082725 0.848172 0.178342 0.184268
O10   O     O_3   0.613671 0.290354 0.553784 -0.570454
C38   C     C_3   0.568211 0.181826 0.517447 -0.358562
H19   H     H_    0.646040 0.107773 0.516816 0.214482
H20   H     H_    0.565689 0.195353 0.446455 0.145425
H21   H     H_    0.461149 0.147340 0.560908 0.159648
C39   C     C_3   0.497168 0.613775 0.304980 -0.397483
C40   C     C_3   0.442443 0.693877 0.240746 -0.839881
H22   H     H_    0.323086 0.702025 0.267146 0.276903
H23   H     H_    0.495907 0.787417 0.232584 0.228412
H24   H     H_    0.468669 0.651442 0.173365 0.255245
H25   H     H_    0.610319 0.589188 0.268740 0.175931
H26   H     H_    0.436661 0.524111 0.318106 0.241250
O11   O     O_3   0.665234 0.814312 0.439626 -0.560784
C41   C     C_3   0.720186 0.894971 0.364774 -0.284158
H27   H     H_    0.759508 0.982332 0.388160 0.197972
H28   H     H_    0.633498 0.918477 0.333289 0.131917
H29   H     H_    0.814153 0.855499 0.313665 0.195104
O12   O     O_3   0.020510 0.398015 0.960608 -0.574422
C42   C     C_3   0.030520 0.269136 0.974604 -0.368957
H30   H     H_    0.050271 0.216419 0.910871 0.143105
H31   H     H_    0.931594 0.230626 0.024635 0.164714
H32   H     H_    0.123815 0.253918 0.001880 0.194885
O13   O     O_3   0.113708 0.490350 0.783959 -0.555258
C43   C     C_3   0.203420 0.386757 0.761116 -0.237755
H33   H     H_    0.306559 0.418014 0.711963 0.174074
H34   H     H_    0.154666 0.311517 0.729231 0.125135
H35   H     H_    0.232971 0.350921 0.820568 0.191362
C44   C     C_3   0.635534 0.347755 0.760926 -0.281310
C45   C     C_3   0.550691 0.236150 0.814177 -0.885487
H36   H     H_    0.508925 0.176689 0.768375 0.244554
H37   H     H_    0.622515 0.179919 0.843076 0.252947
H38   H     H_    0.455940 0.265823 0.868976 0.256852
H39   H     H_    0.562024 0.407004 0.736043 0.204339
H40   H     H_    0.711605 0.306585 0.700746 0.232458

loop_
_geom_bond_atom_site_label_1
_geom_bond_atom_site_label_2
_ccdc_geom_bond_type
C42   H30   S    
C16   C21   A    
C44   H40   S    
C19   C20   A    
C9    H13   S    
C15   H9    S    
C4    C8    A    
C14   C33   A    
C45   H36   S    
C14   H12   S    
C25   C28   A    
C26   C27   A    
C29   C30   S    
C24   H7    S    
C32   C36   A    
C28   C29   S    
C1    O1    A    
C5    C11   A    
C3    C7    A    
C5    C6    A    
C27   N2    A    
C34   C35   A    
C34   O12   S    
C13   H2    S    
C12   O4    A    
C11   C15   A    
C8    C9    A    
C37   H17   S    
C31   C33   S    
C38   H19   S    
C9    C10   A    
Cu1   O3    S    
C19   H4    S    
Cu2   O6    S    
C12   O3    A    
C16   C24   S    
C39   H26   S    
C13   C14   A    
C12   C32   S    
Cu1   O1    S    
C31   O7    A    
C26   N1    A    
C45   H37   S    
C28   N2    A    
Cu1   O7    S    
C23   O5    A    
C39   C40   S    
C29   H10   S    
C32   C35   A    
C31   O8    A    
C44   H39   S    
C25   N1    A    
C18   H3    S    
O13   C43   S    
O12   C42   S    
C18   C19   A    
C29   C39   S    
C3    C34   A    
C43   H35   S    
O11   C41   S    
C2    C4    A    
C40   H22   S    
Cu1   Cu2   S    
C1    O2    A    
Cu2   O2    S    
C36   C44   S    
C22   H5    S    
Cu2   N1    S    
C20   C23   S    
C37   H18   S    
C44   C45   S    
C38   H21   S    
C43   H34   S    
C17   C18   A    
C40   H23   S    
C27   H8    S    
C30   H11   S    
C41   H27   S    
C41   H28   S    
C39   H25   S    
C42   H31   S    
C24   H6    S    
C22   C24   S    
C45   H38   S    
Cu2   O8    S    
C2    C36   A    
C25   C30   S    
C4    C5    A    
C10   C13   A    
C8    H15   S    
C6    C7    A    
C41   H29   S    
C1    C17   S    
O9    C37   S    
C30   O11   S    
C2    C3    A    
C16   C17   A    
C43   H33   S    
O10   C38   S    
C40   H24   S    
Cu1   O5    S    
C10   C11   A    
C22   O9    S    
Cu2   O4    S    
Cu1   N2    S    
C23   O6    A    
C20   C21   A    
C37   H16   S    
C42   H32   S    
C26   O10   S    
C7    H1    S    
C38   H20   S    
C6    H14   S    
C21   C22   S    
C15   C33   A    
C35   O13   S    
