data_mof_unit_26579.cif
_audit_creation_date              2012-12-10T19:11:04-0500
_audit_creation_method            fapswitch 2.2
_symmetry_space_group_name_H-M    P1
_symmetry_Int_Tables_number       1
_space_group_crystal_system       triclinic
_cell_length_a                    10.963241
_cell_length_b                    9.058272
_cell_length_c                    8.000738
_cell_angle_alpha                 90.010357
_cell_angle_beta                  88.986658
_cell_angle_gamma                 89.977901
_cell_volume                      794.413105644

loop_
_atom_site_label
_atom_site_type_symbol
_atom_type_description
_atom_site_fract_x
_atom_site_fract_y
_atom_site_fract_z
_atom_type_partial_charge
C1    C     C_R   0.500002 0.220943 0.499994 0.820788
C2    C     C_R   0.260337 0.498360 0.501127 0.796878
C3    C     C_R   0.739532 0.493889 0.499008 0.800088
C4    C     C_R   0.500165 0.779045 0.500005 0.813997
C5    C     C_1   0.500090 0.065623 0.499995 -0.181866
C6    C     C_3   0.067640 0.385143 0.633768 -0.080509
C7    C     C_3   0.075786 0.438255 0.331430 -0.032939
C8    C     C_3   0.925498 0.406736 0.652075 -0.048556
C9    C     C_3   0.935807 0.406594 0.348016 -0.082146
C10   C     C_1   0.500157 0.934339 0.500016 -0.182232
C11   C     C_3   0.070674 0.667358 0.534176 0.375640
C12   C     C_3   0.924953 0.667735 0.502210 0.368459
C13   C     C_3   0.122550 0.501973 0.502231 -0.001968
C14   C     C_3   0.877188 0.498517 0.499368 0.016006
Cu1   Cu    Cu3+1 0.500000 0.500010 0.669080 0.965861
Cu2   Cu    Cu3+1 0.500000 0.500010 0.330920 0.966646
H1    H     H_    0.077851 0.273751 0.575522 0.123368
H2    H     H_    0.118491 0.326311 0.319383 0.128785
H3    H     H_    0.886435 0.293216 0.639569 0.128109
H4    H     H_    0.932012 0.287566 0.384424 0.122422
N1    N     N_1   0.500000 0.499970 0.076820 -0.062432
N2    N     N_1   0.500000 0.499970 0.923180 -0.062494
O1    O     O_R   0.500000 0.288400 0.642760 -0.577619
O2    O     O_R   0.500000 0.288400 0.357240 -0.577897
O3    O     O_R   0.317700 0.499990 0.642790 -0.589971
O4    O     O_R   0.317700 0.499990 0.357210 -0.588302
O5    O     O_R   0.682300 0.499990 0.642790 -0.584881
O6    O     O_R   0.682300 0.499990 0.357210 -0.587718
O7    O     O_R   0.500000 0.711620 0.642810 -0.577204
O8    O     O_R   0.500000 0.711620 0.357190 -0.575819
C15   C     C_3   0.137484 0.350453 0.793168 -0.848135
H5    H     H_    0.081876 0.283059 0.881772 0.233217
H6    H     H_    0.220269 0.283210 0.764894 0.243115
H7    H     H_    0.166689 0.454355 0.848971 0.271012
C16   C     C_3   0.121887 0.514422 0.169587 -0.796385
H8    H     H_    0.178623 0.432664 0.102165 0.232165
H9    H     H_    0.050423 0.557048 0.091494 0.216561
H10   H     H_    0.184814 0.607033 0.183596 0.253439
C17   C     C_3   0.877004 0.449984 0.824388 -0.826368
H11   H     H_    0.819418 0.358853 0.875168 0.239389
H12   H     H_    0.951972 0.472141 0.903798 0.242271
H13   H     H_    0.820265 0.548317 0.836210 0.258782
C18   C     C_3   0.867923 0.384656 0.187641 -0.856925
H14   H     H_    0.927644 0.317463 0.104181 0.234884
H15   H     H_    0.785384 0.314664 0.206094 0.247194
H16   H     H_    0.839932 0.492019 0.135763 0.274186
C19   C     C_3   0.103269 0.716836 0.715619 -0.850636
H17   H     H_    0.056890 0.652480 0.812787 0.228797
H18   H     H_    0.202605 0.711714 0.737680 0.248949
H19   H     H_    0.077768 0.833712 0.740140 0.223062
C20   C     C_3   0.137636 0.789105 0.427047 -0.847885
H20   H     H_    0.112190 0.901312 0.472123 0.218990
H21   H     H_    0.238181 0.780624 0.436123 0.223881
H22   H     H_    0.114642 0.792751 0.294050 0.223860
C21   C     C_3   0.855696 0.770364 0.631240 -0.835233
H23   H     H_    0.755431 0.765804 0.616792 0.234331
H24   H     H_    0.875507 0.752749 0.763709 0.219466
H25   H     H_    0.882114 0.887611 0.610747 0.217003
C22   C     C_3   0.888923 0.743086 0.333728 -0.850924
H26   H     H_    0.789031 0.739342 0.314586 0.241092
H27   H     H_    0.913084 0.862246 0.331006 0.220897
H28   H     H_    0.932094 0.694175 0.223562 0.233451

loop_
_geom_bond_atom_site_label_1
_geom_bond_atom_site_label_2
_ccdc_geom_bond_type
C2    O4    A    
Cu2   O6    S    
C4    O7    A    
C6    C8    S    
C18   H14   S    
C15   H6    S    
Cu1   O7    S    
Cu2   N1    S    
C8    C17   S    
C6    H1    S    
C2    O3    A    
C18   H15   S    
C9    H4    S    
C11   C19   S    
C15   H5    S    
C22   H27   S    
C9    C14   S    
C20   H22   S    
C7    H2    S    
C21   H23   S    
Cu1   O1    S    
C6    C15   S    
C15   H7    S    
C22   H26   S    
Cu2   O2    S    
N1    N2    T    
C6    C13   S    
C11   C13   S    
C3    C14   S    
C7    C16   S    
C1    C5    S    
C3    O5    A    
C3    O6    A    
C16   H9    S    
C12   C14   S    
C1    O1    A    
C19   H19   S    
C21   H24   S    
Cu2   O4    S    
C18   H16   S    
Cu1   O3    S    
C8    H3    S    
C9    C18   S    
Cu2   O8    S    
C20   H20   S    
C12   C21   S    
C19   H17   S    
C7    C13   S    
C16   H10   S    
C11   C20   S    
C17   H12   S    
C1    O2    A    
C19   H18   S    
C21   H25   S    
C17   H11   S    
C7    C9    S    
C2    C13   S    
C17   H13   S    
C22   H28   S    
C8    C14   S    
C5    C10   T    
C11   C12   S    
C12   C22   S    
Cu1   O5    S    
Cu1   N2    S    
C4    O8    A    
Cu1   Cu2   S    
C4    C10   S    
C20   H21   S    
C16   H8    S    
