data_mof_unit_27200.cif
_audit_creation_date              2012-12-10T18:04:32-0500
_audit_creation_method            fapswitch 2.2
_symmetry_space_group_name_H-M    P1
_symmetry_Int_Tables_number       1
_space_group_crystal_system       triclinic
_cell_length_a                    19.265302
_cell_length_b                    17.787172
_cell_length_c                    12.704918
_cell_angle_alpha                 90.033529
_cell_angle_beta                  100.073594
_cell_angle_gamma                 90.003411
_cell_volume                      4286.5435529

loop_
_atom_site_label
_atom_site_type_symbol
_atom_type_description
_atom_site_fract_x
_atom_site_fract_y
_atom_site_fract_z
_atom_type_partial_charge
C1    C     C_R   0.411218 0.102817 0.443690 0.883476
C2    C     C_R   0.411143 0.897250 0.443595 0.881229
C3    C     C_R   0.911218 0.602817 0.443690 0.883475
C4    C     C_R   0.911143 0.397250 0.443595 0.881229
C5    C     C_R   0.743651 0.218370 0.537053 -0.014233
C6    C     C_R   0.744113 0.782156 0.537249 -0.010900
C7    C     C_R   0.243650 0.718370 0.537053 -0.014233
C8    C     C_R   0.244113 0.282156 0.537249 -0.010901
C9    C     C_R   0.783998 0.210697 0.641499 0.105692
C10   C     C_R   0.784025 0.789281 0.642062 0.104494
C11   C     C_R   0.283998 0.710697 0.641499 0.105692
C12   C     C_R   0.284025 0.289281 0.642062 0.104494
C13   C     C_R   0.352596 0.738416 0.663920 -0.208900
C14   C     C_R   0.352513 0.261286 0.664855 -0.207880
C15   C     C_R   0.852596 0.238416 0.663920 -0.208899
C16   C     C_R   0.852513 0.761286 0.664855 -0.207880
C17   C     C_R   0.379767 0.777766 0.586224 -0.165515
C18   C     C_R   0.379873 0.222064 0.587136 -0.161983
C19   C     C_R   0.879767 0.277766 0.586224 -0.165515
C20   C     C_R   0.879873 0.722064 0.587136 -0.161983
C21   C     C_R   0.672399 0.197136 0.520429 0.442421
C22   C     C_R   0.672875 0.803385 0.520103 0.444736
C23   C     C_R   0.172399 0.697136 0.520429 0.442421
C24   C     C_R   0.172875 0.303386 0.520103 0.444736
C25   C     C_R   0.688562 0.142962 0.698146 -0.248032
C26   C     C_R   0.688248 0.856679 0.698398 -0.244303
C27   C     C_R   0.188562 0.642962 0.698146 -0.248032
C28   C     C_R   0.188248 0.356679 0.698398 -0.244303
C29   C     C_R   0.361335 0.836669 0.407864 -0.256697
C30   C     C_R   0.361716 0.163683 0.408219 -0.257501
C31   C     C_R   0.861335 0.336669 0.407864 -0.256697
C32   C     C_R   0.861716 0.663683 0.408219 -0.257502
C33   C     C_R   0.645994 0.003412 0.140250 0.471883
C34   C     C_R   0.145994 0.503412 0.140250 0.471883
C35   C     C_R   0.377536 0.999722 0.760019 0.021129
C36   C     C_R   0.877535 0.499722 0.760019 0.021129
C37   C     C_R   0.351075 0.000162 0.854614 -0.251265
C38   C     C_R   0.851075 0.500162 0.854614 -0.251265
C39   C     C_R   0.590559 0.899286 0.557328 0.907849
C40   C     C_R   0.590550 0.100714 0.557366 0.907882
C41   C     C_R   0.090559 0.399286 0.557328 0.907850
C42   C     C_R   0.090551 0.600714 0.557366 0.907881
C43   C     C_R   0.397635 0.000882 0.951402 -0.105298
C44   C     C_R   0.897634 0.500882 0.951402 -0.105298
C45   C     C_R   0.471429 0.001113 0.953823 -0.035324
C46   C     C_R   0.971429 0.501113 0.953823 -0.035324
C47   C     C_R   0.495936 0.000682 0.855378 0.112799
C48   C     C_R   0.995936 0.500682 0.855378 0.112799
C49   C     C_R   0.521712 0.001573 0.049700 -0.095101
C50   C     C_R   0.021712 0.501573 0.049700 -0.095101
C51   C     C_R   0.595306 0.002237 0.046337 -0.037252
C52   C     C_R   0.095306 0.502237 0.046337 -0.037252
C53   C     C_R   0.617557 0.002069 0.949295 -0.304022
C54   C     C_R   0.117557 0.502069 0.949295 -0.304022
C55   C     C_R   0.569377 0.000980 0.856205 0.554324
C56   C     C_R   0.069377 0.500980 0.856205 0.554324
C57   C     C_R   0.502167 0.000950 0.149830 0.024436
C58   C     C_R   0.002167 0.500950 0.149830 0.024436
C59   C     C_R   0.622261 0.000531 0.236610 -0.084346
C60   C     C_R   0.122261 0.500531 0.236610 -0.084346
C61   C     C_R   0.755298 0.174798 0.722011 -0.218520
C62   C     C_R   0.754966 0.824818 0.722557 -0.216206
C63   C     C_R   0.255298 0.674798 0.722011 -0.218520
C64   C     C_R   0.254966 0.324819 0.722557 -0.216206
C65   C     C_R   0.648691 0.151115 0.595559 -0.172203
C66   C     C_R   0.648755 0.848945 0.595444 -0.174282
C67   C     C_R   0.148691 0.651115 0.595559 -0.172204
C68   C     C_R   0.148755 0.348945 0.595444 -0.174282
C69   C     C_R   0.329449 0.831767 0.299382 0.652042
C70   C     C_R   0.330173 0.169069 0.299626 0.642134
C71   C     C_R   0.829449 0.331767 0.299382 0.652041
C72   C     C_R   0.830173 0.669069 0.299626 0.642134
C73   C     C_R   0.274516 0.781574 0.268107 -0.271576
C74   C     C_R   0.275787 0.219881 0.268335 -0.248911
C75   C     C_R   0.774516 0.281574 0.268107 -0.271576
C76   C     C_R   0.775787 0.719881 0.268335 -0.248911
C77   C     C_R   0.246705 0.741487 0.344859 -0.242039
C78   C     C_R   0.248082 0.260128 0.345107 -0.209565
C79   C     C_R   0.746705 0.241487 0.344859 -0.242040
C80   C     C_R   0.748082 0.760128 0.345107 -0.209565
C81   C     C_R   0.275261 0.749473 0.454696 0.104494
C82   C     C_R   0.276040 0.251372 0.455006 0.092572
C83   C     C_R   0.775261 0.249473 0.454696 0.104493
C84   C     C_R   0.776039 0.751372 0.455006 0.092572
C85   C     C_R   0.339407 0.788288 0.483314 -0.004303
C86   C     C_R   0.339844 0.212034 0.483850 -0.003772
C87   C     C_R   0.839407 0.288288 0.483314 -0.004303
C88   C     C_R   0.839844 0.712034 0.483850 -0.003772
H1    H     H_    0.669792 0.109718 0.758402 0.229073
H2    H     H_    0.669167 0.889554 0.758792 0.231856
H3    H     H_    0.169792 0.609718 0.758402 0.229073
H4    H     H_    0.169167 0.389554 0.758792 0.231856
H5    H     H_    0.673194 0.002575 0.944321 0.217590
H6    H     H_    0.173194 0.502575 0.944321 0.217590
H7    H     H_    0.448339 0.000723 0.162213 0.194738
H8    H     H_    0.948339 0.500723 0.162213 0.194738
H9    H     H_    0.341773 0.999272 0.684223 0.145956
H10   H     H_    0.841773 0.499272 0.684223 0.145956
H11   H     H_    0.374158 0.001337 0.022346 0.186415
H12   H     H_    0.874158 0.501337 0.022346 0.186415
H13   H     H_    0.294705 0.000010 0.853008 0.159969
H14   H     H_    0.794705 0.500010 0.853008 0.159969
H15   H     H_    0.384612 0.731423 0.742398 0.148366
H16   H     H_    0.384242 0.267876 0.743636 0.148619
H17   H     H_    0.884612 0.231423 0.742398 0.148365
H18   H     H_    0.884242 0.767876 0.743636 0.148619
H19   H     H_    0.785773 0.168069 0.801639 0.157995
H20   H     H_    0.785116 0.831162 0.802483 0.162862
H21   H     H_    0.285773 0.668069 0.801639 0.157995
H22   H     H_    0.285117 0.331162 0.802483 0.162862
H23   H     H_    0.704709 0.202488 0.316324 0.212989
H24   H     H_    0.706633 0.799799 0.316685 0.223672
H25   H     H_    0.204709 0.702488 0.316324 0.212989
H26   H     H_    0.206632 0.299799 0.316685 0.223672
H27   H     H_    0.251552 0.775768 0.184413 0.173196
H28   H     H_    0.253183 0.226093 0.184575 0.181923
H29   H     H_    0.751552 0.275768 0.184413 0.173197
H30   H     H_    0.753184 0.726093 0.184575 0.181923
H31   H     H_    0.433278 0.798346 0.606815 0.159434
H32   H     H_    0.433261 0.201215 0.608038 0.158961
H33   H     H_    0.933278 0.298346 0.606815 0.159434
H34   H     H_    0.933261 0.701215 0.608038 0.158961
H35   H     H_    0.658944 0.998573 0.311477 0.147111
H36   H     H_    0.158944 0.498573 0.311477 0.147111
N1    N     N_R   0.552340 0.000000 0.237260 -0.138675
N2    N     N_R   0.052340 0.500000 0.237260 -0.138676
N3    N     N_R   0.448170 0.000000 0.762060 -0.115194
N4    N     N_R   0.948170 0.500000 0.762060 -0.115194
O1    O     O_R   0.448200 0.076800 0.373930 -0.540751
O2    O     O_R   0.448200 0.923200 0.373930 -0.540891
O3    O     O_R   0.948200 0.576800 0.373930 -0.540751
O4    O     O_R   0.948200 0.423200 0.373930 -0.540891
O5    O     O_R   0.414750 0.076790 0.542400 -0.632850
O6    O     O_R   0.414750 0.923210 0.542400 -0.632125
O7    O     O_R   0.914750 0.576790 0.542400 -0.632850
O8    O     O_R   0.914750 0.423210 0.542400 -0.632125
O9    O     O_R   0.585240 0.923200 0.457600 -0.588154
O10   O     O_R   0.585240 0.076800 0.457600 -0.591598
O11   O     O_R   0.085240 0.423200 0.457600 -0.588154
O12   O     O_R   0.085240 0.576800 0.457600 -0.591598
O13   O     O_R   0.551780 0.923190 0.626070 -0.558227
O14   O     O_R   0.551780 0.076810 0.626070 -0.559508
O15   O     O_R   0.051780 0.423190 0.626070 -0.558227
O16   O     O_R   0.051780 0.576810 0.626070 -0.559508
Zn1   Zn    Zn3+2 0.522330 0.000000 0.387520 1.030688
Zn2   Zn    Zn3+2 0.022330 0.500000 0.387520 1.030688
Zn3   Zn    Zn3+2 0.477660 1.000000 0.612480 0.973477
Zn4   Zn    Zn3+2 0.977660 0.500000 0.612480 0.973477
O17   O     O_3   0.717467 0.001054 0.136693 -0.613635
C89   C     C_3   0.749124 0.068961 0.177725 -0.335207
H37   H     H_    0.720896 0.118898 0.138194 0.159147
H38   H     H_    0.803796 0.070674 0.161355 0.204703
H39   H     H_    0.752441 0.072189 0.265830 0.163151
O18   O     O_3   0.217466 0.501054 0.136693 -0.613635
C90   C     C_3   0.249123 0.568961 0.177725 -0.335207
H40   H     H_    0.220896 0.618898 0.138194 0.159147
H41   H     H_    0.303796 0.570674 0.161355 0.204703
H42   H     H_    0.252441 0.572190 0.265829 0.163151
F1    F     F_    0.598600 0.999951 0.769377 -0.685186
F2    F     F_    0.098600 0.499951 0.769377 -0.685186
O19   O     O_3   0.625830 0.219059 0.429902 -0.615873
C91   C     C_3   0.584319 0.278780 0.457418 -0.293367
H43   H     H_    0.549894 0.260097 0.514217 0.138446
H44   H     H_    0.549449 0.298632 0.383854 0.201547
H45   H     H_    0.617665 0.327152 0.491244 0.162821
O20   O     O_3   0.626718 0.781806 0.428899 -0.614577
C92   C     C_3   0.585098 0.721803 0.455199 -0.298334
H46   H     H_    0.550555 0.702250 0.381112 0.200224
H47   H     H_    0.618384 0.673350 0.488754 0.162746
H48   H     H_    0.550341 0.740061 0.511780 0.139044
O21   O     O_3   0.125830 0.719059 0.429901 -0.615873
C93   C     C_3   0.084318 0.778778 0.457418 -0.293364
H49   H     H_    0.049892 0.760094 0.514215 0.138444
H50   H     H_    0.049448 0.798631 0.383855 0.201547
H51   H     H_    0.117663 0.827151 0.491247 0.162820
O22   O     O_3   0.126718 0.281806 0.428899 -0.614577
C94   C     C_3   0.085099 0.221802 0.455199 -0.298338
H52   H     H_    0.050556 0.202249 0.381112 0.200225
H53   H     H_    0.118386 0.173349 0.488752 0.162747
H54   H     H_    0.050343 0.240058 0.511782 0.139045
F3    F     F_    0.350223 0.876241 0.223770 -0.663658
F4    F     F_    0.350831 0.124582 0.223864 -0.662571
F5    F     F_    0.850223 0.376241 0.223770 -0.663658
F6    F     F_    0.850831 0.624582 0.223864 -0.662571

loop_
_geom_bond_atom_site_label_1
_geom_bond_atom_site_label_2
_ccdc_geom_bond_type
C83   C87   A    
O21   C93   S    
C39   O9    A    
O11   Zn2   S    
C63   H21   S    
C40   O14   A    
C90   H41   S    
C11   C13   A    
C13   H15   S    
C14   C18   A    
C75   H29   S    
C72   C76   A    
O19   C91   S    
N2    Zn2   S    
C4    O4    A    
C10   C62   A    
C15   C19   A    
O6    Zn3   S    
C2    O6    A    
C2    C29   S    
C9    C61   A    
O9    Zn1   S    
C28   C68   A    
C43   H11   S    
C41   O15   A    
C1    O1    A    
C57   N1    A    
C12   C64   A    
C77   H25   S    
C62   H20   S    
O10   Zn1   S    
C6    C22   A    
C49   C57   A    
O3    Zn2   S    
C45   C47   A    
C23   C67   A    
C60   H36   S    
C58   H8    S    
C22   C66   A    
C34   C52   A    
C2    O2    A    
C14   H16   S    
C70   F4    S    
C39   O13   A    
C44   C46   A    
C93   H50   S    
C49   C51   A    
C89   H39   S    
C40   O10   A    
C70   C74   A    
C50   C52   A    
C27   H3    S    
O5    Zn3   S    
C22   O20   S    
C45   C49   A    
C8    C12   A    
C30   C86   A    
C29   C85   A    
C93   H51   S    
O16   Zn4   S    
C4    O8    A    
C21   C65   A    
C55   F1    S    
C33   C59   A    
O2    Zn1   S    
C34   C60   A    
C78   H26   S    
C36   N4    A    
C1    O5    A    
C17   C85   A    
C30   C70   A    
C52   C54   A    
C38   C44   A    
C92   H48   S    
C29   C69   A    
C53   C55   A    
C59   H35   S    
O15   Zn4   S    
C54   C56   A    
C71   C75   A    
C3    O7    A    
C31   C87   A    
C53   H5    S    
C80   C84   A    
C26   C66   A    
C71   F5    S    
C6    C84   A    
C72   F6    S    
C92   H47   S    
O12   Zn2   S    
C92   H46   S    
C10   C16   A    
C17   H31   S    
N4    Zn4   S    
C25   C61   A    
C94   H53   S    
C82   C86   A    
C24   C68   A    
C42   O12   A    
C76   H30   S    
C74   C78   A    
C51   C53   A    
C5    C21   A    
C50   C58   A    
C37   C43   A    
C7    C11   A    
C5    C9    A    
C54   H6    S    
C48   N4    A    
C91   H45   S    
C78   C82   A    
C90   H42   S    
C64   H22   S    
C77   C81   A    
C26   H2    S    
C16   C20   A    
C94   H54   S    
C74   H28   S    
C80   H24   S    
C25   C65   A    
C28   H4    S    
C18   C86   A    
C69   C73   A    
C43   C45   A    
O18   C90   S    
O8    Zn4   S    
C27   C63   A    
C28   C64   A    
O22   C94   S    
C7    C81   A    
C12   C14   A    
C58   N2    A    
C34   O18   S    
C40   C65   S    
C42   O16   A    
O20   C92   S    
C39   C66   S    
C3    O3    A    
C33   C51   A    
C24   O22   S    
C18   H32   S    
C35   N3    A    
C93   H49   S    
C47   C55   A    
C91   H43   S    
C48   C56   A    
C41   C68   S    
C19   H33   S    
C35   C37   A    
O1    Zn1   S    
O14   Zn3   S    
C76   C80   A    
C6    C10   A    
C5    C83   A    
C47   N3    A    
C79   H23   S    
C59   N1    A    
C46   C50   A    
C25   H1    S    
C20   H34   S    
C73   H27   S    
C13   C17   A    
O4    Zn2   S    
C15   H17   S    
C36   C38   A    
C9    C15   A    
C19   C87   A    
C56   F2    S    
C91   H44   S    
C33   O17   S    
O17   C89   S    
C37   H13   S    
C44   H12   S    
C16   H18   S    
C42   C67   S    
C84   C88   A    
C7    C23   A    
C20   C88   A    
C60   N2    A    
C1    C30   S    
C8    C24   A    
C89   H38   S    
O7    Zn4   S    
C26   C62   A    
C3    C32   S    
C61   H19   S    
C41   O11   A    
C4    C31   S    
C27   C67   A    
O13   Zn3   S    
C79   C83   A    
C46   C48   A    
C8    C82   A    
C23   O21   S    
C38   H14   S    
C94   H52   S    
C57   H7    S    
C69   F3    S    
C90   H40   S    
C73   C77   A    
C89   H37   S    
C36   H10   S    
C35   H9    S    
C11   C63   A    
C75   C79   A    
N1    Zn1   S    
C81   C85   A    
N3    Zn3   S    
C31   C71   A    
C32   C72   A    
C21   O19   S    
C32   C88   A    
