data_mof_unit_49096.cif
_audit_creation_date              2012-12-11T14:04:20-0500
_audit_creation_method            fapswitch 2.2
_symmetry_space_group_name_H-M    P1
_symmetry_Int_Tables_number       1
_space_group_crystal_system       triclinic
_cell_length_a                    18.978861
_cell_length_b                    11.16303
_cell_length_c                    18.847658
_cell_angle_alpha                 90.049927
_cell_angle_beta                  89.177605
_cell_angle_gamma                 90.264823
_cell_volume                      3992.63961054

loop_
_atom_site_label
_atom_site_type_symbol
_atom_type_description
_atom_site_fract_x
_atom_site_fract_y
_atom_site_fract_z
_atom_type_partial_charge
C1    C     C_R   0.239216 0.469969 0.646134 0.542340
C2    C     C_R   0.995356 0.661211 0.574749 -0.042668
C3    C     C_3   0.219554 0.174877 0.937496 -0.426909
C4    C     C_3   0.310371 0.728535 0.542566 -0.228033
C5    C     C_3   0.343090 0.673190 0.475510 -0.452356
C6    C     C_3   0.690675 0.718662 0.455718 -0.227310
C7    C     C_3   0.654131 0.658693 0.519638 -0.448196
C8    C     C_3   0.810382 0.228544 0.542565 -0.228040
C9    C     C_3   0.843099 0.173200 0.475508 -0.452346
C10   C     C_3   0.190680 0.218676 0.455724 -0.227307
C11   C     C_3   0.154143 0.158717 0.519649 -0.448187
C12   C     C_R   0.506048 0.166996 0.424567 -0.045588
C13   C     C_R   0.495341 0.161209 0.574755 -0.042674
C14   C     C_R   0.005594 0.888357 0.430346 -0.077062
C15   C     C_R   0.977381 0.878084 0.575947 -0.080954
C16   C     C_R   0.505568 0.388353 0.430351 -0.077082
C17   C     C_R   0.477363 0.378082 0.575953 -0.080948
C18   C     C_R   0.993698 0.992882 0.468869 -0.132818
C19   C     C_R   0.977965 0.987292 0.541130 -0.132024
C20   C     C_R   0.493651 0.492875 0.468869 -0.132814
C21   C     C_R   0.760702 0.470038 0.353726 0.539900
C22   C     C_R   0.477923 0.487286 0.541135 -0.132033
C23   C     C_R   0.992120 0.771641 0.538777 0.008283
C24   C     C_R   0.001035 0.775544 0.463703 0.008643
C25   C     C_R   0.492108 0.271640 0.538783 0.008293
C26   C     C_R   0.501023 0.275541 0.463709 0.008634
C27   C     C_R   0.994435 0.555104 0.534119 0.008717
C28   C     C_R   0.014794 0.559614 0.462313 0.006489
C29   C     C_R   0.494415 0.055100 0.534127 0.008723
C30   C     C_R   0.514776 0.059607 0.462322 0.006498
C31   C     C_R   0.976462 0.443161 0.563787 -0.079295
C32   C     C_R   0.739216 0.969969 0.646134 0.542346
C33   C     C_R   0.036377 0.453206 0.428407 -0.072676
C34   C     C_R   0.476445 0.943160 0.563799 -0.079295
C35   C     C_R   0.536360 0.953198 0.428419 -0.072665
C36   C     C_R   0.990862 0.338571 0.526820 -0.143465
C37   C     C_R   0.022365 0.343415 0.459730 -0.131480
C38   C     C_R   0.490857 0.838565 0.526836 -0.143465
C39   C     C_R   0.522357 0.843406 0.459745 -0.131502
C40   C     C_2   0.239601 0.900524 0.926012 -0.104601
C41   C     C_2   0.760232 0.900391 0.074059 -0.103145
C42   C     C_2   0.739603 0.400527 0.926011 -0.104583
C43   C     C_R   0.260703 0.970042 0.353728 0.539909
C44   C     C_2   0.260227 0.400387 0.074058 -0.103176
C45   C     C_2   0.250721 0.891706 0.086494 0.021904
C46   C     C_2   0.748725 0.891745 0.913529 0.019823
C47   C     C_2   0.750722 0.391708 0.086493 0.021918
C48   C     C_2   0.248734 0.391743 0.913526 0.019803
C49   C     C_R   0.228510 0.874209 0.648553 0.546527
C50   C     C_R   0.771971 0.872833 0.352264 0.547060
C51   C     C_R   0.728510 0.374209 0.648553 0.546524
C52   C     C_R   0.271969 0.372837 0.352262 0.547065
C53   C     C_2   0.193896 0.913697 0.047141 -0.151857
C54   C     C_2   0.293737 0.861120 0.535541 -0.025538
C55   C     C_2   0.805716 0.913683 0.952830 -0.153536
C56   C     C_2   0.693898 0.413706 0.047140 -0.151822
C57   C     C_2   0.305717 0.413722 0.952833 -0.153465
C58   C     C_2   0.188478 0.875503 0.973789 -0.157978
C59   C     C_2   0.811094 0.875386 0.026125 -0.157419
C60   C     C_2   0.688479 0.375513 0.973788 -0.157985
C61   C     C_2   0.311102 0.375439 0.026128 -0.157448
C62   C     C_2   0.011778 0.655276 0.926874 -0.107351
C63   C     C_2   0.010129 0.664344 0.083407 -0.114973
C64   C     C_2   0.511779 0.155276 0.926875 -0.107347
C65   C     C_2   0.707407 0.851041 0.465694 -0.024971
C66   C     C_2   0.510129 0.164345 0.083407 -0.114971
C67   C     C_2   0.025113 0.566671 0.045492 -0.171721
C68   C     C_2   0.039957 0.572426 0.969856 -0.161646
C69   C     C_2   0.525115 0.066674 0.045493 -0.171713
C70   C     C_2   0.539961 0.072431 0.969856 -0.161642
C71   C     C_R   0.027766 0.654468 0.646244 0.526812
C72   C     C_R   0.972406 0.655871 0.353662 0.524272
C73   C     C_R   0.527764 0.154468 0.646246 0.526818
C74   C     C_R   0.472403 0.155870 0.353664 0.524278
C75   C     C_R   0.238542 0.463784 0.849862 0.553489
C76   C     C_2   0.793739 0.361126 0.535540 -0.025542
C77   C     C_R   0.761308 0.463826 0.150195 0.555547
C78   C     C_R   0.738538 0.963792 0.849866 0.553530
C79   C     C_R   0.261308 0.963826 0.150194 0.555519
C80   C     C_R   0.226326 0.871270 0.853323 0.544466
C81   C     C_R   0.773596 0.871441 0.146718 0.546012
C82   C     C_R   0.726326 0.371270 0.853323 0.544439
C83   C     C_R   0.273596 0.371438 0.146717 0.545992
C84   C     C_R   0.032270 0.651311 0.852570 0.545277
C85   C     C_R   0.971763 0.652679 0.150105 0.547942
C86   C     C_R   0.532270 0.151311 0.852570 0.545266
C87   C     C_2   0.207407 0.351059 0.465691 -0.024961
C88   C     C_R   0.471763 0.152679 0.150105 0.547945
C89   C     C_2   0.259514 0.926599 0.585130 -0.111158
C90   C     C_2   0.742400 0.920063 0.417802 -0.110664
C91   C     C_2   0.759514 0.426602 0.585131 -0.111161
C92   C     C_2   0.242394 0.420076 0.417796 -0.110663
C93   C     C_2   0.249382 0.917861 0.422580 -0.134397
C94   C     C_2   0.751146 0.916137 0.577732 -0.138552
C95   C     C_2   0.749383 0.417848 0.422575 -0.134393
C96   C     C_2   0.251146 0.416138 0.577732 -0.138548
C97   C     C_2   0.303446 0.917108 0.467136 -0.143149
C98   C     C_R   0.006059 0.667001 0.424561 -0.045591
C99   C     C_2   0.696171 0.902979 0.535015 -0.144278
C100  C     C_2   0.803443 0.417119 0.467137 -0.143149
C101  C     C_2   0.196172 0.403007 0.535010 -0.144276
C102  C     C_3   0.307687 0.801385 0.064964 -0.264562
C103  C     C_3   0.278679 0.675024 0.061721 -0.430356
C104  C     C_3   0.691290 0.801351 0.934971 -0.269816
C105  C     C_3   0.719507 0.674855 0.937283 -0.426902
C106  C     C_3   0.807688 0.301388 0.064961 -0.264564
C107  C     C_3   0.778679 0.175029 0.061701 -0.430361
C108  C     C_3   0.191301 0.301344 0.934968 -0.269742
Cr1   Cr    Cr6+3 0.113970 0.508630 0.747920 1.004487
Cr2   Cr    Cr6+3 0.887700 0.820070 0.250200 1.008243
Cr3   Cr    Cr6+3 0.612300 0.320070 0.749800 1.012027
Cr4   Cr    Cr6+3 0.387700 0.320070 0.250200 1.008226
Cr5   Cr    Cr6+3 0.886030 0.508630 0.252080 1.006222
Cr6   Cr    Cr6+3 0.613970 0.008630 0.747920 1.004486
Cr7   Cr    Cr6+3 0.386030 0.008630 0.252080 1.006217
Cr8   Cr    Cr6+3 0.269200 0.666740 0.749850 1.001665
Cr9   Cr    Cr6+3 0.730800 0.666740 0.250150 0.998833
Cr10  Cr    Cr6+3 0.769200 0.166740 0.749850 1.001669
Cr11  Cr    Cr6+3 0.230800 0.166740 0.250150 0.998822
Cr12  Cr    Cr6+3 0.112300 0.820070 0.749800 1.012030
H1    H     H_    0.355508 0.950465 0.452270 0.170541
H2    H     H_    0.711673 0.945290 0.060648 0.082996
H3    H     H_    0.788273 0.445728 0.939563 0.086015
H4    H     H_    0.211653 0.445233 0.060645 0.083054
H5    H     H_    0.021990 0.477862 0.068919 0.150975
H6    H     H_    0.072153 0.500295 0.948426 0.150245
H7    H     H_    0.521992 0.977864 0.068920 0.150972
H8    H     H_    0.572163 0.000305 0.948427 0.150229
H9    H     H_    0.016907 0.753319 0.060888 0.097856
H10   H     H_    0.979911 0.728814 0.946817 0.086473
H11   H     H_    0.516907 0.253321 0.060889 0.097851
H12   H     H_    0.642657 0.924186 0.551776 0.177581
H13   H     H_    0.479908 0.228808 0.946817 0.086481
H14   H     H_    0.197048 0.887725 0.438938 0.106393
H15   H     H_    0.804578 0.897011 0.559527 0.111642
H16   H     H_    0.697058 0.387672 0.438924 0.106391
H17   H     H_    0.304575 0.396985 0.559533 0.111642
H18   H     H_    0.250135 0.019972 0.575578 0.087207
H19   H     H_    0.752881 0.012303 0.430132 0.086184
H20   H     H_    0.750128 0.519972 0.575577 0.087208
H21   H     H_    0.252865 0.512324 0.430116 0.086179
H22   H     H_    0.995118 0.077820 0.441958 0.100155
H23   H     H_    0.855491 0.450529 0.452282 0.170524
H24   H     H_    0.965606 0.066768 0.570998 0.101246
H25   H     H_    0.495044 0.577811 0.441952 0.100157
H26   H     H_    0.465521 0.566751 0.570995 0.101253
H27   H     H_    0.019839 0.897111 0.374832 0.131406
H28   H     H_    0.962826 0.877257 0.631672 0.127775
H29   H     H_    0.519793 0.397109 0.374837 0.131444
H30   H     H_    0.462803 0.377248 0.631678 0.127761
H31   H     H_    0.060725 0.454654 0.376061 0.130445
H32   H     H_    0.951514 0.436136 0.615670 0.135518
H33   H     H_    0.560720 0.954644 0.376074 0.130441
H34   H     H_    0.142661 0.424246 0.551765 0.177572
H35   H     H_    0.451505 0.936136 0.615686 0.135518
H36   H     H_    0.978748 0.254163 0.551235 0.096255
H37   H     H_    0.034957 0.262762 0.430955 0.096466
H38   H     H_    0.478765 0.754154 0.551259 0.096263
H39   H     H_    0.534964 0.762744 0.430978 0.096469
H40   H     H_    0.151448 0.969888 0.067142 0.138390
H41   H     H_    0.848417 0.969933 0.932825 0.139083
H42   H     H_    0.651450 0.469896 0.067141 0.138379
H43   H     H_    0.348411 0.469985 0.932827 0.139080
H44   H     H_    0.252382 0.651293 0.112882 0.154095
H45   H     H_    0.138457 0.837388 0.957328 0.150004
H46   H     H_    0.240962 0.664308 0.017708 0.168919
H47   H     H_    0.323677 0.613925 0.052256 0.154479
H48   H     H_    0.333925 0.824113 0.014081 0.139373
H49   H     H_    0.351281 0.799213 0.103519 0.164630
H50   H     H_    0.745176 0.651658 0.885766 0.154235
H51   H     H_    0.757594 0.663696 0.980863 0.167181
H52   H     H_    0.674272 0.613589 0.946852 0.154802
H53   H     H_    0.665557 0.823410 0.986168 0.131086
H54   H     H_    0.647392 0.799900 0.896744 0.161582
H55   H     H_    0.752373 0.151286 0.112856 0.154085
H56   H     H_    0.861011 0.837515 0.042464 0.144545
H57   H     H_    0.740969 0.164327 0.017682 0.168917
H58   H     H_    0.823676 0.113928 0.052235 0.154478
H59   H     H_    0.833934 0.324132 0.014085 0.139370
H60   H     H_    0.851276 0.299201 0.103523 0.164631
H61   H     H_    0.245587 0.151680 0.886157 0.154157
H62   H     H_    0.257334 0.163779 0.981356 0.167279
H63   H     H_    0.174281 0.113559 0.946767 0.154793
H64   H     H_    0.165457 0.323573 0.986086 0.130985
H65   H     H_    0.147489 0.299705 0.896643 0.161610
H66   H     H_    0.307553 0.683962 0.429816 0.159616
H67   H     H_    0.638457 0.337401 0.957327 0.150004
H68   H     H_    0.393485 0.716958 0.461104 0.160257
H69   H     H_    0.352965 0.576749 0.484588 0.149125
H70   H     H_    0.348120 0.715790 0.586357 0.172600
H71   H     H_    0.260722 0.679202 0.554710 0.170163
H72   H     H_    0.684020 0.674447 0.568846 0.160817
H73   H     H_    0.600982 0.694355 0.528987 0.155641
H74   H     H_    0.648528 0.561163 0.509819 0.151152
H75   H     H_    0.655356 0.707229 0.409824 0.180658
H76   H     H_    0.741030 0.671214 0.445435 0.169027
H77   H     H_    0.807555 0.183958 0.429819 0.159613
H78   H     H_    0.361032 0.337617 0.042469 0.144559
H79   H     H_    0.893486 0.216981 0.461093 0.160277
H80   H     H_    0.852987 0.076762 0.484588 0.149120
H81   H     H_    0.848134 0.215809 0.586353 0.172587
H82   H     H_    0.760739 0.179201 0.554714 0.170172
H83   H     H_    0.184038 0.174477 0.568854 0.160821
H84   H     H_    0.100993 0.194380 0.529001 0.155654
H85   H     H_    0.148541 0.061183 0.509833 0.151138
H86   H     H_    0.155358 0.207232 0.409832 0.180651
H87   H     H_    0.241036 0.171230 0.445441 0.169021
H88   H     H_    0.288270 0.945728 0.939567 0.086022
O1    O     O_R   0.043230 0.549300 0.667990 -0.523964
O2    O     O_R   0.832470 0.905110 0.169660 -0.518198
O3    O     O_R   0.667530 0.405110 0.830340 -0.518599
O4    O     O_R   0.332470 0.405110 0.169660 -0.518201
O5    O     O_R   0.054010 0.748440 0.822860 -0.502995
O6    O     O_R   0.945990 0.748440 0.177140 -0.506355
O7    O     O_R   0.554010 0.248440 0.822860 -0.502992
O8    O     O_R   0.445990 0.248440 0.177140 -0.506357
O9    O     O_3   0.165160 0.665150 0.749190 -0.248278
O10   O     O_3   0.834840 0.665150 0.250810 -0.246288
O11   O     O_3   0.665160 0.165150 0.749190 -0.248281
O12   O     O_R   0.956770 0.549300 0.332010 -0.520937
O13   O     O_3   0.334840 0.165150 0.250810 -0.246285
O14   O     O_R   0.178620 0.457600 0.674100 -0.494090
O15   O     O_R   0.821380 0.457600 0.325900 -0.492729
O16   O     O_R   0.678620 0.957600 0.674100 -0.494090
O17   O     O_R   0.321380 0.957600 0.325900 -0.492735
O18   O     O_R   0.284680 0.542100 0.669460 -0.535368
O19   O     O_R   0.715320 0.542100 0.330540 -0.537384
O20   O     O_R   0.784680 0.042100 0.669460 -0.535361
O21   O     O_R   0.215320 0.042100 0.330540 -0.537380
O22   O     O_R   0.262860 0.790390 0.676650 -0.513144
O23   O     O_R   0.543230 0.049300 0.667990 -0.523964
O24   O     O_R   0.737140 0.790390 0.323350 -0.514883
O25   O     O_R   0.762860 0.290390 0.676650 -0.513139
O26   O     O_R   0.237140 0.290390 0.323350 -0.514876
O27   O     O_R   0.167460 0.907030 0.670940 -0.508285
O28   O     O_R   0.832540 0.907030 0.329060 -0.509752
O29   O     O_R   0.667460 0.407030 0.670940 -0.508288
O30   O     O_R   0.332540 0.407030 0.329060 -0.509756
O31   O     O_R   0.053950 0.750220 0.675100 -0.499568
O32   O     O_R   0.946050 0.750220 0.324900 -0.505342
O33   O     O_R   0.553950 0.250220 0.675100 -0.499560
O34   O     O_R   0.456770 0.049300 0.332010 -0.520941
O35   O     O_R   0.446050 0.250220 0.324900 -0.505359
O36   O     O_R   0.043300 0.547370 0.827390 -0.518020
O37   O     O_R   0.956700 0.547370 0.172610 -0.517349
O38   O     O_R   0.543300 0.047370 0.827390 -0.518031
O39   O     O_R   0.456700 0.047370 0.172610 -0.517349
O40   O     O_R   0.178690 0.455820 0.821860 -0.514335
O41   O     O_R   0.821310 0.455820 0.178140 -0.508007
O42   O     O_R   0.678690 0.955820 0.821860 -0.514325
O43   O     O_R   0.321310 0.955820 0.178140 -0.508001
O44   O     O_R   0.284750 0.540170 0.828860 -0.521323
O45   O     O_R   0.262920 0.788600 0.824420 -0.494308
O46   O     O_R   0.715250 0.540170 0.171140 -0.522810
O47   O     O_R   0.784750 0.040170 0.828860 -0.521323
O48   O     O_R   0.215250 0.040170 0.171140 -0.522827
O49   O     O_R   0.737080 0.788600 0.175580 -0.495040
O50   O     O_R   0.762920 0.288600 0.824420 -0.494306
O51   O     O_R   0.237080 0.288600 0.175580 -0.495056
O52   O     O_R   0.167530 0.905110 0.830340 -0.518582

loop_
_geom_bond_atom_site_label_1
_geom_bond_atom_site_label_2
_ccdc_geom_bond_type
C1    O18   A    
C32   C94   S    
C40   H88   S    
C103  H47   S    
C19   H24   S    
C105  H52   S    
C12   C74   S    
C82   O50   A    
Cr4   O13   S    
C62   H10   S    
Cr11  O51   S    
C17   H30   S    
C42   C82   S    
C8    C76   S    
Cr6   O11   S    
C44   C83   S    
Cr11  O48   S    
C6    H76   S    
C90   H19   S    
C52   O26   A    
C48   C57   D    
Cr1   O14   S    
C72   C98   S    
C34   H35   S    
C49   C89   S    
C101  H34   S    
C15   C19   A    
C63   C85   S    
C39   H39   S    
C103  H44   S    
Cr3   O29   S    
C68   H6    S    
C6    H75   S    
C99   H12   S    
C24   C98   A    
C78   O47   A    
Cr4   O4    S    
Cr4   O8    S    
C13   C29   A    
C8    H81   S    
Cr2   O6    S    
Cr3   O7    S    
C82   O3    A    
C55   H41   S    
C55   C59   S    
C69   C70   S    
C67   H5    S    
Cr12  O27   S    
C66   C88   S    
C38   C39   A    
Cr2   O32   S    
C66   C69   D    
Cr7   O43   S    
C106  C107  S    
C14   C24   A    
Cr6   O42   S    
C56   H42   S    
Cr11  O13   S    
Cr5   O41   S    
C18   C19   A    
C37   H37   S    
C49   O22   A    
C58   H45   S    
C14   C18   A    
C86   O7    A    
Cr5   O15   S    
C97   H1    S    
C51   C91   S    
C87   C101  S    
C50   C90   S    
C6    C65   S    
Cr9   O19   S    
C32   O20   A    
Cr1   O40   S    
Cr2   O28   S    
C8    C9    S    
C71   O1    A    
C46   C55   D    
C23   C24   A    
C72   O32   A    
C54   C97   S    
C50   O24   A    
C16   H29   S    
C80   O52   A    
C3    C108  S    
C64   C70   D    
C7    H73   S    
C21   O15   A    
Cr5   O12   S    
C83   O4    A    
C9    H80   S    
C52   O30   A    
C12   C30   A    
C102  H49   S    
C15   C23   A    
C81   O2    A    
C15   H28   S    
C45   C53   D    
Cr3   O33   S    
C96   C101  D    
C107  H57   S    
C85   O37   A    
C48   C75   S    
C13   C25   A    
Cr12  O31   S    
Cr2   O2    S    
Cr3   O11   S    
C5    H66   S    
Cr1   O1    S    
C64   C86   S    
C104  C105  S    
C32   O16   A    
C9    H77   S    
C42   H3    S    
C6    C7    S    
Cr7   O39   S    
Cr8   O45   S    
Cr4   O35   S    
C16   C26   A    
C65   C90   D    
C21   O19   A    
C63   C67   D    
C10   C87   S    
C40   C58   D    
C105  H50   S    
C108  H64   S    
C27   C31   A    
C67   C68   S    
C22   H26   S    
C108  H65   S    
C18   H22   S    
C65   C99   S    
C54   C89   D    
C51   O29   A    
C59   H56   S    
C80   O45   A    
C42   C60   D    
Cr6   O23   S    
C46   C78   S    
C95   C100  D    
Cr12  O9    S    
C104  H54   S    
C21   C95   S    
Cr1   O36   S    
Cr10  O20   S    
C25   C26   A    
Cr12  O52   S    
C46   C104  S    
C29   C34   A    
C44   H4    S    
C33   C37   A    
C105  H51   S    
C56   C60   S    
Cr8   O18   S    
C1    O14   A    
C71   O31   A    
C41   H2    S    
C35   C39   A    
C10   H87   S    
C45   C79   S    
C29   C30   A    
C96   H17   S    
C4    H70   S    
Cr7   O34   S    
Cr9   O49   S    
Cr9   O46   S    
Cr11  O26   S    
Cr8   O22   S    
C57   H43   S    
C16   C20   A    
C47   C106  S    
C41   C81   S    
C2    C23   A    
C40   C80   S    
C94   H15   S    
Cr9   O10   S    
C84   O36   A    
C11   H83   S    
C7    H74   S    
C50   O28   A    
C92   H21   S    
C3    H61   S    
C38   H38   S    
C2    C27   A    
C74   O35   A    
C30   C35   A    
Cr5   O37   S    
C13   C73   S    
C28   C33   A    
C93   H14   S    
C60   H67   S    
Cr4   O30   S    
C10   C11   S    
C107  H58   S    
C33   H31   S    
C48   C108  S    
C7    H72   S    
C52   C92   S    
C77   O41   A    
C47   C77   S    
C2    C71   S    
C93   C97   D    
C106  H59   S    
C73   O23   A    
C84   O5    A    
C36   H36   S    
C66   H11   S    
C28   C98   A    
C62   C84   S    
C64   H13   S    
C36   C37   A    
C53   H40   S    
C102  H48   S    
C88   O8    A    
C4    C54   S    
C34   C38   A    
C79   O43   A    
C45   C102  S    
Cr7   O13   S    
C77   O46   A    
C35   H33   S    
C20   C22   A    
C4    C5    S    
C100  H23   S    
C61   H78   S    
C53   C58   S    
C43   O21   A    
Cr7   O17   S    
C104  H53   S    
Cr10  O50   S    
C44   C61   D    
C76   C100  S    
C4    H71   S    
Cr8   O44   S    
Cr9   O24   S    
C81   O49   A    
C17   C22   A    
C62   C68   D    
C57   C61   S    
C51   O25   A    
C17   C25   A    
C8    H82   S    
Cr12  O5    S    
C10   H86   S    
C79   O48   A    
C5    H69   S    
C49   O27   A    
C85   O6    A    
C106  H60   S    
C88   O39   A    
C31   H32   S    
Cr10  O25   S    
Cr6   O38   S    
C107  H55   S    
C94   C99   D    
C1    C96   S    
C78   O42   A    
C14   H27   S    
C95   H16   S    
C43   C93   S    
C11   H84   S    
C63   H9    S    
C102  C103  S    
Cr2   O10   S    
C3    H62   S    
Cr3   O3    S    
C70   H8    S    
Cr1   O9    S    
Cr10  O47   S    
Cr11  O21   S    
C76   C91   D    
C9    H79   S    
C91   H20   S    
C74   O34   A    
C43   O17   A    
C73   O33   A    
C20   H25   S    
C69   H7    S    
C103  H46   S    
C86   O38   A    
C89   H18   S    
C41   C59   D    
C12   C26   A    
C27   C28   A    
C31   C36   A    
C47   C56   D    
C72   O12   A    
C11   H85   S    
C5    H68   S    
Cr6   O16   S    
Cr8   O9    S    
C87   C92   D    
C3    H63   S    
Cr10  O11   S    
C75   O40   A    
C75   O44   A    
C83   O51   A    
Cr5   O10   S    
