data_mof_unit_57376.cif
_audit_creation_date              2012-10-26T21:03:39-0400
_audit_creation_method            fapswitch 2.2
_symmetry_space_group_name_H-M    P1
_symmetry_Int_Tables_number       1
_space_group_crystal_system       triclinic
_cell_length_a                    16.007456
_cell_length_b                    14.783632
_cell_length_c                    10.790142
_cell_angle_alpha                 89.957599
_cell_angle_beta                  90.01129
_cell_angle_gamma                 90.046641
_cell_volume                      2553.46758477

loop_
_atom_site_label
_atom_site_type_symbol
_atom_type_description
_atom_site_fract_x
_atom_site_fract_y
_atom_site_fract_z
_atom_type_partial_charge
Br1   Br    Br    0.667334 0.431436 0.154106 -0.459632
Br2   Br    Br    0.667432 0.431760 0.846205 -0.418979
Br3   Br    Br    0.654290 0.118432 0.633414 -0.545553
Br4   Br    Br    0.347911 0.118331 0.362075 -0.588728
C1    C     C_R   0.341006 0.499969 0.499976 0.521131
C2    C     C_R   0.433540 0.951993 0.441338 0.003451
C3    C     C_R   0.499516 0.902315 0.501579 -0.006816
C4    C     C_R   0.435362 0.048770 0.442245 0.122458
C5    C     C_R   0.564870 0.048800 0.558134 0.122927
C6    C     C_R   0.500199 0.097165 0.499974 0.022760
C7    C     C_1   0.499892 0.802551 0.500555 0.106914
C8    C     C_1   0.500145 0.197464 0.499938 0.263773
C9    C     C_R   0.499683 0.500056 0.262116 0.572181
C10   C     C_R   0.499728 0.500018 0.737882 0.568173
C11   C     C_R   0.352813 0.558029 0.129033 -0.090842
C12   C     C_R   0.658962 0.500068 0.500245 0.599533
C13   C     C_R   0.352948 0.558349 0.870652 -0.091635
C14   C     C_R   0.282002 0.585823 0.064178 -0.115056
C15   C     C_R   0.282137 0.586167 0.935350 -0.113066
C16   C     C_R   0.425644 0.530043 0.934607 -0.012751
C17   C     C_R   0.425614 0.530006 0.065234 -0.010512
C18   C     C_R   0.497735 0.500147 0.128620 -0.015748
C19   C     C_R   0.497749 0.500088 0.871372 -0.020527
C20   C     C_R   0.568807 0.469931 0.064621 0.162290
C21   C     C_R   0.568820 0.469943 0.935514 0.163004
C22   C     C_R   0.955879 0.584143 0.510164 0.014174
C23   C     C_R   0.955421 0.417184 0.500312 0.012340
C24   C     C_R   0.044369 0.584022 0.506585 0.012690
C25   C     C_R   0.912518 0.500772 0.505225 0.029201
C26   C     C_R   0.087275 0.500486 0.499919 0.024029
C27   C     C_3   0.094087 0.672166 0.510996 -0.252369
C28   C     C_3   0.118360 0.695401 0.644759 -0.295808
C29   C     C_3   0.166922 0.784074 0.651174 -0.450566
C30   C     C_3   0.906810 0.672487 0.518583 -0.255539
C31   C     C_3   0.884977 0.707791 0.388807 -0.295135
C32   C     C_3   0.839835 0.798492 0.395353 -0.447395
C33   C     C_3   0.905598 0.329023 0.502426 -0.254257
C34   C     C_R   0.043846 0.417127 0.494896 0.012183
C35   C     C_3   0.876411 0.303012 0.371725 -0.300036
C36   C     C_3   0.821697 0.218478 0.374530 -0.404616
C37   C     C_3   0.093010 0.329102 0.483045 -0.249062
C38   C     C_3   0.120909 0.294718 0.610725 -0.303899
C39   C     C_3   0.173669 0.209260 0.599224 -0.422119
C40   C     C_3   0.639718 0.909977 0.632450 -0.246164
C41   C     C_3   0.644966 0.807371 0.653697 -0.306156
C42   C     C_3   0.720630 0.782766 0.733169 -0.452768
C43   C     C_3   0.357963 0.910066 0.373879 -0.244059
C44   C     C_3   0.347452 0.807051 0.364592 -0.302199
C45   C     C_1   0.822565 0.500831 0.503431 -0.053664
C46   C     C_3   0.267363 0.782285 0.295583 -0.462921
C47   C     C_1   0.177299 0.500212 0.499861 -0.076861
C48   C     C_1   0.252192 0.500027 0.499920 -0.046065
C49   C     C_1   0.747715 0.500433 0.501784 0.011315
C50   C     C_R   0.565493 0.952011 0.561885 0.001547
Cu1   Cu    Cu3+1 0.500000 0.589220 0.500000 0.954954
Cu2   Cu    Cu3+1 0.500000 0.410780 0.500000 1.098673
H1    H     H_    0.349506 0.557943 0.229125 0.121566
H2    H     H_    0.151308 0.666692 0.453454 0.145081
H3    H     H_    0.059487 0.729082 0.468300 0.135115
H4    H     H_    0.780071 0.791084 0.446321 0.158166
H5    H     H_    0.879489 0.849605 0.442650 0.151018
H6    H     H_    0.825944 0.822718 0.300139 0.156408
H7    H     H_    0.942760 0.716207 0.332935 0.159193
H8    H     H_    0.844091 0.658191 0.340644 0.185771
H9    H     H_    0.848506 0.662846 0.572812 0.149416
H10   H     H_    0.941364 0.724548 0.571825 0.137062
H11   H     H_    0.856731 0.160628 0.414709 0.157539
H12   H     H_    0.349718 0.558526 0.770551 0.123020
H13   H     H_    0.764653 0.230989 0.430549 0.212950
H14   H     H_    0.802435 0.200702 0.278727 0.175529
H15   H     H_    0.839878 0.359240 0.330098 0.208355
H16   H     H_    0.931428 0.290180 0.311521 0.163790
H17   H     H_    0.941617 0.272754 0.544151 0.143175
H18   H     H_    0.850661 0.335883 0.564678 0.183832
H19   H     H_    0.137684 0.154975 0.552105 0.163747
H20   H     H_    0.231401 0.223773 0.545718 0.209297
H21   H     H_    0.191744 0.185182 0.692954 0.155025
H22   H     H_    0.158498 0.347442 0.658521 0.177412
H23   H     H_    0.226584 0.606610 0.114015 0.105301
H24   H     H_    0.065353 0.279778 0.668961 0.165784
H25   H     H_    0.056770 0.276110 0.434205 0.140624
H26   H     H_    0.148516 0.339342 0.422791 0.167377
H27   H     H_    0.779210 0.806325 0.688334 0.146731
H28   H     H_    0.715326 0.813960 0.826455 0.167562
H29   H     H_    0.723832 0.708143 0.744287 0.171984
H30   H     H_    0.588176 0.783327 0.702973 0.192207
H31   H     H_    0.652385 0.772122 0.563630 0.186228
H32   H     H_    0.697929 0.930732 0.583795 0.176614
H33   H     H_    0.640705 0.941175 0.726212 0.198173
H34   H     H_    0.226936 0.607468 0.885393 0.103443
H35   H     H_    0.212058 0.811544 0.343045 0.148805
H36   H     H_    0.269797 0.807510 0.198652 0.164342
H37   H     H_    0.260455 0.707609 0.293778 0.141851
H38   H     H_    0.400594 0.777436 0.312326 0.192577
H39   H     H_    0.343015 0.777251 0.458770 0.181476
H40   H     H_    0.300730 0.936288 0.419953 0.180642
H41   H     H_    0.358461 0.936175 0.277172 0.195220
H42   H     H_    0.225782 0.778599 0.597502 0.157881
H43   H     H_    0.128787 0.840493 0.613479 0.152817
H44   H     H_    0.182792 0.799316 0.749141 0.148905
H45   H     H_    0.061363 0.701386 0.702925 0.160295
H46   H     H_    0.157753 0.640488 0.683766 0.164683
N1    N     N_1   0.500000 0.276710 0.500000 -0.152215
N2    N     N_1   0.500000 0.723290 0.500000 -0.223628
O1    O     O_R   0.380310 0.575320 0.500020 -0.518660
O2    O     O_R   0.619690 0.575320 0.499980 -0.501091
O3    O     O_R   0.380310 0.424640 0.499960 -0.489702
O4    O     O_R   0.619690 0.424640 0.500040 -0.452962
O5    O     O_R   0.500000 0.575360 0.319640 -0.503640
O6    O     O_R   0.500000 0.575360 0.680360 -0.506321
O7    O     O_R   0.500000 0.424670 0.319580 -0.460821
O8    O     O_R   0.500000 0.424670 0.680420 -0.463144

loop_
_geom_bond_atom_site_label_1
_geom_bond_atom_site_label_2
_ccdc_geom_bond_type
C11   C14   A    
C33   H18   S    
C38   H24   S    
C44   H39   S    
C23   C25   A    
C37   C38   S    
C31   C32   S    
Br4   C4    S    
C30   H10   S    
C25   C45   S    
C41   C42   S    
C3    C7    S    
C36   H14   S    
Cu1   O1    S    
C27   H2    S    
C41   H31   S    
C26   C47   S    
C14   C15   A    
C30   C31   S    
C23   C34   A    
C13   C16   A    
C26   C34   A    
C29   H42   S    
C27   H3    S    
C12   C49   S    
Cu2   O4    S    
C9    O5    A    
C22   C30   S    
C27   C28   S    
C14   H23   S    
C36   H11   S    
C35   H16   S    
C1    C48   S    
C7    N2    T    
C5    C6    A    
Cu2   O7    S    
C12   O2    A    
C42   H29   S    
C44   C46   S    
C17   C18   A    
Cu1   O5    S    
C11   H1    S    
C32   H6    S    
C30   H9    S    
C39   H19   S    
C2    C43   S    
Cu1   O2    S    
C47   C48   T    
C20   C21   A    
C34   C37   S    
C36   H13   S    
C35   C36   S    
C2    C4    A    
Cu1   N2    S    
C29   H43   S    
C10   C19   S    
C10   O8    A    
Cu2   O3    S    
Br3   C5    S    
C43   C44   S    
C16   C19   A    
C43   H40   S    
C37   H25   S    
Cu1   Cu2   S    
C1    O1    A    
C31   H8    S    
C6    C8    S    
C8    N1    T    
C42   H28   S    
C46   H36   S    
C44   H38   S    
Cu1   O6    S    
C28   H46   S    
C38   C39   S    
C32   H5    S    
C40   C41   S    
C1    O3    A    
C39   H20   S    
C10   O6    A    
C33   H17   S    
C13   H12   S    
C24   C27   S    
Cu2   N1    S    
C32   H4    S    
C46   H37   S    
C38   H22   S    
C2    C3    A    
C39   H21   S    
C22   C24   A    
C43   H41   S    
C29   H44   S    
C28   C29   S    
C24   C26   A    
C41   H30   S    
C33   C35   S    
C15   H34   S    
Br1   C20   S    
C23   C33   S    
C45   C49   T    
C37   H26   S    
C9    O7    A    
C13   C15   A    
C9    C18   S    
Br2   C21   S    
C18   C20   A    
C19   C21   A    
C12   O4    A    
C42   H27   S    
C40   C50   S    
C46   H35   S    
C11   C17   A    
C16   C17   A    
C22   C25   A    
C4    C6    A    
C35   H15   S    
C28   H45   S    
C31   H7    S    
C5    C50   A    
C3    C50   A    
C40   H32   S    
Cu2   O8    S    
C40   H33   S    
