data_mof_unit_26831.cif
_audit_creation_date              2013-03-05T16:13:19-0500
_audit_creation_method            fapswitch 2.2
_symmetry_space_group_name_H-M    P1
_symmetry_Int_Tables_number       1
_space_group_crystal_system       triclinic
_cell_length_a                    24.906034
_cell_length_b                    7.268073
_cell_length_c                    22.628589
_cell_angle_alpha                 90.120856
_cell_angle_beta                  96.388231
_cell_angle_gamma                 89.865376
_cell_volume                      4070.74925287

loop_
_atom_site_label
_atom_site_type_symbol
_atom_site_description
_atom_site_fract_x
_atom_site_fract_y
_atom_site_fract_z
_atom_type_partial_charge
O1    O     O_R   0.801910 0.607900 0.699140 -0.585100
O2    O     O_R   0.198090 0.392100 0.300860 -0.586854
O3    O     O_R   0.698090 0.107900 0.800860 -0.590382
O4    O     O_R   0.301910 0.892100 0.199140 -0.587333
O5    O     O_R   0.692320 0.276320 0.686350 -0.576418
O6    O     O_R   0.307680 0.723680 0.313650 -0.576183
O7    O     O_R   0.807680 0.776320 0.813650 -0.558740
O8    O     O_R   0.192320 0.223680 0.186350 -0.576551
C1    C     C_R   0.674045 0.446203 0.671487 0.916500
C2    C     C_R   0.325972 0.553798 0.328488 0.956572
C3    C     C_R   0.825953 0.946156 0.828505 0.982574
C4    C     C_R   0.174016 0.053847 0.171525 0.956863
O9    O     O_R   0.801140 0.278070 0.692060 -0.538690
O10   O     O_R   0.198860 0.721930 0.307940 -0.540376
O11   O     O_R   0.698860 0.778070 0.807940 -0.568843
O12   O     O_R   0.301140 0.221930 0.192060 -0.539604
O13   O     O_R   0.807690 0.109570 0.806600 -0.568220
O14   O     O_R   0.192310 0.890430 0.193400 -0.567143
O15   O     O_R   0.692310 0.609570 0.693400 -0.578493
O16   O     O_R   0.307690 0.390430 0.306600 -0.567605
C5    C     C_R   0.818995 0.445569 0.679304 0.955914
C6    C     C_R   0.181009 0.554428 0.320701 0.947681
C7    C     C_R   0.682622 0.946873 0.822163 0.954533
C8    C     C_R   0.318919 0.053826 0.179113 0.946500
O17   O     O_3   0.752020 0.441970 0.787570 -0.264855
O18   O     O_3   0.247980 0.558030 0.212430 -0.261853
O19   O     O_3   0.747980 0.941970 0.712430 -0.260546
O20   O     O_3   0.252020 0.058030 0.287570 -0.261063
V1    V     V_3+5 0.749620 0.166420 0.743030 1.284423
V2    V     V_3+5 0.250380 0.833580 0.256970 1.294237
V3    V     V_3+5 0.750380 0.666420 0.756970 1.279527
V4    V     V_3+5 0.249620 0.333580 0.243030 1.293589
C9    C     C_R   0.418890 0.184336 0.067226 -0.242862
C10   C     C_R   0.596062 0.831427 0.947289 -0.230827
C11   C     C_R   0.080200 0.689909 0.431093 -0.243661
C12   C     C_R   0.919756 0.310146 0.568850 -0.242791
H1    H     H_    0.432948 0.306305 0.046177 0.147215
H2    H     H_    0.593554 0.728759 0.981539 0.167533
H3    H     H_    0.066023 0.812609 0.451916 0.146272
H4    H     H_    0.933900 0.187479 0.547978 0.146417
C13   C     C_R   0.380728 0.202228 0.108334 0.418789
C14   C     C_R   0.638138 0.821518 0.910510 0.350202
C15   C     C_R   0.118744 0.705946 0.390493 0.418957
C16   C     C_R   0.881220 0.294074 0.609457 0.419510
C17   C     C_R   0.361842 0.045109 0.136910 -0.336489
C18   C     C_R   0.641621 0.956719 0.865665 -0.281754
C19   C     C_R   0.137811 0.547589 0.362373 -0.335847
C20   C     C_R   0.862201 0.452400 0.637640 -0.338946
C21   C     C_R   0.384881 0.874756 0.124660 -0.089760
C22   C     C_R   0.603670 0.101693 0.861073 -0.117038
C23   C     C_R   0.114572 0.378032 0.374415 -0.091237
C24   C     C_R   0.885499 0.621920 0.625673 -0.091043
H5    H     H_    0.373254 0.755070 0.147367 0.236140
H6    H     H_    0.605078 0.207111 0.827518 0.145572
H7    H     H_    0.126325 0.257582 0.351952 0.236348
H8    H     H_    0.873800 0.742321 0.648201 0.235919
C25   C     C_R   0.423571 0.857545 0.084430 -0.083694
C26   C     C_R   0.562730 0.111183 0.898716 -0.093287
C27   C     C_R   0.075517 0.362692 0.414150 -0.084266
C28   C     C_R   0.924551 0.637281 0.585935 -0.083551
H9    H     H_    0.440460 0.723336 0.076569 0.144307
H10   H     H_    0.534173 0.224308 0.894024 0.126174
H11   H     H_    0.058502 0.229052 0.422017 0.143282
H12   H     H_    0.941614 0.770890 0.578127 0.143049
C29   C     C_R   0.440549 0.012489 0.055137 0.085413
C30   C     C_R   0.558481 0.975641 0.941736 0.099067
C31   C     C_R   0.058401 0.518815 0.443006 0.087119
C32   C     C_R   0.941606 0.481214 0.557002 0.086888
C33   C     C_1   0.481704 0.997347 0.014680 -0.003205
C34   C     C_1   0.516464 0.986854 0.981260 -0.012667
C35   C     C_1   0.017253 0.505240 0.483227 -0.005485
C36   C     C_1   0.982754 0.494802 0.516782 -0.005640
C37   C     C_3   0.963610 0.892348 0.022397 0.273918
C38   C     C_3   0.036145 0.107676 0.977842 0.277432
C39   C     C_3   0.536322 0.391535 0.477667 0.277519
C40   C     C_3   0.463746 0.608426 0.522230 0.276981
C41   C     C_3   0.983661 0.079294 0.048474 -0.087589
C42   C     C_3   0.016098 0.920729 0.951772 -0.086987
C43   C     C_3   0.516218 0.578383 0.451582 -0.086744
C44   C     C_3   0.483849 0.421578 0.548314 -0.086686
C45   C     C_1   0.128378 0.046784 0.125771 -0.214262
C46   C     C_1   0.871504 0.953222 0.874349 -0.200002
C47   C     C_1   0.371573 0.546656 0.374271 -0.214395
C48   C     C_1   0.628468 0.453336 0.625667 -0.217897
C49   C     C_3   0.022440 0.837189 0.015015 0.258038
C50   C     C_3   0.977317 0.162832 0.985228 0.255897
C51   C     C_3   0.477513 0.337248 0.485079 0.259331
C52   C     C_3   0.522554 0.662713 0.514818 0.257125
C53   C     C_3   0.042982 0.024335 0.041523 -0.247739
C54   C     C_3   0.956782 0.975691 0.958720 -0.250036
C55   C     C_3   0.456921 0.524292 0.458561 -0.249381
C56   C     C_3   0.543147 0.475669 0.541337 -0.248714
C57   C     C_1   0.089962 0.039683 0.087742 0.272014
C58   C     C_1   0.909854 0.960329 0.912451 0.273090
C59   C     C_1   0.409960 0.539579 0.412328 0.272188
C60   C     C_1   0.590098 0.460397 0.587586 0.265897
N1    N     N_R   0.364784 0.382499 0.123574 0.224315
O21   O     O_R   0.340328 0.489149 0.082981 -0.415818
O22   O     O_R   0.381100 0.447106 0.176173 -0.441942
N2    N     N_R   0.678073 0.679003 0.921411 0.243735
O23   O     O_R   0.663848 0.515661 0.937182 -0.384990
O24   O     O_R   0.729232 0.719539 0.925379 -0.348185
N3    N     N_R   0.134920 0.885541 0.375297 0.224377
O25   O     O_R   0.159473 0.992000 0.415924 -0.414645
O26   O     O_R   0.118908 0.949722 0.322618 -0.442390
N4    N     N_R   0.865031 0.114460 0.624628 0.224613
O27   O     O_R   0.840760 0.007677 0.583906 -0.412597
O28   O     O_R   0.881007 0.050327 0.677323 -0.444766
N5    N     N_2   0.967850 0.159877 0.102558 -0.094535
H13   H     H_    0.994591 0.256284 0.121838 0.226722
C61   C     C_3   0.911875 0.213387 0.101777 -0.558547
H14   H     H_    0.901640 0.223194 0.148173 0.222262
H15   H     H_    0.884643 0.110776 0.077644 0.248461
H16   H     H_    0.905225 0.350401 0.080762 0.286775
N6    N     N_2   0.031902 0.840137 0.897686 -0.092798
H17   H     H_    0.005163 0.743713 0.878414 0.226833
C62   C     C_3   0.087876 0.786654 0.898452 -0.573699
H18   H     H_    0.098100 0.776847 0.852052 0.222210
H19   H     H_    0.094536 0.649648 0.919469 0.287566
H20   H     H_    0.115109 0.889281 0.922576 0.246112
N7    N     N_2   0.531979 0.657998 0.397475 -0.092840
H21   H     H_    0.505202 0.754467 0.378190 0.227282
C63   C     C_3   0.587935 0.710786 0.398211 -0.568386
H22   H     H_    0.598141 0.719798 0.351803 0.223135
H23   H     H_    0.615206 0.608159 0.422341 0.246215
H24   H     H_    0.594558 0.848011 0.419202 0.287049
N8    N     N_2   0.468083 0.341955 0.602419 -0.096396
H25   H     H_    0.494856 0.245470 0.621701 0.221791
C64   C     C_3   0.412125 0.289187 0.601679 -0.582306
H26   H     H_    0.401916 0.280179 0.648087 0.219287
H27   H     H_    0.405498 0.151963 0.580687 0.289548
H28   H     H_    0.384857 0.391821 0.577547 0.248258
N9    N     N_R   0.924543 0.776599 0.048079 0.269656
O29   O     O_R   0.933155 0.727819 0.103585 -0.354558
O30   O     O_R   0.879255 0.732760 0.017096 -0.316565
N10   N     N_R   0.075187 0.223446 0.952132 0.269910
O31   O     O_R   0.066553 0.272168 0.896622 -0.356287
O32   O     O_R   0.120468 0.267433 0.983100 -0.342113
N11   N     N_R   0.575395 0.274907 0.451965 0.270049
O33   O     O_R   0.566780 0.225580 0.396456 -0.354901
O34   O     O_R   0.620687 0.230747 0.482939 -0.338948
N12   N     N_R   0.424673 0.725058 0.547932 0.270307
O35   O     O_R   0.433289 0.774391 0.603441 -0.363245
O36   O     O_R   0.379383 0.769225 0.516958 -0.341266
N13   N     N_R   0.951000 0.336438 0.967137 0.272868
O37   O     O_R   0.976678 0.459578 0.939770 -0.366846
O38   O     O_R   0.899205 0.354447 0.968480 -0.349291
N14   N     N_R   0.048745 0.663565 0.033104 0.273776
O39   O     O_R   0.023059 0.540448 0.060472 -0.366768
O40   O     O_R   0.100536 0.645510 0.031753 -0.360978
N15   N     N_R   0.548828 0.836211 0.532893 0.272935
O41   O     O_R   0.523150 0.959934 0.560339 -0.369811
O42   O     O_R   0.600607 0.853577 0.531479 -0.359912
N16   N     N_R   0.451239 0.163752 0.466999 0.273996
O43   O     O_R   0.476918 0.040037 0.439551 -0.366291
O44   O     O_R   0.399460 0.146385 0.468411 -0.360599

loop_
_geom_bond_atom_site_label_1
_geom_bond_atom_site_label_2
_geom_bond_distance
_ccdc_geom_bond_type
C26   H10   1.083501 S    
O1    C5    1.346275 A    
C46   C58   1.214551 T    
C51   C55   1.550133 S    
O19   V1    1.769630 S    
O13   V1    1.966849 S    
O3    C7    1.340279 A    
C42   N6    1.448814 S    
C10   C14   1.410476 A    
C49   N14   1.458698 S    
O1    V3    1.977201 S    
O15   V3    1.967003 S    
C10   C30   1.400112 A    
N13   O37   1.298729 A    
C9    C29   1.397870 A    
C63   H22   1.109722 S    
C61   H15   1.110252 S    
C42   C54   1.554172 S    
O7    C3    1.345605 A    
C43   N7    1.448811 S    
C41   C53   1.554284 S    
C22   H6    1.083197 S    
C8    C17   1.511794 S    
C38   C53   1.555963 S    
O9    V1    1.993352 S    
N14   O40   1.300006 A    
C37   C54   1.555881 S    
C44   C51   1.547462 S    
C62   H19   1.108560 S    
C48   C60   1.214565 T    
O4    C8    1.346770 A    
C21   H5    1.068054 S    
C63   H23   1.110253 S    
N4    O27   1.300813 A    
N6    H17   1.030109 S    
N1    O21   1.300710 A    
C2    C47   1.450527 S    
C56   C60   1.484089 S    
C21   C25   1.402546 A    
O2    V4    1.977205 S    
C14   C18   1.423762 A    
O3    V1    1.979686 S    
C37   C41   1.542072 S    
C24   C28   1.400914 A    
C27   C31   1.397224 A    
C26   C30   1.398862 A    
C52   C56   1.550146 S    
C2    O16   1.346240 A    
N6    C62   1.444640 S    
C38   N10   1.457334 S    
O2    C6    1.346257 A    
N15   O41   1.298712 A    
O14   V2    1.966852 S    
C11   C31   1.396774 A    
C11   C15   1.405830 A    
C40   C52   1.544905 S    
N16   O44   1.300007 A    
C32   C36   1.448026 S    
C5    C20   1.508492 S    
O11   C7    1.340639 A    
C6    C19   1.508475 S    
O12   C8    1.341452 A    
C7    C18   1.496677 S    
O10   V2    1.993352 S    
C43   C52   1.547466 S    
N13   O38   1.300022 A    
C1    O15   1.346294 A    
C54   C58   1.484115 S    
O5    V1    1.977715 S    
C3    C46   1.450527 S    
O7    V3    1.978239 S    
O8    V4    1.978239 S    
C12   H4    1.084332 S    
N14   O39   1.298717 A    
N10   O32   1.300008 A    
C50   C54   1.550149 S    
C62   H20   1.110252 S    
C49   C53   1.550239 S    
O18   V4    1.772143 S    
C63   H24   1.108566 S    
C19   C23   1.402785 A    
C40   C55   1.555908 S    
C23   H7    1.067934 S    
O11   V3    1.988913 S    
C9    H1    1.084265 S    
C22   C26   1.400959 A    
C44   C56   1.554200 S    
C11   H3    1.084324 S    
N8    C64   1.444654 S    
O5    C1    1.345317 A    
C14   N2    1.436892 S    
C45   C57   1.214686 T    
C17   C21   1.403452 A    
O8    C4    1.345682 A    
C47   C59   1.214532 T    
N2    O24   1.301763 A    
N7    H21   1.030117 S    
C51   N16   1.458697 S    
O9    C5    1.340039 A    
N3    O26   1.301272 A    
C38   C50   1.544929 S    
C41   N5    1.448803 S    
C37   C49   1.544956 S    
N16   O43   1.298717 A    
C39   C56   1.555926 S    
C42   C49   1.547444 S    
C39   C51   1.544913 S    
O6    V2    1.977715 S    
C37   N9    1.457366 S    
C41   C50   1.547488 S    
C15   C19   1.420103 A    
N9    O29   1.300326 A    
C52   N15   1.458693 S    
C13   N1    1.421063 S    
C12   C16   1.405872 A    
C23   C27   1.400914 A    
N8    H25   1.030117 S    
C50   N13   1.458726 S    
N12   O36   1.300012 A    
C64   H26   1.109726 S    
O16   V4    1.967003 S    
C3    O13   1.346482 A    
N1    O22   1.301240 A    
C61   H14   1.109721 S    
C10   H2    1.083895 S    
C43   C55   1.554182 S    
O17   V3    1.772145 S    
C40   C44   1.541991 S    
C25   C29   1.397909 A    
N10   O31   1.300329 A    
O6    C2    1.345315 A    
N11   O33   1.300332 A    
C12   C32   1.396768 A    
C25   H9    1.083537 S    
C44   N8    1.448813 S    
C16   N4    1.421186 S    
O12   V4    1.988910 S    
C18   C22   1.410099 A    
C27   H11   1.083599 S    
C28   H12   1.083601 S    
C9    C13   1.407579 A    
C64   H28   1.110260 S    
N5    C61   1.444679 S    
C35   C36   1.210913 T    
C39   N11   1.457328 S    
N5    H13   1.030128 S    
N11   O34   1.300013 A    
O10   C6    1.340049 A    
C30   C34   1.452303 S    
N4    O28   1.301272 A    
C29   C33   1.452160 S    
O20   V2    1.769630 S    
N2    O23   1.301597 A    
C4    C45   1.450785 S    
C61   H16   1.108574 S    
C31   C35   1.448026 S    
N15   O42   1.300005 A    
C53   C57   1.484311 S    
C33   C34   1.213406 T    
C15   N3    1.421131 S    
N7    C63   1.444654 S    
C1    C48   1.450617 S    
C55   C59   1.484047 S    
C24   H8    1.067958 S    
C20   C24   1.402789 A    
C28   C32   1.397219 A    
C38   C42   1.541997 S    
C4    O14   1.346498 A    
N3    O25   1.300743 A    
N9    O30   1.300044 A    
C13   C17   1.420132 A    
N12   O35   1.300331 A    
C62   H18   1.109715 S    
C39   C43   1.542002 S    
O4    V2    1.979686 S    
C16   C20   1.420143 A    
C64   H27   1.108566 S    
C40   N12   1.457334 S    
