data_mof_unit_13174.cif
_audit_creation_date              2012-12-10T16:44:16-0500
_audit_creation_method            fapswitch 2.2
_symmetry_space_group_name_H-M    P1
_symmetry_Int_Tables_number       1
_space_group_crystal_system       triclinic
_cell_length_a                    7.426236
_cell_length_b                    8.694244
_cell_length_c                    13.403112
_cell_angle_alpha                 94.036958
_cell_angle_beta                  77.234504
_cell_angle_gamma                 103.152128
_cell_volume                      821.665934185

loop_
_atom_site_label
_atom_site_type_symbol
_atom_type_description
_atom_site_fract_x
_atom_site_fract_y
_atom_site_fract_z
_atom_type_partial_charge
C1    C     C_R   0.545341 0.800215 0.503015 0.879263
C2    C     C_R   0.417413 0.510811 0.975815 0.083502
C3    C     C_R   0.464957 0.556491 0.872004 0.085997
C4    C     C_R   0.559523 0.549754 0.035335 0.072601
C5    C     C_R   0.739127 0.644743 0.993240 0.145619
C6    C     C_R   0.774646 0.703521 0.895200 -0.233679
C7    C     C_R   0.638839 0.662414 0.836140 -0.205622
C8    C     C_R   0.529306 0.496240 0.135223 -0.242185
C9    C     C_R   0.845953 0.633643 0.150947 -0.039371
C10   C     C_R   0.336516 0.495993 0.806936 -0.110532
C11   C     C_2   0.570908 0.968069 0.504490 -0.372226
C12   C     C_R   0.399258 0.498092 0.694536 0.773602
C13   C     C_2   0.429152 0.031906 0.495392 -0.365838
C14   C     C_R   0.454678 0.199783 0.496953 0.887497
C15   C     C_R   0.602675 0.513606 0.305717 0.797447
C16   C     C_R   0.881008 0.683078 0.050262 -0.218769
C17   C     C_R   0.665876 0.543151 0.195112 -0.106822
C18   C     C_R   0.152090 0.415625 0.849416 -0.190668
C19   C     C_R   0.098400 0.385766 0.953368 -0.142470
C20   C     C_R   0.229478 0.429243 0.015762 -0.184071
Cu1   Cu    Cu3+1 0.321300 0.483160 0.488710 0.959638
Cu2   Cu    Cu3+1 0.678700 0.516840 0.511290 0.955164
H1    H     H_    0.292547 0.960492 0.486751 0.184781
H2    H     H_    0.010769 0.617461 0.579432 0.221872
H3    H     H_    0.989229 0.382624 0.420537 0.225902
H4    H     H_    0.908472 0.781778 0.863792 0.144355
H5    H     H_    0.018558 0.754523 0.016790 0.144696
H6    H     H_    0.398194 0.418876 0.169423 0.153740
H7    H     H_    0.050531 0.371285 0.801658 0.162464
H8    H     H_    0.177462 0.400452 0.095295 0.133184
H9    H     H_    0.955251 0.324250 0.985468 0.150876
H10   H     H_    0.671142 0.717771 0.762718 0.163326
H11   H     H_    0.707524 0.039472 0.513106 0.178742
N1    N     N_2   0.947230 0.542220 0.528320 -0.211074
N2    N     N_2   0.052770 0.457780 0.471680 -0.207292
O1    O     O_R   0.383920 0.714220 0.492660 -0.576404
O2    O     O_R   0.685730 0.742660 0.511730 -0.589071
O3    O     O_R   0.275440 0.478800 0.636790 -0.589271
O4    O     O_R   0.577250 0.507240 0.655860 -0.581304
O5    O     O_R   0.314270 0.257340 0.488270 -0.585369
O6    O     O_R   0.616080 0.285780 0.507340 -0.582456
O7    O     O_R   0.422750 0.492760 0.344140 -0.570140
O8    O     O_R   0.724560 0.521200 0.363210 -0.580813
C21   C     C_1   0.995046 0.682787 0.207267 0.248602
N3    N     N_1   0.114924 0.722103 0.252122 -0.267423

loop_
_geom_bond_atom_site_label_1
_geom_bond_atom_site_label_2
_ccdc_geom_bond_type
C2    C4    A    
C6    C7    A    
Cu1   N2    S    
C15   O7    A    
C8    C17   A    
C1    C11   S    
C1    O2    A    
C4    C8    A    
C19   H9    S    
C12   O4    A    
C2    C3    A    
C15   O8    A    
C18   H7    S    
C20   H8    S    
C13   C14   S    
C11   C13   D    
C6    H4    S    
Cu1   O5    S    
C10   C12   S    
H3    N2    S    
C14   O6    A    
C3    C10   A    
Cu2   O4    S    
C9    C17   A    
C9    C16   A    
C10   C18   A    
C18   C19   A    
C3    C7    A    
C12   O3    A    
C5    C6    A    
Cu2   N1    S    
Cu2   O6    S    
C14   O5    A    
Cu1   O7    S    
C11   H11   S    
C21   N3    T    
C13   H1    S    
C8    H6    S    
C15   C17   S    
N1    N2    D    
C16   H5    S    
Cu1   O1    S    
C9    C21   S    
C7    H10   S    
Cu1   Cu2   S    
Cu2   O2    S    
C2    C20   A    
Cu2   O8    S    
H2    N1    S    
Cu1   O3    S    
C19   C20   A    
C1    O1    A    
C4    C5    A    
C5    C16   A    
