data_mof_unit_40838.cif
_audit_creation_date              2012-12-10T18:00:46-0500
_audit_creation_method            fapswitch 2.2
_symmetry_space_group_name_H-M    P1
_symmetry_Int_Tables_number       1
_space_group_crystal_system       triclinic
_cell_length_a                    15.894444
_cell_length_b                    10.831375
_cell_length_c                    9.520537
_cell_angle_alpha                 90.009757
_cell_angle_beta                  89.950027
_cell_angle_gamma                 90.136648
_cell_volume                      1639.03780693

loop_
_atom_site_label
_atom_site_type_symbol
_atom_type_description
_atom_site_fract_x
_atom_site_fract_y
_atom_site_fract_z
_atom_type_partial_charge
C1    C     C_R   0.499940 0.262071 0.499956 0.786988
C2    C     C_R   0.500060 0.737929 0.500044 0.786989
C3    C     C_R   0.499980 0.936108 0.372363 -0.181894
C4    C     C_R   0.500020 0.063892 0.627637 -0.181898
C5    C     C_R   0.500070 0.871778 0.500026 -0.016603
C6    C     C_R   0.499930 0.128222 0.499974 -0.016603
C7    C     C_R   0.447324 0.423765 0.074434 -0.018266
C8    C     C_R   0.552676 0.576235 0.925566 -0.018271
C9    C     C_R   0.447344 0.423798 0.925620 -0.020237
C10   C     C_R   0.552656 0.576202 0.074379 -0.020239
C11   C     C_R   0.339856 0.499992 0.500050 0.824855
C12   C     C_R   0.660144 0.500008 0.499950 0.824850
C13   C     C_3   0.972062 0.430868 0.604406 0.089261
C14   C     C_3   0.027938 0.569126 0.395600 0.089304
C15   C     C_3   0.027829 0.385151 0.483824 0.519333
C16   C     C_3   0.972170 0.614840 0.516180 0.519325
C17   C     C_1   0.250344 0.500181 0.500378 -0.171475
C18   C     C_1   0.749656 0.499818 0.499622 -0.171491
C19   C     C_3   0.027679 0.546509 0.625772 -0.350222
C20   C     C_3   0.972324 0.453483 0.374228 -0.350196
C21   C     C_3   0.083472 0.500470 0.502104 0.004061
C22   C     C_3   0.916527 0.499523 0.497897 0.004014
C23   C     C_1   0.174958 0.500345 0.501070 0.040207
C24   C     C_1   0.825043 0.499651 0.498930 0.040149
C25   C     C_R   0.499888 0.063822 0.372337 -0.181876
C26   C     C_R   0.500112 0.936178 0.627663 -0.181879
Cu1   Cu    Cu3+1 0.500000 0.500020 0.640660 0.951063
Cu2   Cu    Cu3+1 0.500000 0.499980 0.359340 0.951068
H1    H     H_    0.949203 0.418260 0.271768 0.167114
H2    H     H_    0.050802 0.581730 0.728230 0.167115
H3    H     H_    0.499790 0.111829 0.272527 0.149751
H4    H     H_    0.500210 0.888171 0.727472 0.149751
H5    H     H_    0.499970 0.888047 0.272568 0.149846
H6    H     H_    0.500030 0.111953 0.727432 0.149846
H7    H     H_    0.405189 0.362587 0.130523 0.124228
H8    H     H_    0.594811 0.637413 0.869477 0.124222
H9    H     H_    0.405220 0.362647 0.869570 0.123079
H10   H     H_    0.594780 0.637353 0.130430 0.123076
N1    N     N_R   0.500020 0.500030 0.852070 -0.159640
N2    N     N_R   0.499980 0.499970 0.147930 -0.159641
O1    O     O_R   0.500000 0.319660 0.618740 -0.589658
O2    O     O_R   0.500000 0.680340 0.381260 -0.589656
O3    O     O_R   0.499990 0.319630 0.381170 -0.589871
O4    O     O_R   0.500010 0.680370 0.618830 -0.589871
O5    O     O_R   0.379080 0.500000 0.618760 -0.577134
O6    O     O_R   0.620920 0.500000 0.381240 -0.577131
O7    O     O_R   0.379080 0.499970 0.381190 -0.572534
O8    O     O_R   0.620920 0.500030 0.618810 -0.572541
O9    O     O_3   0.063027 0.265813 0.475901 -0.571873
C27   C     C_3   0.005739 0.184788 0.410697 -0.322199
H11   H     H_    0.000550 0.205700 0.296758 0.171886
H12   H     H_    0.942663 0.187311 0.461318 0.149210
H13   H     H_    0.030022 0.089276 0.420630 0.187823
O10   O     O_3   0.936983 0.734187 0.524073 -0.571882
C28   C     C_3   0.994201 0.815151 0.589545 -0.322288
H14   H     H_    0.057349 0.812602 0.539174 0.149248
H15   H     H_    0.999219 0.794183 0.703492 0.171926
H16   H     H_    0.969962 0.910681 0.579570 0.187798
N3    N     N_3   0.939898 0.354898 0.718765 -0.565660
H17   H     H_    0.991182 0.309222 0.763333 0.237289
H18   H     H_    0.900882 0.287329 0.675157 0.213169
N4    N     N_3   0.060105 0.645124 0.281269 -0.565627
H19   H     H_    0.008807 0.690699 0.236610 0.237284
H20   H     H_    0.099034 0.712777 0.324928 0.213227

loop_
_geom_bond_atom_site_label_1
_geom_bond_atom_site_label_2
_ccdc_geom_bond_type
Cu1   O8    S    
C25   H3    S    
C27   H12   S    
C28   H14   S    
Cu2   O7    S    
C26   H4    S    
N4    H19   S    
C13   N3    S    
C8    N1    A    
C12   O6    A    
C4    H6    S    
Cu1   O1    S    
Cu2   O3    S    
C4    C26   A    
C13   C15   S    
C10   H10   S    
C12   O8    A    
Cu1   O5    S    
C28   H15   S    
C27   H11   S    
N3    H17   S    
C3    H5    S    
C19   H2    S    
Cu2   O6    S    
C17   C23   T    
C7    H7    S    
C2    O2    A    
C16   C19   S    
C18   C24   T    
C14   C21   S    
C1    O1    A    
C19   C21   S    
C20   C22   S    
C13   C22   S    
C16   O10   S    
C20   H1    S    
C15   O9    S    
C21   C23   S    
C15   C20   S    
C8    C10   A    
C22   C24   S    
N3    H18   S    
C27   H13   S    
C11   O5    A    
C13   C19   S    
N4    H20   S    
C1    C6    S    
C6    C25   A    
C14   C20   S    
C15   C21   S    
C3    C25   A    
C2    O4    A    
C4    C6    A    
O9    C27   S    
C8    H8    S    
C28   H16   S    
C12   C18   S    
Cu1   Cu2   S    
C7    C9    A    
Cu2   N2    S    
O10   C28   S    
C11   C17   S    
C10   N2    A    
C16   C22   S    
Cu2   O2    S    
C14   C16   S    
C7    N2    A    
C11   O7    A    
Cu1   O4    S    
C1    O3    A    
C9    N1    A    
C2    C5    S    
C5    C26   A    
Cu1   N1    S    
C3    C5    A    
C9    H9    S    
C14   N4    S    
