data_mof_unit_43904.cif
_audit_creation_date              2012-10-26T20:00:57-0400
_audit_creation_method            fapswitch 2.2
_symmetry_space_group_name_H-M    P1
_symmetry_Int_Tables_number       1
_space_group_crystal_system       triclinic
_cell_length_a                    11.732827
_cell_length_b                    13.090844
_cell_length_c                    13.495941
_cell_angle_alpha                 93.347161
_cell_angle_beta                  75.933659
_cell_angle_gamma                 98.383098
_cell_volume                      1988.66867544

loop_
_atom_site_label
_atom_site_type_symbol
_atom_type_description
_atom_site_fract_x
_atom_site_fract_y
_atom_site_fract_z
_atom_type_partial_charge
C1    C     C_R   0.517363 0.700150 0.506330 0.555926
C2    C     C_R   0.399174 0.491542 0.808938 -0.008891
C3    C     C_R   0.467133 0.187450 0.511677 0.011838
C4    C     C_R   0.436103 0.491398 0.695905 0.536987
C5    C     C_R   0.522487 0.812776 0.516264 0.012414
C6    C     C_R   0.643463 0.977659 0.524089 -0.146454
C7    C     C_R   0.632808 0.871363 0.514439 -0.154621
C8    C     C_R   0.420441 0.863006 0.527123 -0.008297
C9    C     C_R   0.436428 0.971217 0.519661 0.055353
C10   C     C_R   0.545624 0.029173 0.528147 0.054567
C11   C     C_R   0.555438 0.137559 0.537375 -0.011971
C12   C     C_R   0.456752 0.514956 0.973486 0.051427
C13   C     C_R   0.364447 0.128639 0.493034 -0.155275
C14   C     C_R   0.347261 0.022516 0.500648 -0.145910
C15   C     C_R   0.933279 0.573497 0.612519 -0.186881
C16   C     C_R   0.479118 0.299907 0.503298 0.541877
C17   C     C_R   0.817869 0.570919 0.599754 0.029401
C18   C     C_R   0.866065 0.470960 0.445524 0.152169
C19   C     C_R   0.988112 0.481121 0.449782 0.040379
C20   C     C_R   0.018270 0.527361 0.538825 -0.019073
C21   C     C_R   0.133902 0.527137 0.552114 0.026953
C22   C     C_R   0.190614 0.438963 0.393846 0.057719
C23   C     C_R   0.480392 0.480530 0.869433 0.018308
C24   C     C_R   0.081342 0.444013 0.371744 -0.040383
C25   C     C_R   0.563790 0.504468 0.304174 0.551469
C26   C     C_R   0.746931 0.486760 0.033478 0.267292
C27   C     C_R   0.600381 0.504902 0.192099 -0.053407
C28   C     C_R   0.288127 0.520108 0.856342 -0.150005
C29   C     C_R   0.264664 0.554653 0.957429 -0.129813
C30   C     C_R   0.351247 0.561620 0.013845 0.002113
C31   C     C_3   0.295758 0.804177 0.555389 -0.380875
C32   C     C_3   0.078370 0.423178 0.260799 -0.441165
C33   C     C_3   0.827153 0.396028 0.367025 -0.332985
C34   C     C_R   0.542084 0.503940 0.030460 -0.012672
C35   C     C_3   0.886817 0.378466 0.970462 -0.005078
C36   C     C_3   0.955336 0.355218 0.047527 -0.266421
C37   C     C_3   0.000283 0.250697 0.024615 -0.479476
C38   C     C_3   0.334820 0.634610 0.105787 -0.410448
C39   C     C_3   0.652449 0.196978 0.583106 -0.381153
C40   C     C_R   0.657261 0.482589 0.979366 0.052517
C41   C     C_R   0.677751 0.449689 0.877462 -0.140325
C42   C     C_R   0.586697 0.438643 0.827541 -0.143348
C43   C     C_R   0.513327 0.504137 0.137093 -0.163131
C44   C     C_R   0.718586 0.503276 0.139323 -0.115687
Cu1   Cu    Cu3+1 0.386470 0.492430 0.492410 0.918041
Cu2   Cu    Cu3+1 0.613530 0.507570 0.507590 0.910067
H1    H     H_    0.788117 0.510342 0.179889 0.129621
H2    H     H_    0.761474 0.425203 0.837685 0.132593
H3    H     H_    0.421605 0.498890 0.177923 0.140555
H4    H     H_    0.223176 0.525764 0.812657 0.131222
H5    H     H_    0.182326 0.585859 0.988705 0.129906
H6    H     H_    0.602357 0.397435 0.755146 0.141597
H7    H     H_    0.289535 0.746641 0.614394 0.144296
H8    H     H_    0.228324 0.854434 0.592265 0.107505
H9    H     H_    0.271131 0.765819 0.486535 0.154234
H10   H     H_    0.168568 0.421089 0.210825 0.116128
H11   H     H_    0.028541 0.346620 0.249641 0.129915
H12   H     H_    0.295617 0.164714 0.473518 0.135738
H13   H     H_    0.043417 0.486839 0.231855 0.136983
H14   H     H_    0.733537 0.371651 0.377260 0.198279
H15   H     H_    0.854922 0.430445 0.291154 0.092577
H16   H     H_    0.863005 0.322388 0.368260 0.080191
H17   H     H_    0.942848 0.369290 0.892107 0.148301
H18   H     H_    0.805715 0.320312 0.976531 0.113156
H19   H     H_    0.032192 0.416380 0.045348 0.180002
H20   H     H_    0.896073 0.354507 0.125271 0.144822
H21   H     H_    0.924755 0.188096 0.027399 0.147137
H22   H     H_    0.048507 0.235817 0.082478 0.144936
H23   H     H_    0.730898 0.018950 0.521825 0.111193
H24   H     H_    0.062086 0.250104 0.947874 0.152558
H25   H     H_    0.275805 0.594893 0.173584 0.127470
H26   H     H_    0.420767 0.668725 0.122084 0.146523
H27   H     H_    0.292979 0.701270 0.090983 0.131129
H28   H     H_    0.687363 0.147790 0.629796 0.107601
H29   H     H_    0.726707 0.232065 0.521946 0.143699
H30   H     H_    0.616146 0.257009 0.638171 0.146469
H31   H     H_    0.266519 0.981078 0.485011 0.112063
H32   H     H_    0.711861 0.835017 0.506761 0.137994
H33   H     H_    0.158797 0.563982 0.619112 0.110657
H34   H     H_    0.259080 0.406071 0.337989 0.133486
H35   H     H_    0.956063 0.611709 0.679874 0.102507
H36   H     H_    0.754060 0.608021 0.656665 0.140358
N1    N     N_R   0.215880 0.481050 0.481000 -0.244367
N2    N     N_R   0.784100 0.518950 0.519000 -0.227399
O1    O     O_R   0.419710 0.645650 0.494620 -0.502479
O2    O     O_R   0.611450 0.658430 0.507430 -0.500874
O3    O     O_R   0.357340 0.490460 0.641450 -0.507978
O4    O     O_R   0.549080 0.503250 0.654260 -0.515823
O5    O     O_R   0.388550 0.341570 0.492570 -0.503912
O6    O     O_R   0.580290 0.354350 0.505380 -0.532682
O7    O     O_R   0.450920 0.496750 0.345740 -0.514593
O8    O     O_R   0.642660 0.509540 0.358550 -0.512375
O9    O     O_3   0.863891 0.482322 0.982735 -0.583986

loop_
_geom_bond_atom_site_label_1
_geom_bond_atom_site_label_2
_ccdc_geom_bond_type
C8    C9    A    
C6    H23   S    
C16   O6    A    
C41   C42   A    
Cu1   O1    S    
C19   C20   A    
C26   C44   A    
C15   H35   S    
C4    O3    A    
Cu1   Cu2   S    
C12   C23   A    
C23   C42   A    
C1    C5    S    
C36   C37   S    
Cu1   O3    S    
C18   C19   A    
C36   H20   S    
C14   H31   S    
Cu2   O8    S    
C37   H22   S    
C30   C38   S    
C17   H36   S    
C39   H28   S    
C28   H4    S    
C27   C44   A    
C21   N1    A    
C33   H16   S    
C18   N2    A    
C35   H18   S    
C39   H29   S    
Cu1   O5    S    
C9    C10   A    
C3    C13   A    
C44   H1    S    
C26   O9    S    
C16   O5    A    
C13   C14   A    
Cu1   N1    S    
C32   H11   S    
Cu2   O4    S    
C35   O9    S    
C1    O1    A    
C15   C20   A    
C38   H26   S    
C25   O7    A    
C5    C7    A    
C36   H19   S    
C43   H3    S    
C13   H12   S    
C35   C36   S    
C2    C4    S    
C9    C14   A    
C24   C32   S    
C29   C30   A    
C21   H33   S    
C39   H30   S    
C31   H7    S    
C11   C39   S    
C7    H32   S    
C4    O4    A    
C40   C41   A    
C33   H14   S    
Cu2   N2    S    
C12   C34   A    
C29   H5    S    
C1    O2    A    
C15   C17   A    
C38   H25   S    
C28   C29   A    
C25   O8    A    
C12   C30   A    
C8    C31   S    
C34   C43   A    
C6    C10   A    
C5    C8    A    
C35   H17   S    
C6    C7    A    
Cu2   O6    S    
C25   C27   S    
C17   N2    A    
C22   N1    A    
C19   C24   A    
C22   H34   S    
C26   C40   A    
C37   H21   S    
C41   H2    S    
C22   C24   A    
C31   H8    S    
Cu1   O7    S    
C18   C33   S    
C3    C11   A    
C10   C11   A    
C27   C43   A    
C20   C21   A    
C33   H15   S    
C2    C23   A    
C34   C40   A    
C2    C28   A    
C32   H13   S    
C31   H9    S    
C37   H24   S    
C32   H10   S    
C3    C16   S    
C42   H6    S    
Cu2   O2    S    
C38   H27   S    
