data_mof_unit_5232.cif
_audit_creation_date              2013-03-05T15:44:15-0500
_audit_creation_method            fapswitch 2.2
_symmetry_space_group_name_H-M    P1
_symmetry_Int_Tables_number       1
_space_group_crystal_system       triclinic
_cell_length_a                    19.668519
_cell_length_b                    11.072332
_cell_length_c                    19.531798
_cell_angle_alpha                 89.746729
_cell_angle_beta                  97.108423
_cell_angle_gamma                 90.29027
_cell_volume                      4220.78517489

loop_
_atom_site_label
_atom_site_type_symbol
_atom_site_description
_atom_site_fract_x
_atom_site_fract_y
_atom_site_fract_z
_atom_type_partial_charge
O1    O     O_R   0.783230 0.287800 0.346510 -0.499890
O2    O     O_R   0.216770 0.287800 0.653490 -0.477497
O3    O     O_R   0.283230 0.787800 0.346510 -0.499891
O4    O     O_R   0.716770 0.787800 0.653490 -0.477500
O5    O     O_R   0.760130 0.037060 0.338610 -0.470184
O6    O     O_R   0.239870 0.037060 0.661390 -0.490367
O7    O     O_R   0.260130 0.537060 0.338610 -0.470184
O8    O     O_R   0.739870 0.537060 0.661390 -0.490371
C1    C     C_R   0.709320 0.991519 0.367080 0.550162
C2    C     C_R   0.274190 0.948805 0.641310 0.616444
C3    C     C_R   0.209320 0.491519 0.367080 0.550165
C4    C     C_R   0.774190 0.448805 0.641310 0.616445
O9    O     O_R   0.666620 0.921370 0.332440 -0.494952
O10   O     O_R   0.333380 0.921370 0.667560 -0.553967
O11   O     O_R   0.166620 0.421370 0.332440 -0.494950
O12   O     O_R   0.833380 0.421370 0.667560 -0.553959
O13   O     O_R   0.557170 0.082420 0.312350 -0.548534
O14   O     O_R   0.442830 0.082420 0.687650 -0.527418
O15   O     O_R   0.057170 0.582420 0.312350 -0.548532
O16   O     O_R   0.942830 0.582420 0.687650 -0.527417
C5    C     C_R   0.536776 0.180069 0.338816 0.550385
C6    C     C_R   0.464975 0.180287 0.662472 0.565735
C7    C     C_R   0.036776 0.680070 0.338816 0.550385
C8    C     C_R   0.964975 0.680287 0.662473 0.565735
O17   O     O_R   0.548310 0.285980 0.316250 -0.458425
O18   O     O_R   0.451690 0.285980 0.683750 -0.450645
O19   O     O_R   0.048310 0.785980 0.316250 -0.458422
O20   O     O_R   0.951690 0.785980 0.683750 -0.450647
O21   O     O_R   0.680520 0.375500 0.327470 -0.449980
O22   O     O_R   0.319480 0.375500 0.672530 -0.435349
O23   O     O_R   0.180520 0.875500 0.327470 -0.449982
O24   O     O_R   0.819480 0.875500 0.672530 -0.435350
C9    C     C_R   0.737618 0.358943 0.362938 0.623356
C10   C     C_R   0.274444 0.316493 0.631565 0.557078
C11   C     C_R   0.237618 0.858945 0.362937 0.623354
C12   C     C_R   0.774444 0.816493 0.631565 0.557079
O25   O     O_R   0.780350 0.286970 0.193350 -0.521601
O26   O     O_R   0.219650 0.286970 0.806650 -0.515498
O27   O     O_R   0.280350 0.786970 0.193350 -0.521602
O28   O     O_R   0.719650 0.786970 0.806650 -0.515498
O29   O     O_R   0.757460 0.036290 0.196640 -0.477071
O30   O     O_R   0.242540 0.036290 0.803360 -0.478908
O31   O     O_R   0.257460 0.536290 0.196640 -0.477071
O32   O     O_R   0.742540 0.536290 0.803360 -0.478908
C13   C     C_R   0.721833 0.953776 0.163537 0.582362
C14   C     C_R   0.278209 0.953630 0.836446 0.569637
C15   C     C_R   0.221833 0.453776 0.163537 0.582361
C16   C     C_R   0.778209 0.453630 0.836446 0.569636
O33   O     O_R   0.663740 0.920540 0.179290 -0.502586
O34   O     O_R   0.336260 0.920540 0.820710 -0.521223
O35   O     O_R   0.163740 0.420540 0.179290 -0.502586
O36   O     O_R   0.836260 0.420540 0.820710 -0.521223
O37   O     O_R   0.554500 0.081650 0.170370 -0.541034
O38   O     O_R   0.445500 0.081650 0.829630 -0.524983
O39   O     O_R   0.054500 0.581650 0.170370 -0.541034
O40   O     O_R   0.945500 0.581650 0.829630 -0.524984
C17   C     C_R   0.528874 0.178345 0.142093 0.570271
C18   C     C_R   0.470222 0.178656 0.858463 0.586014
C19   C     C_R   0.028874 0.678345 0.142093 0.570270
C20   C     C_R   0.970222 0.678656 0.858463 0.586014
O41   O     O_R   0.545430 0.285140 0.163100 -0.445458
O42   O     O_R   0.454570 0.285140 0.836900 -0.457676
O43   O     O_R   0.045430 0.785140 0.163100 -0.445457
O44   O     O_R   0.954570 0.785140 0.836900 -0.457677
O45   O     O_R   0.677850 0.374730 0.185500 -0.471712
O46   O     O_R   0.322150 0.374730 0.814500 -0.477948
O47   O     O_R   0.177850 0.874730 0.185500 -0.471712
O48   O     O_R   0.822150 0.874730 0.814500 -0.477948
C21   C     C_R   0.735958 0.359263 0.164277 0.554535
C22   C     C_R   0.264088 0.359104 0.835773 0.563020
C23   C     C_R   0.235958 0.859263 0.164277 0.554534
C24   C     C_R   0.764088 0.859104 0.835773 0.563020
Cr1   Cr    Cr6+3 0.765830 0.160660 0.268180 1.083498
Cr2   Cr    Cr6+3 0.234170 0.160660 0.731820 1.085883
Cr3   Cr    Cr6+3 0.265830 0.660660 0.268180 1.083497
Cr4   Cr    Cr6+3 0.734170 0.660660 0.731820 1.085882
Cr5   Cr    Cr6+3 0.612110 0.009150 0.248770 1.016333
Cr6   Cr    Cr6+3 0.387890 0.009150 0.751230 0.995190
Cr7   Cr    Cr6+3 0.112110 0.509150 0.248770 1.016335
Cr8   Cr    Cr6+3 0.887890 0.509150 0.751230 0.995191
Cr9   Cr    Cr6+3 0.615930 0.324050 0.248450 1.145689
Cr10  Cr    Cr6+3 0.384070 0.324050 0.751550 1.119890
Cr11  Cr    Cr6+3 0.115930 0.824050 0.248450 1.145689
Cr12  Cr    Cr6+3 0.884070 0.824050 0.751550 1.119889
O49   O     O_3   0.664630 0.164620 0.255130 -0.323303
O50   O     O_3   0.335370 0.164620 0.744870 -0.318635
O51   O     O_3   0.164630 0.664620 0.255130 -0.323303
O52   O     O_3   0.835370 0.664620 0.744870 -0.318634
C25   C     C_1   0.488653 0.172293 0.596414 0.152320
C26   C     C_1   0.518074 0.172310 0.407071 0.113261
C27   C     C_1   0.988654 0.672293 0.596415 0.152324
C28   C     C_1   0.018076 0.672310 0.407071 0.113261
C29   C     C_1   0.509346 0.169198 0.466912 0.171575
C30   C     C_1   0.500446 0.169039 0.537476 0.191849
C31   C     C_1   0.009349 0.669199 0.466913 0.171576
C32   C     C_1   0.000449 0.669040 0.537477 0.191854
C33   C     C_3   0.692403 0.377021 0.529021 0.182627
C34   C     C_3   0.266230 0.326055 0.453363 0.159333
C35   C     C_3   0.192404 0.877020 0.529021 0.182625
C36   C     C_3   0.766229 0.826056 0.453362 0.159334
C37   C     C_3   0.729786 0.286497 0.487450 -0.164940
C38   C     C_3   0.216605 0.295423 0.506675 -0.190522
C39   C     C_3   0.229788 0.786498 0.487449 -0.164940
C40   C     C_3   0.716605 0.795422 0.506675 -0.190522
H1    H     H_    0.704237 0.200603 0.471051 0.100315
H2    H     H_    0.194292 0.212048 0.523495 0.193066
H3    H     H_    0.204240 0.700604 0.471049 0.100313
H4    H     H_    0.694292 0.712046 0.523495 0.193064
C41   C     C_3   0.740670 0.388620 0.435099 -0.028491
C42   C     C_3   0.264830 0.364712 0.561656 -0.052447
C43   C     C_3   0.240671 0.888623 0.435098 -0.028487
C44   C     C_3   0.764830 0.864712 0.561656 -0.052448
C45   C     C_3   0.701252 0.475782 0.476039 0.176472
C46   C     C_3   0.313759 0.392951 0.507890 0.168288
C47   C     C_3   0.201252 0.975782 0.476039 0.176475
C48   C     C_3   0.813758 0.892952 0.507889 0.168291
C49   C     C_3   0.769651 0.514706 0.518093 -0.199577
C50   C     C_3   0.276031 0.512115 0.489656 -0.159392
C51   C     C_3   0.269651 0.014708 0.518093 -0.199580
C52   C     C_3   0.776030 0.012115 0.489656 -0.159390
C53   C     C_3   0.807626 0.423285 0.477550 0.202162
C54   C     C_3   0.225746 0.481394 0.542529 0.220579
C55   C     C_3   0.307626 0.923290 0.477550 0.202170
C56   C     C_3   0.725745 0.981394 0.542529 0.220578
C57   C     C_3   0.799312 0.323191 0.529743 0.255416
C58   C     C_3   0.177989 0.413767 0.488054 0.232938
C59   C     C_3   0.299315 0.823193 0.529741 0.255420
C60   C     C_3   0.677988 0.913765 0.488054 0.232937
C61   C     C_3   0.759976 0.411952 0.570806 -0.005920
C62   C     C_3   0.227623 0.443628 0.435297 -0.060158
C63   C     C_3   0.259978 0.911953 0.570805 -0.005926
C64   C     C_3   0.727622 0.943628 0.435297 -0.060163
H5    H     H_    0.292836 0.103853 0.532094 0.115319
H6    H     H_    0.802713 0.090406 0.470615 0.207254
H7    H     H_    0.792836 0.603850 0.532093 0.115327
H8    H     H_    0.302714 0.590406 0.470616 0.207258
C65   C     C_3   0.528643 0.265856 0.978512 0.181110
C66   C     C_3   0.470098 0.267221 0.022541 0.184899
C67   C     C_3   0.028643 0.765857 0.978512 0.181110
C68   C     C_3   0.970098 0.767220 0.022541 0.184899
C69   C     C_3   0.564973 0.166074 0.023922 -0.148889
C70   C     C_3   0.431365 0.170290 0.976623 -0.148722
C71   C     C_3   0.064973 0.666074 0.023922 -0.148888
C72   C     C_3   0.931365 0.670290 0.976623 -0.148722
H9    H     H_    0.620565 0.164399 0.043175 0.130799
H10   H     H_    0.375886 0.172555 0.956946 0.131868
H11   H     H_    0.120565 0.664399 0.043175 0.130799
H12   H     H_    0.875886 0.672555 0.956946 0.131868
C73   C     C_3   0.504534 0.168349 0.069217 -0.030057
C74   C     C_3   0.491807 0.169750 0.931821 -0.014597
C75   C     C_3   0.004535 0.668349 0.069217 -0.030057
C76   C     C_3   0.991807 0.669750 0.931821 -0.014597
C77   C     C_3   0.467790 0.069535 0.023104 0.216050
C78   C     C_3   0.525902 0.068635 0.977189 0.231206
C79   C     C_3   0.967790 0.569535 0.023104 0.216050
C80   C     C_3   0.025902 0.568635 0.977189 0.231206
C81   C     C_1   0.763143 0.426844 0.904515 0.048023
C82   C     C_1   0.237001 0.427340 0.095511 0.042551
C83   C     C_1   0.263143 0.926844 0.904515 0.048023
C84   C     C_1   0.737001 0.927340 0.095511 0.042551
C85   C     C_1   0.748508 0.407939 0.034954 0.032316
C86   C     C_1   0.251507 0.407706 0.965019 0.031169
C87   C     C_1   0.248508 0.907939 0.034954 0.032316
C88   C     C_1   0.751507 0.907706 0.965019 0.031169
C89   C     C_1   0.755007 0.416316 0.964220 0.039449
C90   C     C_1   0.245103 0.416602 0.035806 0.033471
C91   C     C_1   0.255007 0.916316 0.964220 0.039449
C92   C     C_1   0.745103 0.916602 0.035806 0.033471
C93   C     C_1   0.743385 0.394010 0.095150 0.030810
C94   C     C_1   0.256600 0.393569 0.904849 0.032097
C95   C     C_1   0.243385 0.894010 0.095150 0.030810
C96   C     C_1   0.756600 0.893569 0.904849 0.032097
N1    N     N_R   0.631347 0.350256 0.561909 0.093557
O53   O     O_R   0.571702 0.386358 0.533648 -0.264286
O54   O     O_R   0.637848 0.312833 0.625568 -0.278644
N2    N     N_R   0.286371 0.243014 0.401844 0.110551
O55   O     O_R   0.350685 0.224887 0.396614 -0.254490
O56   O     O_R   0.240086 0.194214 0.357065 -0.269279
N3    N     N_R   0.131350 0.850253 0.561910 0.093554
O57   O     O_R   0.071704 0.886358 0.533650 -0.264286
O58   O     O_R   0.137851 0.812826 0.625567 -0.278643
N4    N     N_R   0.786372 0.743015 0.401844 0.110554
O59   O     O_R   0.850686 0.724873 0.396623 -0.254492
O60   O     O_R   0.740088 0.694222 0.357061 -0.269270
N5    N     N_R   0.643507 0.550605 0.448099 0.083397
O61   O     O_R   0.602380 0.591427 0.489664 -0.350562
O62   O     O_R   0.625054 0.557529 0.382014 -0.298356
N6    N     N_R   0.388078 0.391203 0.515654 0.080275
O63   O     O_R   0.419088 0.411898 0.461689 -0.271606
O64   O     O_R   0.420751 0.414545 0.575771 -0.331030
N7    N     N_R   0.143506 0.050604 0.448101 0.083400
O65   O     O_R   0.102382 0.091428 0.489668 -0.350563
O66   O     O_R   0.125047 0.057521 0.382017 -0.298351
N8    N     N_R   0.888077 0.891204 0.515651 0.080282
O67   O     O_R   0.919086 0.911904 0.461686 -0.271607
O68   O     O_R   0.920753 0.914536 0.575768 -0.331034
N9    N     N_R   0.870830 0.454314 0.450884 0.086558
O69   O     O_R   0.925458 0.469680 0.494153 -0.430402
O70   O     O_R   0.871738 0.480506 0.386030 -0.296210
N10   N     N_R   0.204146 0.562410 0.594076 0.118521
O71   O     O_R   0.140886 0.559938 0.606923 -0.284890
O72   O     O_R   0.249957 0.618455 0.636220 -0.292021
N11   N     N_R   0.370831 0.954319 0.450884 0.086559
O73   O     O_R   0.425461 0.969669 0.494154 -0.430390
O74   O     O_R   0.371739 0.980516 0.386031 -0.296216
N12   N     N_R   0.704145 0.062409 0.594076 0.118521
O75   O     O_R   0.640883 0.059944 0.606919 -0.284895
O76   O     O_R   0.749955 0.118451 0.636221 -0.292006
O77   O     O_3   0.847939 0.229565 0.547121 -0.547632
C97   C     C_3   0.899524 0.257506 0.601332 0.031882
H13   H     H_    0.879896 0.238061 0.651089 0.199839
H14   H     H_    0.917723 0.352185 0.598375 0.195924
C98   C     C_3   0.960960 0.174331 0.599948 -0.312098
H15   H     H_    0.009416 0.225565 0.613663 0.122527
H16   H     H_    0.959750 0.101177 0.638827 0.187174
H17   H     H_    0.961265 0.133131 0.548306 0.247624
O78   O     O_3   0.105453 0.422697 0.479201 -0.535192
C99   C     C_3   0.076494 0.348430 0.423840 0.027053
H18   H     H_    0.111667 0.278179 0.408643 0.218467
H19   H     H_    0.061691 0.405456 0.378400 0.181175
C100  C     C_3   0.011043 0.286725 0.439530 -0.283483
H20   H     H_    0.966333 0.329874 0.409730 0.194027
H21   H     H_    0.008781 0.191574 0.422003 0.190102
H22   H     H_    0.007222 0.291241 0.495291 0.219433
O79   O     O_3   0.347946 0.729572 0.547114 -0.547636
C101  C     C_3   0.399523 0.757505 0.601333 0.031893
H23   H     H_    0.379887 0.738052 0.651086 0.199844
H24   H     H_    0.417722 0.852185 0.598383 0.195929
C102  C     C_3   0.460962 0.674334 0.599952 -0.312091
H25   H     H_    0.509417 0.725577 0.613658 0.122531
H26   H     H_    0.459758 0.601190 0.638840 0.187145
H27   H     H_    0.461264 0.633119 0.548314 0.247643
O80   O     O_3   0.605452 0.922692 0.479200 -0.535184
C103  C     C_3   0.576495 0.848428 0.423837 0.027051
H28   H     H_    0.611669 0.778181 0.408639 0.218469
H29   H     H_    0.561690 0.905456 0.378399 0.181173
C104  C     C_3   0.511044 0.786715 0.439524 -0.283466
H30   H     H_    0.466333 0.829875 0.409731 0.194037
H31   H     H_    0.508782 0.691570 0.421984 0.190095
H32   H     H_    0.507227 0.791210 0.495286 0.219435
N13   N     N_R   0.564205 0.372848 0.957238 0.105279
O81   O     O_R   0.584939 0.455033 0.002518 -0.317730
O82   O     O_R   0.581927 0.380574 0.895402 -0.320010
N14   N     N_R   0.436858 0.375839 0.043768 0.106251
O83   O     O_R   0.417045 0.458484 0.998238 -0.331088
O84   O     O_R   0.419708 0.384388 0.105744 -0.320401
N15   N     N_R   0.064205 0.872848 0.957238 0.105279
O85   O     O_R   0.084938 0.955033 0.002518 -0.317730
O86   O     O_R   0.081927 0.880574 0.895402 -0.320010
N16   N     N_R   0.936858 0.875839 0.043768 0.106251
O87   O     O_R   0.917045 0.958484 0.998238 -0.331088
O88   O     O_R   0.919708 0.884388 0.105744 -0.320401
O89   O     O_3   0.427866 0.969952 0.040217 -0.576204
C105  C     C_3   0.464530 0.898273 0.091801 -0.013376
H33   H     H_    0.458945 0.936694 0.143199 0.175717
H34   H     H_    0.519889 0.890661 0.085356 0.168657
C106  C     C_3   0.433802 0.771655 0.089323 -0.335818
H35   H     H_    0.436058 0.730608 0.037928 0.186416
H36   H     H_    0.462800 0.713941 0.129328 0.146965
H37   H     H_    0.379517 0.775190 0.099248 0.178332
O90   O     O_3   0.562573 0.971142 0.953559 -0.563399
C107  C     C_3   0.517944 0.877056 0.927884 0.020018
H38   H     H_    0.463765 0.905480 0.913608 0.182370
H39   H     H_    0.518919 0.805144 0.967678 0.164213
C108  C     C_3   0.543604 0.823345 0.864331 -0.324213
H40   H     H_    0.596361 0.788108 0.877796 0.185678
H41   H     H_    0.509457 0.748014 0.844190 0.117545
H42   H     H_    0.543987 0.893429 0.823524 0.171324
O91   O     O_3   0.927866 0.469952 0.040217 -0.576204
C109  C     C_3   0.964530 0.398273 0.091801 -0.013376
H43   H     H_    0.958945 0.436694 0.143199 0.175717
H44   H     H_    0.019889 0.390661 0.085356 0.168657
C110  C     C_3   0.933802 0.271655 0.089323 -0.335817
H45   H     H_    0.936058 0.230608 0.037928 0.186416
H46   H     H_    0.962800 0.213941 0.129328 0.146966
H47   H     H_    0.879517 0.275190 0.099248 0.178332
O92   O     O_3   0.062573 0.471142 0.953560 -0.563399
C111  C     C_3   0.017944 0.377056 0.927884 0.020017
H48   H     H_    0.963765 0.405480 0.913608 0.182370
H49   H     H_    0.018919 0.305144 0.967678 0.164213
C112  C     C_3   0.043604 0.323345 0.864331 -0.324213
H50   H     H_    0.096361 0.288108 0.877796 0.185678
H51   H     H_    0.009457 0.248014 0.844190 0.117545
H52   H     H_    0.043987 0.393429 0.823524 0.171324

loop_
_geom_bond_atom_site_label_1
_geom_bond_atom_site_label_2
_geom_bond_distance
_ccdc_geom_bond_type
C35   C39   1.538490 S    
O4    C12   1.298643 A    
O39   C19   1.279332 A    
C70   H10   1.111495 S    
N8    O68   1.293353 A    
C67   N15   1.457549 S    
Cr7   O51   1.999472 S    
C112  H52   1.110608 S    
N11   O74   1.300493 A    
C24   C96   1.428945 S    
C44   C56   1.527865 S    
O25   C21   1.267226 A    
C69   C78   1.553822 S    
C34   C46   1.519972 S    
N16   O88   1.300180 A    
O21   C9    1.258225 A    
C67   C76   1.525183 S    
C36   C40   1.548236 S    
C110  H47   1.109423 S    
N14   O83   1.300268 A    
C25   C30   1.202837 T    
N9    O70   1.300496 A    
C1    O9    1.274279 A    
C2    C63   1.431620 S    
O44   Cr12  2.077252 S    
C105  H34   1.115111 S    
C27   C32   1.202839 T    
C3    O11   1.274280 A    
C4    O12   1.250976 A    
C75   C79   1.539537 S    
C69   H9    1.111630 S    
C47   N7    1.458166 S    
O2    C10   1.298644 A    
C71   C75   1.567538 S    
O17   Cr9   2.031126 S    
C13   C84   1.429146 S    
C103  H29   1.097304 S    
C5    C26   1.428278 S    
C98   H16   1.110027 S    
O31   Cr3   1.957971 S    
C33   N1    1.458820 S    
O16   Cr8   1.918933 S    
N7    O65   1.298912 A    
C88   C92   1.407681 S    
N12   O75   1.299492 A    
C34   C38   1.548235 S    
O13   C5    1.287545 A    
O28   Cr4   2.073423 S    
O12   Cr8   2.081982 S    
C103  C104  1.518166 S    
O22   Cr10  1.958266 S    
O15   C7    1.287546 A    
C102  H25   1.111121 S    
O46   Cr10  1.921841 S    
C40   C60   1.537424 S    
O48   C24   1.273385 A    
C109  H44   1.115111 S    
C49   H7    1.106310 S    
C50   H8    1.098191 S    
C26   C29   1.202509 T    
C77   O89   1.413160 S    
Cr12  O52   2.001160 S    
O7    Cr3   1.948793 S    
C67   C68   1.520218 S    
C36   C64   1.528220 S    
C17   O41   1.280604 A    
C51   C55   1.539701 S    
C19   O43   1.280604 A    
C55   N11   1.445360 S    
C20   O44   1.276496 A    
Cr8   O52   2.007522 S    
C78   O90   1.411811 S    
C41   C53   1.515432 S    
O46   C22   1.273385 A    
C6    C25   1.428139 S    
C83   C91   1.201630 T    
C84   C92   1.202845 T    
C59   C63   1.541428 S    
C57   C61   1.541421 S    
C16   O36   1.274541 A    
N10   O72   1.299906 A    
C79   C80   1.537730 S    
O27   C23   1.267226 A    
C39   H3    1.103449 S    
C106  H36   1.110486 S    
O31   C15   1.276860 A    
C85   C89   1.405737 S    
O32   C16   1.279267 A    
O47   Cr11  1.915052 S    
C53   C57   1.524351 S    
O24   C12   1.294230 A    
C102  H27   1.109555 S    
O30   C14   1.279267 A    
O90   C107  1.411973 S    
N5    O62   1.298883 A    
O8    Cr4   1.958106 S    
N6    O64   1.293353 A    
C106  H35   1.109726 S    
C50   C54   1.551329 S    
O32   Cr4   1.950444 S    
C73   C77   1.539537 S    
N4    O59   1.298298 A    
C67   C71   1.536354 S    
O11   Cr7   2.080307 S    
C17   C73   1.449029 S    
C51   C63   1.557750 S    
O27   Cr3   2.062728 S    
C49   C61   1.557753 S    
O80   C103  1.421453 S    
C42   C46   1.539761 S    
C48   N8    1.451036 S    
N2    O56   1.299153 A    
Cr5   O49   1.999472 S    
C104  H30   1.102479 S    
C110  H45   1.109726 S    
N1    O54   1.300242 A    
C66   C73   1.527808 S    
O22   C10   1.294228 A    
C76   C80   1.529756 S    
C68   N16   1.457802 S    
C39   C59   1.560519 S    
C2    O10   1.250973 A    
C81   C89   1.201630 T    
C40   C44   1.545737 S    
C57   O77   1.425197 S    
C105  C106  1.522455 S    
O78   C99   1.421450 S    
C48   C52   1.535805 S    
O5    C1    1.300824 A    
C100  H20   1.102475 S    
C55   C59   1.524348 S    
O3    C11   1.268436 A    
O8    C4    1.280610 A    
C45   N5    1.458166 S    
O77   C97   1.407152 S    
C21   C93   1.426885 S    
C108  H41   1.110568 S    
Cr1   O49   1.975857 S    
C45   C49   1.547274 S    
Cr3   O51   1.975857 S    
C47   C51   1.547277 S    
C10   C42   1.454619 S    
C23   C95   1.426885 S    
C65   C74   1.525183 S    
C88   C96   1.202770 T    
C44   C48   1.539762 S    
C36   N4    1.457876 S    
C99   C100  1.518166 S    
O26   Cr2   2.073423 S    
C60   O80   1.419603 S    
C5    O17   1.279991 A    
O29   C13   1.276860 A    
O28   C24   1.264635 A    
O14   C6    1.284241 A    
C8    O20   1.282496 A    
C38   C58   1.537422 S    
C107  H38   1.114182 S    
C112  H51   1.110569 S    
C97   C98   1.525970 S    
C97   H14   1.109592 S    
O40   Cr8   1.960969 S    
C106  H37   1.109423 S    
C54   N10   1.454828 S    
C65   N13   1.457550 S    
C72   C76   1.560976 S    
O41   Cr9   2.077395 S    
C110  H46   1.110486 S    
O33   Cr5   2.048994 S    
C52   H6    1.098195 S    
O5    Cr1   1.948793 S    
N9    O69   1.293179 A    
O35   Cr7   2.048994 S    
O29   Cr1   1.957971 S    
C18   C74   1.446209 S    
C101  H23   1.109085 S    
C104  H32   1.102310 S    
C111  H48   1.114182 S    
Cr9   O49   2.008689 S    
C18   O42   1.276496 A    
Cr11  O51   2.008689 S    
O26   C22   1.264635 A    
O20   Cr12  2.036346 S    
C36   C48   1.519971 S    
C107  C108  1.521141 S    
C98   H15   1.111114 S    
C100  H22   1.102302 S    
C35   C47   1.526306 S    
N12   O76   1.299909 A    
C58   C62   1.538456 S    
C37   C41   1.552879 S    
C46   N6    1.451039 S    
C39   C43   1.552879 S    
C20   C76   1.446209 S    
C86   C90   1.407681 S    
C111  C112  1.521141 S    
C12   C44   1.454619 S    
C87   C95   1.201602 T    
C7    C28   1.428277 S    
C56   C60   1.525671 S    
N8    O67   1.300399 A    
O42   Cr10  2.077252 S    
O18   Cr10  2.036346 S    
O91   C109  1.408521 S    
C109  C110  1.522455 S    
O34   Cr6   2.038296 S    
O6    Cr2   1.958106 S    
N15   O86   1.300192 A    
O24   Cr12  1.958266 S    
O30   Cr2   1.950444 S    
C4    C61   1.431619 S    
C43   C55   1.515433 S    
O48   Cr12  1.921841 S    
C66   C70   1.538744 S    
O37   C17   1.279332 A    
C15   O35   1.271765 A    
N16   O87   1.300268 A    
Cr10  O50   2.001160 S    
O40   C20   1.280439 A    
O43   Cr11  2.077395 S    
C71   H11   1.111630 S    
N7    O66   1.298886 A    
C35   N3    1.458822 S    
C105  H33   1.110123 S    
C50   C62   1.535729 S    
O39   Cr7   1.960128 S    
O45   Cr9   1.915052 S    
C86   C94   1.202770 T    
C13   O33   1.271765 A    
C34   C62   1.528222 S    
O13   Cr5   1.928179 S    
O23   Cr11  1.958490 S    
O15   Cr7   1.928179 S    
C68   C75   1.527808 S    
O23   C11   1.258225 A    
C38   C42   1.545736 S    
C103  H28   1.109063 S    
C3    C62   1.436325 S    
C40   H4    1.087040 S    
C66   N14   1.457802 S    
C82   C90   1.202845 T    
O14   Cr6   1.918933 S    
C98   H17   1.109551 S    
C65   C69   1.536354 S    
C68   C72   1.538744 S    
O6    C2    1.280612 A    
C16   C81   1.427045 S    
C99   H19   1.097305 S    
O1    Cr1   2.079445 S    
C70   C74   1.560976 S    
O19   Cr11  2.031126 S    
C22   C94   1.428945 S    
C102  H26   1.110039 S    
C42   C54   1.527862 S    
N5    O61   1.298910 A    
O89   C105  1.408521 S    
O45   C21   1.275629 A    
C14   C83   1.427045 S    
O47   C23   1.275629 A    
O1    C9    1.268435 A    
N3    O57   1.297402 A    
C6    O18   1.282496 A    
C59   O79   1.425199 S    
C109  H43   1.110123 S    
O36   Cr8   2.038296 S    
O38   Cr6   1.960969 S    
N11   O73   1.293185 A    
C29   C30   1.410628 S    
O37   Cr5   1.960128 S    
C31   C32   1.410629 S    
C72   H12   1.111495 S    
C71   C80   1.553822 S    
C69   C73   1.567538 S    
N1    O53   1.297405 A    
O7    C3    1.300822 A    
C51   H5    1.106309 S    
N13   O81   1.300231 A    
C34   N2    1.457877 S    
C49   C53   1.539704 S    
O16   C8    1.284241 A    
N14   O84   1.300180 A    
N10   O71   1.299491 A    
C7    O19   1.279991 A    
C108  H40   1.110759 S    
Cr4   O52   1.975459 S    
O2    Cr2   2.072622 S    
C58   O78   1.419600 S    
C41   C45   1.529613 S    
Cr6   O50   2.007522 S    
C60   C64   1.538461 S    
C79   O91   1.413160 S    
N4    O60   1.299151 A    
C85   C93   1.201602 T    
C37   H1    1.103449 S    
O9    Cr5   2.080307 S    
C107  H39   1.108809 S    
C1    C64   1.436324 S    
C112  H50   1.110757 S    
C28   C31   1.202508 T    
N6    O63   1.300398 A    
N13   O82   1.300190 A    
C54   C58   1.525670 S    
C87   C91   1.405737 S    
C37   C57   1.560522 S    
O79   C101  1.407154 S    
Cr2   O50   1.975459 S    
C53   N9    1.445358 S    
C46   C50   1.535805 S    
N2    O55   1.298297 A    
O21   Cr9   1.958490 S    
C101  H24   1.109597 S    
C104  H31   1.108203 S    
C111  H49   1.108809 S    
C9    C41   1.442581 S    
C33   C45   1.526309 S    
C8    C27   1.428140 S    
C11   C43   1.442581 S    
O3    Cr3   2.079445 S    
O38   C18   1.280439 A    
O25   Cr1   2.062728 S    
C56   N12   1.454830 S    
C52   C64   1.535727 S    
N15   O85   1.300231 A    
C19   C75   1.449029 S    
C101  C102  1.525976 S    
C65   C66   1.520218 S    
C14   O34   1.274541 A    
C35   C63   1.520271 S    
C72   C79   1.555691 S    
C33   C61   1.520271 S    
C80   O92   1.411810 S    
C100  H21   1.108189 S    
C99   H18   1.109064 S    
C38   H2    1.087034 S    
O10   Cr6   2.081982 S    
C70   C77   1.555691 S    
C108  H42   1.110608 S    
O4    Cr4   2.072622 S    
C97   H13   1.109078 S    
C74   C78   1.529756 S    
C43   C47   1.529614 S    
C77   C78   1.537730 S    
O92   C111  1.411974 S    
C33   C37   1.538491 S    
C52   C56   1.551330 S    
N3    O58   1.300238 A    
C15   C82   1.429146 S    
