data_mof_unit_9442.cif
_audit_creation_date              2012-12-11T16:49:20-0500
_audit_creation_method            fapswitch 2.2
_symmetry_space_group_name_H-M    P1
_symmetry_Int_Tables_number       1
_space_group_crystal_system       triclinic
_cell_length_a                    6.94881
_cell_length_b                    25.964896
_cell_length_c                    28.97317
_cell_angle_alpha                 89.914789
_cell_angle_beta                  89.785054
_cell_angle_gamma                 90.140025
_cell_volume                      5227.42968513

loop_
_atom_site_label
_atom_site_type_symbol
_atom_type_description
_atom_site_fract_x
_atom_site_fract_y
_atom_site_fract_z
_atom_type_partial_charge
O1    O     O_R   0.601010 0.796750 0.202520 -0.533682
O2    O     O_R   0.398990 0.203250 0.797480 -0.537130
O3    O     O_R   0.271260 0.802890 0.297300 -0.542861
O4    O     O_R   0.728740 0.197110 0.702700 -0.541454
O5    O     O_R   0.100940 0.703200 0.297630 -0.536329
O6    O     O_R   0.899060 0.296800 0.702370 -0.537249
C1    C     C_R   0.440172 0.815573 0.313133 0.689130
C2    C     C_R   0.559857 0.184503 0.686799 0.694389
O7    O     O_R   0.271300 0.802890 0.202860 -0.543065
O8    O     O_R   0.728700 0.197110 0.797140 -0.544372
O9    O     O_R   0.100980 0.703210 0.202520 -0.537238
O10   O     O_R   0.899020 0.296790 0.797480 -0.539249
C3    C     C_R   0.442839 0.816211 0.187199 0.684768
C4    C     C_R   0.558881 0.185679 0.813946 0.697906
O11   O     O_R   0.600970 0.796740 0.297640 -0.538029
O12   O     O_R   0.399030 0.203260 0.702360 -0.538183
O13   O     O_3   0.434500 0.717270 0.250080 -0.364754
O14   O     O_3   0.565500 0.282730 0.749920 -0.368022
V1    V     V_3+5 0.159650 0.756040 0.250080 1.380205
V2    V     V_3+5 0.840350 0.243960 0.749920 1.388254
O15   O     O_R   0.771260 0.697060 0.202850 -0.541979
O16   O     O_R   0.228740 0.302940 0.797150 -0.541042
C5    C     C_R   0.940319 0.684503 0.186903 0.686127
C6    C     C_R   0.059637 0.315617 0.812994 0.698937
O17   O     O_R   0.771230 0.697050 0.297300 -0.539366
O18   O     O_R   0.228770 0.302950 0.702700 -0.540171
C7    C     C_R   0.939939 0.684318 0.313407 0.694896
C8    C     C_R   0.060061 0.315686 0.686595 0.691983
V3    V     V_3+5 0.659640 0.743910 0.250080 1.390398
V4    V     V_3+5 0.340360 0.256090 0.749920 1.391662
O19   O     O_3   0.934660 0.782680 0.250080 -0.370738
O20   O     O_3   0.065340 0.217320 0.749920 -0.370517
C9    C     C_R   0.130022 0.630359 0.369804 -0.155230
C10   C     C_R   0.869976 0.369650 0.630202 -0.155512
H1    H     H_    0.262459 0.646291 0.356026 0.121183
H2    H     H_    0.737539 0.353719 0.643981 0.120954
C11   C     C_R   0.141660 0.594566 0.406052 -0.133660
C12   C     C_R   0.858337 0.405445 0.593956 -0.133765
H3    H     H_    0.282492 0.584173 0.418863 0.131681
H4    H     H_    0.717506 0.415840 0.581146 0.131686
C13   C     C_R   0.974475 0.572657 0.425537 0.017655
C14   C     C_R   0.025523 0.427354 0.574471 0.017675
C15   C     C_R   0.795046 0.587654 0.407428 -0.129487
C16   C     C_R   0.204952 0.412356 0.592579 -0.129625
H5    H     H_    0.662908 0.571746 0.421380 0.137559
H6    H     H_    0.337090 0.428263 0.578627 0.137578
C17   C     C_R   0.783353 0.623509 0.371097 -0.158025
C18   C     C_R   0.216645 0.376498 0.628908 -0.158193
H7    H     H_    0.642686 0.634091 0.358298 0.118304
H8    H     H_    0.357312 0.365915 0.641706 0.118195
C19   C     C_R   0.950761 0.645500 0.351726 -0.054780
C20   C     C_R   0.049237 0.354506 0.648279 -0.053919
N1    N     N_R   0.826619 0.513496 0.483540 -0.276051
N2    N     N_R   0.173378 0.486515 0.516469 -0.276052
N3    N     N_R   0.838673 0.479710 0.518220 -0.281596
N4    N     N_R   0.161324 0.520302 0.481789 -0.281581
C21   C     C_R   0.012320 0.465374 0.535561 0.511917
C22   C     C_R   0.987678 0.534638 0.464448 0.511927
C23   C     C_R   0.130775 0.627890 0.133182 -0.158106
C24   C     C_R   0.869090 0.371785 0.867062 -0.159297
H9    H     H_    0.263161 0.641207 0.148792 0.122288
H10   H     H_    0.736622 0.358165 0.851698 0.120899
C25   C     C_R   0.142188 0.592197 0.097125 -0.142960
C26   C     C_R   0.857697 0.407363 0.903207 -0.141527
H11   H     H_    0.282691 0.578676 0.086444 0.100392
H12   H     H_    0.717088 0.420556 0.914132 0.100141
C27   C     C_R   0.974633 0.573623 0.075642 0.094653
C28   C     C_R   0.025343 0.426230 0.924459 0.094197
C29   C     C_R   0.795100 0.591556 0.091462 -0.140369
C30   C     C_R   0.204923 0.408690 0.908302 -0.137192
H13   H     H_    0.663177 0.578700 0.075345 0.099454
H14   H     H_    0.336977 0.421705 0.924250 0.099264
C31   C     C_R   0.783586 0.627189 0.127652 -0.160934
C32   C     C_R   0.216412 0.373260 0.871965 -0.164093
H15   H     H_    0.643003 0.640381 0.138625 0.118266
H16   H     H_    0.357044 0.360357 0.860753 0.119090
C33   C     C_R   0.951368 0.645949 0.148944 -0.054767
C34   C     C_R   0.048558 0.354201 0.850923 -0.060491
C35   C     C_R   0.852117 0.495758 0.032694 -0.149202
C36   C     C_R   0.147925 0.504060 0.967470 -0.149134
H17   H     H_    0.738081 0.491185 0.057944 0.112029
H18   H     H_    0.261882 0.508684 0.942210 0.111901
C37   C     C_R   0.864605 0.460294 0.996431 -0.151357
C38   C     C_R   0.135513 0.539497 0.003751 -0.151414
H19   H     H_    0.759755 0.429445 0.994843 0.109885
H20   H     H_    0.240393 0.570339 0.005367 0.109945
C39   C     C_R   0.012630 0.463945 0.963270 0.080198
C40   C     C_R   0.987435 0.535859 0.036888 0.080442
C41   C     C_R   0.369807 0.127234 0.633728 -0.158291
C42   C     C_R   0.630339 0.873156 0.365888 -0.160215
H21   H     H_    0.237473 0.139995 0.649857 0.121956
H22   H     H_    0.762592 0.860419 0.349703 0.121468
C43   C     C_R   0.358444 0.091610 0.597635 -0.142091
C44   C     C_R   0.641822 0.908897 0.401884 -0.142114
H23   H     H_    0.218051 0.077587 0.587457 0.100134
H24   H     H_    0.782220 0.923011 0.411960 0.100029
C45   C     C_R   0.525902 0.073765 0.575468 0.094796
C46   C     C_R   0.474458 0.926724 0.424104 0.094925
C47   C     C_R   0.705342 0.092296 0.590704 -0.139244
C48   C     C_R   0.294976 0.908090 0.408996 -0.139287
H25   H     H_    0.837189 0.080016 0.574066 0.099480
H26   H     H_    0.163213 0.920377 0.425670 0.099572
C49   C     C_R   0.716817 0.127828 0.626967 -0.159435
C50   C     C_R   0.283379 0.872429 0.372839 -0.160332
H27   H     H_    0.857270 0.141521 0.637468 0.118270
H28   H     H_    0.142909 0.858645 0.362441 0.118094
C51   C     C_R   0.549079 0.145923 0.648875 -0.055773
C52   C     C_R   0.451039 0.854309 0.350915 -0.055593
C53   C     C_R   0.650081 0.996714 0.531637 -0.149976
C54   C     C_R   0.350446 0.003828 0.467879 -0.150259
H29   H     H_    0.765611 0.992569 0.556323 0.111445
H30   H     H_    0.234885 0.007957 0.443199 0.111129
C55   C     C_R   0.637451 0.961353 0.495314 -0.149642
C56   C     C_R   0.363094 0.039195 0.504198 -0.149686
H31   H     H_    0.743723 0.931027 0.493103 0.110953
H32   H     H_    0.256815 0.069520 0.506405 0.110740
C57   C     C_R   0.487471 0.964405 0.462904 0.080506
C58   C     C_R   0.513037 0.036134 0.536620 0.080654
C59   C     C_R   0.383750 0.144641 0.883087 0.140615
C60   C     C_R   0.641061 0.863692 0.124821 0.131417
C61   C     C_R   0.378139 0.105521 0.916641 -0.172936
C62   C     C_R   0.644482 0.894582 0.084916 -0.165160
H33   H     H_    0.257161 0.103236 0.940291 0.106120
H34   H     H_    0.777604 0.898762 0.065701 0.096603
C63   C     C_R   0.529456 0.070547 0.921661 0.066256
C64   C     C_R   0.483339 0.923109 0.071623 0.072852
C65   C     C_R   0.690464 0.074813 0.892671 -0.151401
C66   C     C_R   0.316803 0.919722 0.098843 -0.147050
H35   H     H_    0.809707 0.048296 0.896038 0.113119
H36   H     H_    0.193733 0.943984 0.091839 0.110564
C67   C     C_R   0.697858 0.112652 0.858426 -0.211269
C68   C     C_R   0.310587 0.886628 0.136909 -0.223257
H37   H     H_    0.823114 0.114014 0.836083 0.131268
H38   H     H_    0.191769 0.888554 0.159646 0.145931
C69   C     C_R   0.545388 0.147649 0.852423 -0.067702
C70   C     C_R   0.464266 0.854917 0.148644 -0.074048
C71   C     C_R   0.679431 0.022566 0.987210 -0.153562
C72   C     C_R   0.337735 0.967978 0.003189 -0.154697
H39   H     H_    0.811565 0.044111 0.982163 0.108015
H40   H     H_    0.204851 0.946844 0.008411 0.107241
C73   C     C_R   0.667133 0.987737 0.023849 -0.151803
C74   C     C_R   0.349569 0.003251 0.966782 -0.154003
H41   H     H_    0.790588 0.983690 0.046222 0.105582
H42   H     H_    0.225120 0.008796 0.944940 0.106746
C75   C     C_R   0.496220 0.959890 0.032286 0.094303
C76   C     C_R   0.520405 0.030996 0.958544 0.095654
C77   C     C_3   0.219058 0.183094 0.883561 -0.357046
C78   C     C_3   0.284985 0.235730 0.900977 -0.726691
H43   H     H_    0.350235 0.231908 0.935754 0.222757
H44   H     H_    0.391893 0.253395 0.877220 0.215917
H45   H     H_    0.158995 0.261744 0.903679 0.209999
H46   H     H_    0.149036 0.186143 0.849401 0.198951
H47   H     H_    0.101982 0.169830 0.907049 0.168124
C79   C     C_3   0.832470 0.851362 0.146100 -0.323839
C80   C     C_3   0.858244 0.884610 0.189813 -0.669218
H48   H     H_    0.891016 0.925003 0.179731 0.192218
H49   H     H_    0.727883 0.885555 0.211965 0.210520
H50   H     H_    0.976339 0.869657 0.211533 0.218336
H51   H     H_    0.850567 0.809659 0.152806 0.188865
H52   H     H_    0.948512 0.860031 0.121056 0.149230

loop_
_geom_bond_atom_site_label_1
_geom_bond_atom_site_label_2
_ccdc_geom_bond_type
C37   C39   A    
C25   H11   S    
C42   C44   A    
C80   H49   S    
C31   H15   S    
C74   C76   A    
C47   C49   A    
C77   C78   S    
C78   H45   S    
O4    C2    A    
V1    O19   S    
C23   C33   A    
C50   H28   S    
C17   H7    S    
O18   C8    A    
C79   H52   S    
C71   H39   S    
C24   C34   A    
C27   C40   S    
C32   H16   S    
C11   C13   A    
C26   C28   A    
C38   H20   S    
C13   C22   S    
C12   C14   A    
C36   C39   A    
O3    C1    A    
C63   C76   S    
C53   H29   S    
C4    C69   S    
C44   C46   A    
C72   C75   A    
C59   C77   S    
C48   C50   A    
O13   V3    S    
C54   C57   A    
C24   H10   S    
C2    O12   A    
C45   C58   S    
C29   H13   S    
O7    C3    A    
C54   H30   S    
O13   V1    S    
O5    C7    A    
O7    V1    S    
O6    C8    A    
O8    V2    S    
C35   C37   A    
C30   C32   A    
O3    V1    S    
O14   V4    S    
C41   H21   S    
C54   C56   A    
C10   H2    S    
C53   C55   A    
C59   C61   A    
C43   H23   S    
C80   H50   S    
V3    O19   S    
C13   C15   A    
O10   V2    S    
C14   C16   A    
O2    C4    A    
C66   C68   A    
C14   C21   S    
C48   H26   S    
C35   C40   A    
C45   C47   A    
C64   C75   S    
C60   C62   A    
C53   C58   A    
O11   V3    S    
C25   C27   A    
N1    N3    A    
O17   V3    S    
N2    N4    A    
C23   H9    S    
C30   H14   S    
C36   C38   A    
V4    O20   S    
C71   C76   A    
C78   H43   S    
C36   H18   S    
C72   C74   A    
C35   H17   S    
C17   C19   A    
C1    O11   A    
C16   H6    S    
O15   V3    S    
C59   C69   A    
C9    C19   A    
C60   C70   A    
C26   H12   S    
C62   C64   A    
C44   H24   S    
C65   H35   S    
C61   C63   A    
C67   C69   A    
C42   H22   S    
C68   C70   A    
O9    V1    S    
C41   C51   A    
C60   C79   S    
C49   H27   S    
N3    C21   A    
C5    C33   S    
C29   C31   A    
C18   H8    S    
C15   H5    S    
C79   C80   S    
C56   C58   A    
C72   H40   S    
C55   C57   A    
C28   C30   A    
C47   H25   S    
O18   V4    S    
C46   C48   A    
O15   C5    A    
O8    C4    A    
C3    C70   S    
O16   C6    A    
O1    C3    A    
C62   H34   S    
C2    C51   S    
C43   C45   A    
C50   C52   A    
C74   H42   S    
C46   C57   S    
V2    O20   S    
C6    C34   S    
C71   C73   A    
C64   C66   A    
O16   V4    S    
C37   H19   S    
C10   C12   A    
C23   C25   A    
C38   C40   A    
C78   H44   S    
C67   H37   S    
C66   H36   S    
C56   H32   S    
N1    C22   A    
O5    V1    S    
C73   C75   A    
O17   C7    A    
O6    V2    S    
O10   C6    A    
C10   C20   A    
C24   C26   A    
O2    V4    S    
C65   C67   A    
C73   H41   S    
C77   H46   S    
C42   C52   A    
C79   H51   S    
C11   H3    S    
C12   H4    S    
C7    C19   S    
C8    C20   S    
O1    V3    S    
C15   C17   A    
O9    C5    A    
C9    H1    S    
N4    C22   A    
O14   V2    S    
C41   C43   A    
C77   H47   S    
C9    C11   A    
C61   H33   S    
O4    V2    S    
C18   C20   A    
C68   H38   S    
C32   C34   A    
C80   H48   S    
C63   C65   A    
C28   C39   S    
C31   C33   A    
C1    C52   S    
C49   C51   A    
C27   C29   A    
O12   V4    S    
C16   C18   A    
C55   H31   S    
N2    C21   A    
