data_mof_unit_32008.cif
_audit_creation_date              2012-12-10T20:42:40-0500
_audit_creation_method            fapswitch 2.2
_symmetry_space_group_name_H-M    P1
_symmetry_Int_Tables_number       1
_space_group_crystal_system       triclinic
_cell_length_a                    8.893804
_cell_length_b                    10.584979
_cell_length_c                    9.917863
_cell_angle_alpha                 89.639578
_cell_angle_beta                  89.94094
_cell_angle_gamma                 90.333306
_cell_volume                      933.640045802

loop_
_atom_site_label
_atom_site_type_symbol
_atom_type_description
_atom_site_fract_x
_atom_site_fract_y
_atom_site_fract_z
_atom_type_partial_charge
C1    C     C_R   0.501074 0.260716 0.500038 0.954263
C2    C     C_R   0.356241 0.935443 0.474344 0.020061
C3    C     C_R   0.492706 0.871273 0.496861 -0.188141
C4    C     C_R   0.629061 0.935292 0.498064 0.082591
C5    C     C_3   0.756349 0.926537 0.595642 -0.431378
C6    C     C_3   0.760278 0.069977 0.593948 -0.485704
C7    C     C_R   0.380365 0.453063 0.072411 0.086704
C8    C     C_R   0.609693 0.560249 0.071309 -0.218881
C9    C     C_R   0.608815 0.561672 0.927684 0.645386
C10   C     C_R   0.382655 0.446812 0.930972 0.019297
C11   C     C_3   0.317891 0.311904 0.937545 0.125343
C12   C     C_R   0.218899 0.500053 0.499986 0.937108
C13   C     C_3   0.310029 0.327931 0.092284 0.408239
C14   C     C_R   0.498232 0.739284 0.499541 0.903236
C15   C     C_R   0.781119 0.500116 0.499980 0.919462
C16   C     C_1   0.065481 0.500143 0.499999 -0.130993
C17   C     C_1   0.934559 0.500157 0.499947 -0.159098
C18   C     C_R   0.631498 0.064032 0.497684 0.059182
C19   C     C_R   0.496886 0.129001 0.497482 -0.259606
C20   C     C_R   0.360439 0.067137 0.472496 0.540725
H1    H     H_    0.379119 0.261943 0.153324 0.123827
H2    H     H_    0.721830 0.885702 0.694631 0.238841
H3    H     H_    0.857062 0.882851 0.549505 0.197776
H4    H     H_    0.729517 0.112922 0.691937 0.211610
H5    H     H_    0.863409 0.109548 0.545906 0.234201
H6    H     H_    0.700078 0.606778 0.124823 0.187279
N1    N     N_R   0.499010 0.499140 0.142800 -0.164937
N2    N     N_R   0.499010 0.499180 0.857150 -0.152151
O1    O     O_R   0.500020 0.316790 0.614690 -0.644310
O2    O     O_R   0.500000 0.316760 0.385350 -0.607026
O3    O     O_R   0.285350 0.500020 0.614650 -0.634452
O4    O     O_R   0.285340 0.499980 0.385310 -0.558887
O5    O     O_R   0.500000 0.683240 0.614650 -0.594123
O6    O     O_R   0.499980 0.683210 0.385310 -0.620907
O7    O     O_R   0.714660 0.500020 0.614690 -0.564396
O8    O     O_R   0.714650 0.499980 0.385350 -0.616929
Zn1   Zn    Zn3+2 0.500010 0.500020 0.653130 0.989702
Zn2   Zn    Zn3+2 0.499990 0.499980 0.346870 0.984398
F1    F     F_    0.232449 0.134428 0.452750 -0.682423
C21   C     C_3   0.425427 0.200314 0.901994 -0.404675
C22   C     C_3   0.591380 0.218743 0.939978 -0.884897
H7    H     H_    0.646312 0.287879 0.871148 0.276396
H8    H     H_    0.605241 0.250264 0.045586 0.251451
H9    H     H_    0.650902 0.127434 0.929417 0.254704
H10   H     H_    0.383139 0.114015 0.954503 0.201666
H11   H     H_    0.421738 0.178057 0.793570 0.254217
F2    F     F_    0.166812 0.341954 0.145322 -0.642602
C23   C     C_3   0.206682 0.867422 0.462159 -0.368093
C24   C     C_3   0.163727 0.849056 0.314754 -0.771505
H12   H     H_    0.249487 0.791160 0.262599 0.265033
H13   H     H_    0.053593 0.799412 0.308935 0.237508
H14   H     H_    0.154083 0.941908 0.262742 0.283950
H15   H     H_    0.209148 0.774153 0.513722 0.174697
H16   H     H_    0.117849 0.922625 0.513478 0.233848
F3    F     F_    0.720372 0.622874 0.860392 -0.661076
C25   C     C_3   0.155838 0.299743 0.877157 -0.321217
C26   C     C_3   0.144248 0.237885 0.738784 -0.821016
H17   H     H_    0.225234 0.279913 0.667341 0.307662
H18   H     H_    0.164958 0.134728 0.746911 0.248312
H19   H     H_    0.029184 0.251356 0.698014 0.249757
H20   H     H_    0.084564 0.240704 0.945144 0.246121
H21   H     H_    0.102773 0.394558 0.871496 0.234870

loop_
_geom_bond_atom_site_label_1
_geom_bond_atom_site_label_2
_ccdc_geom_bond_type
C14   O6    A    
C7    C10   A    
C21   H11   S    
C15   C17   S    
C9    F3    S    
O4    Zn2   S    
C8    H6    S    
C22   H7    S    
C19   C20   A    
C5    H3    S    
C7    C13   S    
C24   H14   S    
C6    H4    S    
C14   O5    A    
O8    Zn2   S    
C2    C3    A    
C20   F1    S    
C13   H1    S    
C12   O4    A    
C23   H16   S    
C22   H8    S    
C26   H17   S    
C11   C21   S    
C3    C14   S    
N2    Zn1   S    
C23   C24   S    
C5    C6    S    
C1    O1    A    
C1    O2    A    
O7    Zn1   S    
O5    Zn1   S    
C18   C19   A    
C12   O3    A    
C23   H15   S    
C6    C18   S    
C22   H9    S    
C25   H21   S    
C26   H18   S    
C6    H5    S    
C1    C19   S    
C10   C11   S    
C5    H2    S    
N1    Zn2   S    
C10   N2    A    
C3    C4    A    
C16   C17   T    
C12   C16   S    
C15   O8    A    
C11   C13   S    
C7    N1    A    
C21   H10   S    
O2    Zn2   S    
C13   F2    S    
C24   H12   S    
C15   O7    A    
C25   C26   S    
C8    N1    A    
C25   H20   S    
C4    C5    S    
C26   H19   S    
C21   C22   S    
C2    C23   S    
O6    Zn2   S    
C2    C20   A    
C4    C18   A    
O1    Zn1   S    
C11   C25   S    
O3    Zn1   S    
C9    N2    A    
C8    C9    A    
C24   H13   S    
