data_mof_unit_29937.cif
_audit_creation_date              2012-12-11T15:08:39-0500
_audit_creation_method            fapswitch 2.2
_symmetry_space_group_name_H-M    P1
_symmetry_Int_Tables_number       1
_space_group_crystal_system       triclinic
_cell_length_a                    25.970816
_cell_length_b                    27.594895
_cell_length_c                    8.372262
_cell_angle_alpha                 89.999722
_cell_angle_beta                  96.362409
_cell_angle_gamma                 90.000183
_cell_volume                      5963.12606109

loop_
_atom_site_label
_atom_site_type_symbol
_atom_type_description
_atom_site_fract_x
_atom_site_fract_y
_atom_site_fract_z
_atom_type_partial_charge
Ba1   Ba    Ba6+2 0.999910 0.465960 0.844870 1.647930
Ba2   Ba    Ba6+2 0.999910 0.534040 0.344870 1.647950
Ba3   Ba    Ba6+2 0.499910 0.965960 0.844870 1.647892
Ba4   Ba    Ba6+2 0.499910 0.034040 0.344870 1.647946
C1    C     C_3   0.042794 0.241888 0.612145 -0.379189
C2    C     C_3   0.042782 0.758124 0.112104 -0.379186
C3    C     C_3   0.542792 0.741889 0.612314 -0.379155
C4    C     C_3   0.542788 0.258121 0.112091 -0.379200
C5    C     C_R   0.884766 0.390948 0.151372 0.075928
C6    C     C_R   0.884762 0.609050 0.651374 0.075939
C7    C     C_R   0.384769 0.890947 0.151366 0.075913
C8    C     C_R   0.384762 0.109050 0.651376 0.075933
C9    C     C_R   0.844974 0.358007 0.099039 -0.113368
C10   C     C_R   0.844966 0.641988 0.599049 -0.113399
C11   C     C_R   0.344977 0.858005 0.099033 -0.113321
C12   C     C_R   0.344968 0.141989 0.599046 -0.113401
C13   C     C_R   0.834643 0.317572 0.194594 -0.004538
C14   C     C_R   0.834632 0.682420 0.694612 -0.004556
C15   C     C_R   0.334649 0.817568 0.194582 -0.004506
C16   C     C_R   0.334634 0.182422 0.694608 -0.004556
C17   C     C_R   0.863814 0.311904 0.346259 -0.143698
C18   C     C_R   0.863803 0.688088 0.846275 -0.143692
C19   C     C_R   0.363823 0.811898 0.346242 -0.143692
C20   C     C_R   0.363804 0.188089 0.846274 -0.143695
C21   C     C_R   0.902480 0.345558 0.399949 -0.004199
C22   C     C_R   0.902474 0.654437 0.899956 -0.004167
C23   C     C_R   0.402489 0.845553 0.399932 -0.004232
C24   C     C_R   0.402473 0.154437 0.899958 -0.004166
C25   C     C_R   0.800491 0.232220 0.154867 -0.074619
C26   C     C_R   0.800475 0.767769 0.654886 -0.074633
C27   C     C_R   0.300495 0.732217 0.154849 -0.074574
C28   C     C_R   0.300480 0.267773 0.654886 -0.074642
C29   C     C_R   0.260998 0.698832 0.104738 0.267721
C30   C     C_R   0.260985 0.301159 0.604771 0.267714
C31   C     C_R   0.760996 0.198833 0.104748 0.267714
C32   C     C_R   0.760978 0.801154 0.604780 0.267721
C33   C     C_R   0.211041 0.715331 0.042572 0.031420
C34   C     C_R   0.211030 0.284662 0.542594 0.031444
C35   C     C_R   0.711041 0.215331 0.042567 0.031434
C36   C     C_R   0.711021 0.784655 0.542625 0.031445
C37   C     C_R   0.203229 0.765723 0.026529 -0.118775
C38   C     C_R   0.203217 0.234269 0.526537 -0.118780
C39   C     C_R   0.703228 0.265723 0.026513 -0.118776
C40   C     C_R   0.703209 0.734262 0.526581 -0.118787
C41   C     C_R   0.743197 0.298738 0.073806 -0.079995
C42   C     C_R   0.743181 0.701249 0.573859 -0.080001
C43   C     C_R   0.243199 0.798737 0.073817 -0.080005
C44   C     C_R   0.243187 0.201255 0.573825 -0.079993
C45   C     C_3   0.999377 0.278119 0.148851 0.328620
C46   C     C_3   0.999422 0.721891 0.649128 0.328669
C47   C     C_3   0.499340 0.778109 0.148407 0.328406
C48   C     C_3   0.499427 0.221887 0.649202 0.328727
C49   C     C_R   0.792233 0.282460 0.140154 0.019418
C50   C     C_R   0.792218 0.717529 0.640184 0.019421
C51   C     C_R   0.292237 0.782458 0.140148 0.019414
C52   C     C_R   0.292223 0.217533 0.640171 0.019420
C53   C     C_R   0.137985 0.686882 0.839043 -0.138444
C54   C     C_R   0.137974 0.313111 0.339066 -0.138404
C55   C     C_R   0.637987 0.186880 0.839032 -0.138461
C56   C     C_R   0.637961 0.813100 0.339109 -0.138328
C57   C     C_R   0.097894 0.654333 0.788024 -0.014080
C58   C     C_R   0.097884 0.345660 0.288046 -0.014012
C59   C     C_R   0.597897 0.154330 0.788012 -0.014087
C60   C     C_R   0.597871 0.845650 0.288089 -0.013923
C61   C     C_R   0.114752 0.609609 0.038090 0.052481
C62   C     C_R   0.114747 0.390389 0.538100 0.052483
C63   C     C_R   0.614754 0.109607 0.038083 0.052468
C64   C     C_R   0.614742 0.890385 0.538122 0.052491
C65   C     C_R   0.154613 0.642443 0.090231 -0.084499
C66   C     C_R   0.154605 0.357552 0.590247 -0.084511
C67   C     C_R   0.654614 0.142443 0.090224 -0.084494
C68   C     C_R   0.654599 0.857547 0.590273 -0.084530
C69   C     C_R   0.167160 0.681247 0.990797 0.017730
C70   C     C_R   0.167150 0.318746 0.490819 0.017704
C71   C     C_R   0.667162 0.181245 0.990788 0.017740
C72   C     C_R   0.667140 0.818738 0.490855 0.017663
C73   C     C_R   0.085669 0.616889 0.889668 -0.286282
C74   C     C_R   0.085662 0.383107 0.389683 -0.286299
C75   C     C_R   0.585672 0.116886 0.889658 -0.286277
C76   C     C_R   0.585652 0.883099 0.389716 -0.286330
C77   C     C_3   0.959752 0.239445 0.087873 -0.180004
C78   C     C_3   0.959664 0.760447 0.588129 -0.179990
C79   C     C_3   0.459924 0.739263 0.087399 -0.180057
C80   C     C_3   0.459648 0.260428 0.588238 -0.179987
C81   C     C_3   0.148044 0.469634 0.223009 0.288105
C82   C     C_3   0.148050 0.530363 0.723011 0.288106
C83   C     C_3   0.648036 0.969630 0.223003 0.288099
C84   C     C_3   0.648054 0.030361 0.723013 0.288121
C85   C     C_3   0.197239 0.439315 0.245328 -0.325534
C86   C     C_3   0.197246 0.560681 0.745309 -0.325532
C87   C     C_3   0.697228 0.939308 0.245331 -0.325509
C88   C     C_3   0.697251 0.060678 0.745308 -0.325553
C89   C     C_3   0.852160 0.531142 0.967626 0.314011
C90   C     C_3   0.852163 0.468856 0.467625 0.314002
C91   C     C_3   0.352158 0.031141 0.967624 0.314007
C92   C     C_3   0.352167 0.968854 0.467628 0.314001
C93   C     C_3   0.803355 0.562061 0.949307 -0.395241
C94   C     C_3   0.803360 0.437934 0.449309 -0.395222
C95   C     C_3   0.303354 0.062062 0.949323 -0.395226
C96   C     C_3   0.303367 0.937928 0.449332 -0.395210
C97   C     C_3   0.018472 0.291974 0.609808 0.393875
C98   C     C_3   0.018465 0.708035 0.109761 0.393894
C99   C     C_3   0.518469 0.791974 0.609882 0.393873
C100  C     C_3   0.518468 0.208033 0.109758 0.393896
C101  C     C_R   0.914097 0.383508 0.299436 -0.277007
C102  C     C_R   0.914094 0.616490 0.799437 -0.276912
C103  C     C_R   0.414104 0.883504 0.299422 -0.277134
C104  C     C_R   0.414092 0.116489 0.799442 -0.276896
H1    H     H_    0.042442 0.315286 0.696997 0.094121
H2    H     H_    0.042439 0.684724 0.196938 0.094104
H3    H     H_    0.542434 0.815297 0.697044 0.094114
H4    H     H_    0.542441 0.184723 0.196938 0.094111
H5    H     H_    0.225850 0.456305 0.336916 0.170330
H6    H     H_    0.225863 0.543689 0.836877 0.170344
H7    H     H_    0.725837 0.956292 0.336935 0.170318
H8    H     H_    0.725868 0.043684 0.836870 0.170335
H9    H     H_    0.188653 0.402332 0.285789 0.083298
H10   H     H_    0.188664 0.597663 0.785788 0.083301
H11   H     H_    0.688637 0.902324 0.285775 0.083298
H12   H     H_    0.688670 0.097659 0.785793 0.083306
H13   H     H_    0.214297 0.436594 0.129716 0.139737
H14   H     H_    0.214297 0.563406 0.629684 0.139726
H15   H     H_    0.714291 0.936588 0.129727 0.139748
H16   H     H_    0.714300 0.063403 0.629680 0.139720
H17   H     H_    0.867071 0.527918 0.849473 0.008850
H18   H     H_    0.867074 0.472081 0.349472 0.008858
H19   H     H_    0.367064 0.027917 0.849464 0.008851
H20   H     H_    0.367074 0.972079 0.349469 0.008861
H21   H     H_    0.881401 0.548961 0.055310 0.062137
H22   H     H_    0.881405 0.451038 0.555309 0.062154
H23   H     H_    0.381402 0.048960 0.055299 0.062129
H24   H     H_    0.381413 0.951039 0.555307 0.062179
H25   H     H_    0.773864 0.545457 0.859560 0.122803
H26   H     H_    0.773867 0.454537 0.359562 0.122802
H27   H     H_    0.273858 0.045456 0.859592 0.122804
H28   H     H_    0.273869 0.954529 0.359599 0.122796
H29   H     H_    0.812071 0.598975 0.908405 0.064601
H30   H     H_    0.812079 0.401021 0.408405 0.064605
H31   H     H_    0.312069 0.098975 0.908406 0.064597
H32   H     H_    0.312088 0.901016 0.408421 0.064610
H33   H     H_    0.787321 0.564914 0.066561 0.125539
H34   H     H_    0.787327 0.435080 0.566565 0.125543
H35   H     H_    0.287327 0.064918 0.066588 0.125540
H36   H     H_    0.287341 0.935071 0.566597 0.125547
H37   H     H_    0.018809 0.307248 0.487253 -0.103240
H38   H     H_    0.018799 0.692766 0.987200 -0.103339
H39   H     H_    0.518809 0.807231 0.487307 -0.103150
H40   H     H_    0.518802 0.192761 0.987201 -0.103350
H41   H     H_    0.081551 0.244144 0.568675 0.062908
H42   H     H_    0.081552 0.755866 0.068744 0.062920
H43   H     H_    0.581537 0.744130 0.568773 0.062873
H44   H     H_    0.581554 0.255862 0.068702 0.062921
H45   H     H_    0.047362 0.227327 0.736296 0.130168
H46   H     H_    0.047315 0.772698 0.236232 0.130167
H47   H     H_    0.547379 0.727359 0.736496 0.130222
H48   H     H_    0.547332 0.272693 0.236223 0.130156
H49   H     H_    0.932327 0.233817 0.179095 0.052426
H50   H     H_    0.932287 0.766061 0.679501 0.052374
H51   H     H_    0.432395 0.733624 0.178308 0.052546
H52   H     H_    0.432292 0.266044 0.679672 0.052361
H53   H     H_    0.176436 0.637084 0.206677 0.127239
H54   H     H_    0.176428 0.362912 0.706692 0.127268
H55   H     H_    0.676435 0.137085 0.206673 0.127239
H56   H     H_    0.676425 0.862910 0.706712 0.127294
H57   H     H_    0.838302 0.218743 0.201945 0.100634
H58   H     H_    0.838288 0.781248 0.701946 0.100632
H59   H     H_    0.338308 0.718740 0.201912 0.100629
H60   H     H_    0.338292 0.281251 0.701962 0.100637
H61   H     H_    0.821995 0.364073 0.984804 0.080515
H62   H     H_    0.821986 0.635921 0.484816 0.080510
H63   H     H_    0.321995 0.864074 0.984805 0.080514
H64   H     H_    0.321990 0.135923 0.484810 0.080510
H65   H     H_    0.165792 0.779749 0.978095 0.070910
H66   H     H_    0.165781 0.220244 0.478091 0.070902
H67   H     H_    0.665791 0.279748 0.978067 0.070902
H68   H     H_    0.665771 0.720236 0.478152 0.070911
H69   H     H_    0.735412 0.337183 0.061291 0.069365
H70   H     H_    0.735397 0.662803 0.561351 0.069364
H71   H     H_    0.235415 0.837183 0.061310 0.069364
H72   H     H_    0.235403 0.162809 0.561307 0.069364
H73   H     H_    0.147515 0.715430 0.758580 0.076391
H74   H     H_    0.147503 0.284563 0.258604 0.076402
H75   H     H_    0.647517 0.215428 0.758569 0.076382
H76   H     H_    0.647491 0.784553 0.258646 0.076429
H77   H     H_    0.855246 0.282486 0.424745 0.084705
H78   H     H_    0.855234 0.717504 0.924765 0.084702
H79   H     H_    0.355255 0.782480 0.424728 0.084713
H80   H     H_    0.355235 0.217506 0.924762 0.084701
H81   H     H_    0.055495 0.591330 0.848441 0.066636
H82   H     H_    0.055491 0.408668 0.348449 0.066634
H83   H     H_    0.555498 0.091327 0.848431 0.066640
H84   H     H_    0.555483 0.908662 0.348475 0.066627
H85   H     H_    0.018001 0.216979 0.532932 0.107182
H86   H     H_    0.018008 0.783023 0.032804 0.107129
H87   H     H_    0.517986 0.716963 0.533220 0.107232
H88   H     H_    0.518010 0.283022 0.032808 0.107142
H89   H     H_    0.943904 0.409336 0.341485 0.062793
H90   H     H_    0.943904 0.590665 0.841479 0.062769
H91   H     H_    0.443910 0.909333 0.341473 0.062824
H92   H     H_    0.443902 0.090663 0.841486 0.062766
H93   H     H_    0.976998 0.310292 0.181847 -0.019771
H94   H     H_    0.977148 0.689703 0.682576 -0.020162
H95   H     H_    0.476803 0.810245 0.180797 -0.019196
H96   H     H_    0.477170 0.189695 0.682708 -0.020229
H97   H     H_    0.023411 0.264727 0.257377 -0.025318
H98   H     H_    0.023508 0.735395 0.757393 -0.025103
H99   H     H_    0.523302 0.764870 0.257276 -0.025522
H100  H     H_    0.523524 0.235402 0.757429 -0.025099
H101  H     H_    0.936830 0.253290 0.977185 0.135941
H102  H     H_    0.936714 0.746494 0.477649 0.135892
H103  H     H_    0.437079 0.752945 0.976348 0.136137
H104  H     H_    0.436680 0.246462 0.477811 0.135841
H105  H     H_    0.132153 0.472753 0.339748 0.010559
H106  H     H_    0.132165 0.527243 0.839760 0.010566
H107  H     H_    0.632141 0.972749 0.339735 0.010537
H108  H     H_    0.632171 0.027240 0.839765 0.010565
H109  H     H_    0.119629 0.451381 0.133806 0.058047
H110  H     H_    0.119632 0.548617 0.633821 0.057999
H111  H     H_    0.619623 0.951381 0.133788 0.058123
H112  H     H_    0.619635 0.048616 0.633827 0.057981
O1    O     O_2   0.898940 0.431940 0.867860 -0.458858
O2    O     O_2   0.898940 0.568060 0.367860 -0.458858
O3    O     O_2   0.398940 0.931940 0.867860 -0.458847
O4    O     O_2   0.398940 0.068060 0.367860 -0.458857
O5    O     O_3   0.160776 0.484464 0.668847 -0.609926
O6    O     O_3   0.160774 0.515533 0.168855 -0.609931
O7    O     O_3   0.660778 0.984462 0.668844 -0.609923
O8    O     O_3   0.660772 0.015530 0.168863 -0.609933
O9    O     O_3   0.031396 0.289381 0.029188 -0.588761
O10   O     O_3   0.031365 0.710613 0.529274 -0.588723
O11   O     O_3   0.531458 0.789374 0.029027 -0.588848
O12   O     O_3   0.531354 0.210612 0.529302 -0.588708
O13   O     O_3   0.058810 0.523750 0.066650 -0.499053
O14   O     O_3   0.058810 0.476250 0.566650 -0.499053
O15   O     O_3   0.558810 0.023750 0.066650 -0.499053
O16   O     O_3   0.558810 0.976250 0.566650 -0.499054
O17   O     O_3   0.941140 0.476130 0.123050 -0.496530
O18   O     O_3   0.941140 0.523870 0.623050 -0.496532
O19   O     O_3   0.441140 0.976130 0.123050 -0.496524
O20   O     O_3   0.441140 0.023870 0.623050 -0.496532
O21   O     O_3   0.982430 0.389880 0.635700 -0.491115
O22   O     O_3   0.982430 0.610120 0.135700 -0.491106
O23   O     O_3   0.482430 0.889880 0.635700 -0.491130
O24   O     O_3   0.482430 0.110120 0.135700 -0.491105
O25   O     O_2   0.898094 0.349400 0.733401 -0.473214
O26   O     O_2   0.898096 0.650601 0.233408 -0.473222
O27   O     O_2   0.398084 0.849410 0.733369 -0.473194
O28   O     O_2   0.398098 0.150603 0.233413 -0.473219
O29   O     O_3   0.839235 0.485316 0.021735 -0.637759
O30   O     O_3   0.839237 0.514682 0.521733 -0.637762
O31   O     O_3   0.339235 0.985315 0.021739 -0.637756
O32   O     O_3   0.339238 0.014680 0.521731 -0.637762
O33   O     O_3   0.967788 0.288491 0.652848 -0.589000
O34   O     O_3   0.967783 0.711512 0.152820 -0.588972
O35   O     O_3   0.467782 0.788496 0.652899 -0.589057
O36   O     O_3   0.467786 0.211512 0.152816 -0.588956
O37   O     O_2   0.100770 0.431440 0.821660 -0.460074
O38   O     O_2   0.100770 0.568560 0.321660 -0.460090
O39   O     O_2   0.600770 0.931440 0.821660 -0.460034
O40   O     O_2   0.600770 0.068560 0.321660 -0.460090
O41   O     O_3   0.017130 0.389790 0.053700 -0.468466
O42   O     O_3   0.017130 0.610210 0.553700 -0.468393
O43   O     O_3   0.517130 0.889790 0.053700 -0.468562
O44   O     O_3   0.517130 0.110210 0.553700 -0.468380
O45   O     O_2   0.101783 0.350232 0.955662 -0.488074
O46   O     O_2   0.101762 0.649790 0.455587 -0.488105
O47   O     O_2   0.601825 0.850275 0.955801 -0.487996
O48   O     O_2   0.601754 0.149797 0.455559 -0.488122
P1    P     P_3+3 0.893960 0.447890 0.040050 0.986321
P2    P     P_3+3 0.893960 0.552110 0.540050 0.986327
P3    P     P_3+3 0.393960 0.947890 0.040050 0.986316
P4    P     P_3+3 0.393960 0.052110 0.540050 0.986327
P5    P     P_3+3 0.105800 0.447360 0.649510 1.002881
P6    P     P_3+3 0.105800 0.552640 0.149510 1.002876
P7    P     P_3+3 0.605800 0.947360 0.649510 1.002885
P8    P     P_3+3 0.605800 0.052640 0.149510 1.002878
P9    P     P_3+3 0.063513 0.343669 0.082925 0.955137
P10   P     P_3+3 0.063511 0.656332 0.582917 0.955241
P11   P     P_3+3 0.563522 0.843674 0.082944 0.954985
P12   P     P_3+3 0.563509 0.156333 0.582911 0.955261
P13   P     P_3+3 0.936355 0.656430 0.105570 0.963252
P14   P     P_3+3 0.936356 0.343569 0.605573 0.963208
P15   P     P_3+3 0.436355 0.156431 0.105571 0.963270
P16   P     P_3+3 0.436354 0.843571 0.605571 0.963131
Br1   Br    Br    0.279512 0.631413 0.111097 -0.622228
Br2   Br    Br    0.279504 0.368577 0.611134 -0.622362
Br3   Br    Br    0.779513 0.131415 0.111117 -0.622325
Br4   Br    Br    0.779495 0.868572 0.611121 -0.622372
C105  C     C_3   0.984346 0.190746 0.049429 -0.170749
C106  C     C_3   0.007263 0.163568 0.200950 -0.212088
C107  C     C_3   0.025529 0.113026 0.159383 -0.411109
H113  H     H_    0.992462 0.091163 0.103062 0.152805
H114  H     H_    0.055681 0.115505 0.075401 0.130179
H115  H     H_    0.042367 0.094423 0.270704 0.129039
H116  H     H_    0.040994 0.183730 0.261072 0.116548
H117  H     H_    0.977589 0.160066 0.286310 0.136733
H118  H     H_    0.953602 0.167970 0.983831 0.128421
H119  H     H_    0.014869 0.196527 0.968541 0.138378
C108  C     C_3   0.984098 0.809177 0.549213 -0.170776
C109  C     C_3   0.006970 0.836510 0.700468 -0.212179
C110  C     C_3   0.025101 0.887056 0.658419 -0.410934
H120  H     H_    0.055266 0.884570 0.574477 0.130142
H121  H     H_    0.991978 0.908805 0.601865 0.152898
H122  H     H_    0.041884 0.905785 0.769566 0.129067
H123  H     H_    0.977302 0.840017 0.785848 0.136831
H124  H     H_    0.040759 0.816458 0.760730 0.116514
H125  H     H_    0.014611 0.803415 0.468278 0.138465
H126  H     H_    0.953270 0.831836 0.483509 0.128493
C111  C     C_3   0.484768 0.690614 0.049763 -0.170902
C112  C     C_3   0.507564 0.663608 0.201769 -0.211996
C113  C     C_3   0.526130 0.613113 0.160922 -0.411340
H127  H     H_    0.493247 0.591107 0.104167 0.152638
H128  H     H_    0.556456 0.615660 0.077556 0.130198
H129  H     H_    0.542837 0.594623 0.272609 0.129064
H130  H     H_    0.541126 0.683926 0.262222 0.116528
H131  H     H_    0.477748 0.660046 0.286631 0.136772
H132  H     H_    0.454197 0.667701 0.983950 0.128302
H133  H     H_    0.515411 0.696433 0.969326 0.138251
C114  C     C_3   0.484055 0.309163 0.549224 -0.170726
C115  C     C_3   0.506992 0.336493 0.700411 -0.212186
C116  C     C_3   0.525061 0.387055 0.658300 -0.410898
H134  H     H_    0.555153 0.384600 0.574104 0.130152
H135  H     H_    0.491890 0.408796 0.602014 0.152938
H136  H     H_    0.541914 0.405774 0.769386 0.129050
H137  H     H_    0.477378 0.339973 0.785982 0.136776
H138  H     H_    0.540823 0.316455 0.760477 0.116533
H139  H     H_    0.514526 0.303406 0.468135 0.138473
H140  H     H_    0.453198 0.331819 0.483653 0.128518

loop_
_geom_bond_atom_site_label_1
_geom_bond_atom_site_label_2
_ccdc_geom_bond_type
C56   H76   S    
C77   H101  S    
Ba4   P4    S    
C83   C87   S    
C57   P10   S    
C107  H113  S    
C10   H62   S    
C21   C101  A    
C112  H131  S    
C110  H120  S    
O46   P10   D    
C67   H55   S    
C94   H30   S    
C95   H35   S    
C91   C95   S    
C59   P12   S    
C84   O7    S    
C60   P11   S    
C109  H124  S    
C1    H41   S    
Ba1   O1    S    
C48   C80   S    
O7    P7    S    
C22   P13   S    
Ba3   O15   S    
C39   H67   S    
C8    C12   A    
Ba1   O13   S    
C66   C70   A    
C115  H138  S    
C101  H89   S    
Ba4   O40   S    
C75   H83   S    
O15   P8    S    
C76   H84   S    
C66   H54   S    
C40   C42   A    
C46   H94   S    
C1    C97   S    
C61   C73   A    
C63   C75   A    
C80   C114  S    
C96   H36   S    
C8    C104  A    
C56   C72   A    
C13   C17   A    
C36   C72   S    
C28   C30   A    
C97   O33   S    
O3    P3    D    
O27   P16   D    
Ba2   P6    S    
Ba2   O13   S    
C64   C68   A    
C4    C100  S    
C27   H59   S    
C28   H60   S    
C6    C10   A    
C31   Br3   S    
C32   Br4   S    
C47   C79   S    
C2    H86   S    
C109  C110  S    
C110  H122  S    
O5    P5    S    
O32   P4    S    
C53   C57   A    
C26   C32   A    
C25   C31   A    
C55   C59   A    
C20   H80   S    
C56   C60   A    
C105  H118  S    
O12   P12   S    
C108  H125  S    
Ba2   O42   S    
O8    P8    S    
Ba3   O39   S    
O13   P6    S    
O9    P9    S    
Ba4   O19   S    
C86   H6    S    
C83   O8    S    
C62   P5    S    
C109  H123  S    
O38   P6    D    
C93   H25   S    
C16   C52   S    
C99   H39   S    
C62   C66   A    
C26   C50   A    
C97   H37   S    
C90   H22   S    
C17   C21   A    
O10   P10   S    
C106  H117  S    
C4    H44   S    
C24   C104  A    
C78   H50   S    
C47   H99   S    
Ba1   P1    S    
C5    C101  A    
Ba3   P3    S    
O26   P13   D    
O18   P2    S    
C82   H110  S    
C53   C69   A    
C63   P8    S    
C5    C9    A    
C57   C73   A    
C35   C71   S    
C20   C24   A    
Ba3   O20   S    
C9    H61   S    
C41   C49   A    
C87   H15   S    
C94   H34   S    
Ba4   O16   S    
C95   H31   S    
C7    C11   A    
C90   O30   S    
C93   H29   S    
C45   H93   S    
C47   O11   S    
C38   H66   S    
C23   P16   S    
C100  H4    S    
C18   H78   S    
C55   H75   S    
O11   P11   S    
C82   H106  S    
O23   P16   S    
Ba2   O22   S    
C111  H133  S    
Ba4   O44   S    
C116  H136  S    
C105  C106  S    
C37   C43   A    
C38   C44   A    
O39   P7    D    
C39   C41   A    
C27   C51   A    
C46   H98   S    
C85   H9    S    
C116  H134  S    
C113  H128  S    
C6    P2    S    
C87   H11   S    
C6    C102  A    
Ba3   Ba4   S    
C89   C93   S    
C44   H72   S    
C54   C70   A    
C34   C70   S    
C5    P1    S    
Ba3   O3    S    
O36   P15   S    
C14   C18   A    
C7    P3    S    
C58   C74   A    
C40   H68   S    
C114  H139  S    
Ba2   O17   S    
Ba3   P7    S    
Ba3   O43   S    
C9    C13   A    
C73   H81   S    
C88   H12   S    
C103  H91   S    
C64   P7    S    
C30   Br2   S    
C46   O10   S    
C45   C77   S    
C33   C37   A    
O40   P8    D    
C36   C40   A    
O41   P9    S    
C82   O5    S    
C77   C105  S    
Ba4   O24   S    
C96   H28   S    
C78   H102  S    
C54   C58   A    
C99   O35   S    
C100  H40   S    
O21   P14   S    
C22   C102  A    
C80   H52   S    
C11   C15   A    
O14   P5    S    
C86   H10   S    
C88   H16   S    
C90   C94   S    
C97   H1    S    
Ba2   O2    S    
C92   H20   S    
C99   H3    S    
C106  C107  S    
C25   H57   S    
C10   C14   A    
C37   H65   S    
Ba2   O14   S    
C65   C69   A    
C58   P9    S    
C102  H90   S    
C30   C34   A    
C91   H23   S    
C60   C76   A    
C89   H21   S    
C47   H95   S    
Ba1   O37   S    
C112  H130  S    
C110  H121  S    
Ba2   P2    S    
C77   H49   S    
O29   P1    S    
C91   O31   S    
C81   C85   S    
C78   C108  S    
C29   C33   A    
C84   H112  S    
C48   H96   S    
C31   C35   A    
C108  C109  S    
Ba3   O16   S    
C85   H5    S    
C23   C103  A    
Ba1   O14   S    
C42   C50   A    
C68   H56   S    
C95   H27   S    
C115  H137  S    
C93   H33   S    
C2    H46   S    
C3    H43   S    
C45   H97   S    
C82   C86   S    
C98   H2    S    
C92   O32   S    
C3    H87   S    
C13   C49   S    
O33   P14   S    
C46   C78   S    
C1    H85   S    
O43   P11   S    
C15   C51   S    
C112  C113  S    
O24   P15   S    
C107  H114  S    
C8    P4    S    
C80   H104  S    
C17   H77   S    
O48   P12   D    
C54   H74   S    
O16   P7    S    
O45   P9    D    
C85   H13   S    
C61   C65   A    
O47   P11   D    
C87   H7    S    
C4    H88   S    
C63   C67   A    
C45   O9    S    
C89   H17   S    
C114  C115  S    
C2    H42   S    
C91   H19   S    
C3    H47   S    
C79   C111  S    
C18   C22   A    
C83   H107  S    
O17   P1    S    
O6    P6    S    
C98   O34   S    
C21   P14   S    
C28   C52   A    
O28   P15   D    
C64   C76   A    
C24   P15   S    
C19   H79   S    
C113  H127  S    
C42   H70   S    
C15   C19   A    
C74   H82   S    
C68   C72   A    
C53   H73   S    
C59   C75   A    
C111  C112  S    
C105  H119  S    
C65   H53   S    
C34   C38   A    
C108  H126  S    
O4    P4    D    
O42   P10   S    
C92   C96   S    
Ba1   Ba2   S    
C81   H109  S    
C43   H71   S    
C96   H32   S    
C111  H132  S    
C84   C88   S    
C116  H135  S    
O35   P16   S    
C27   C29   A    
C83   H111  S    
O22   P13   S    
Ba1   P5    S    
C12   C16   A    
C92   H24   S    
C2    C98   S    
C86   H14   S    
C89   O29   S    
C90   H18   S    
C11   H63   S    
C106  H116  S    
Ba4   P8    S    
C16   C20   A    
C32   C36   A    
C107  H115  S    
C26   H58   S    
O31   P3    S    
C48   O12   S    
C35   C39   A    
Ba4   O4    S    
C104  H92   S    
C81   H105  S    
C88   H8    S    
C12   H64   S    
Ba3   O23   S    
Ba1   O21   S    
Ba1   O41   S    
C62   C74   A    
Ba2   O38   S    
C19   C23   A    
C7    C103  A    
Ba4   O15   S    
O30   P2    S    
C55   C71   A    
O1    P1    D    
C43   C51   A    
C44   C52   A    
C33   C69   S    
C84   H108  S    
C61   P6    S    
C48   H100  S    
C29   Br1   S    
C41   H69   S    
Ba1   O18   S    
C94   H26   S    
O37   P5    D    
C100  O36   S    
O19   P3    S    
C115  C116  S    
O20   P4    S    
C98   H38   S    
C67   C71   A    
C25   C49   A    
C1    H45   S    
O44   P12   S    
C4    H48   S    
C14   C50   S    
O2    P2    D    
O34   P13   S    
C79   H51   S    
C114  H140  S    
C113  H129  S    
O25   P14   D    
C3    C99   S    
C81   O6    S    
C79   H103  S    
