data_mof_unit_66016.cif
_audit_creation_date              2013-03-05T15:55:01-0500
_audit_creation_method            fapswitch 2.2
_symmetry_space_group_name_H-M    P1
_symmetry_Int_Tables_number       1
_space_group_crystal_system       triclinic
_cell_length_a                    25.575656
_cell_length_b                    34.460713
_cell_length_c                    21.432537
_cell_angle_alpha                 90.000124
_cell_angle_beta                  126.632634
_cell_angle_gamma                 89.999878
_cell_volume                      15158.5487271

loop_
_atom_site_label
_atom_site_type_symbol
_atom_site_description
_atom_site_fract_x
_atom_site_fract_y
_atom_site_fract_z
_atom_type_partial_charge
Zn1   Zn    Zn3+2 0.076680 0.717210 0.065490 1.100225
Zn2   Zn    Zn3+2 0.923320 0.282790 0.934510 1.096718
Zn3   Zn    Zn3+2 0.923320 0.717210 0.934510 1.100248
Zn4   Zn    Zn3+2 0.076680 0.282790 0.065490 1.096719
Zn5   Zn    Zn3+2 0.576680 0.217210 0.065490 1.104444
Zn6   Zn    Zn3+2 0.423320 0.782790 0.934510 1.104388
Zn7   Zn    Zn3+2 0.423320 0.217210 0.934510 1.104444
Zn8   Zn    Zn3+2 0.576680 0.782790 0.065490 1.104427
Zn9   Zn    Zn3+2 0.988820 0.782710 0.065530 1.080430
Zn10  Zn    Zn3+2 0.011180 0.217290 0.934470 1.080197
Zn11  Zn    Zn3+2 0.011180 0.782710 0.934470 1.080462
Zn12  Zn    Zn3+2 0.988820 0.217290 0.065530 1.080197
Zn13  Zn    Zn3+2 0.488820 0.282710 0.065530 1.077112
Zn14  Zn    Zn3+2 0.511180 0.717290 0.934470 1.077262
Zn15  Zn    Zn3+2 0.511180 0.282710 0.934470 1.077112
Zn16  Zn    Zn3+2 0.488820 0.717290 0.065530 1.077310
O1    O     O_3   0.000000 0.749960 0.000000 -0.551861
O2    O     O_3   0.000000 0.250040 0.000000 -0.551221
O3    O     O_3   0.500000 0.249960 0.000000 -0.551760
O4    O     O_3   0.500000 0.750040 0.000000 -0.551847
O5    O     O_R   0.859810 0.727030 0.954180 -0.617295
O6    O     O_R   0.140190 0.272970 0.045820 -0.617894
O7    O     O_R   0.140190 0.727030 0.045820 -0.617373
O8    O     O_R   0.859810 0.272970 0.954180 -0.617895
O9    O     O_R   0.359810 0.227030 0.954180 -0.630344
O10   O     O_R   0.640190 0.772970 0.045820 -0.630336
O11   O     O_R   0.640190 0.227030 0.045820 -0.630344
O12   O     O_R   0.359810 0.772970 0.954180 -0.630413
O13   O     O_R   0.056680 0.772880 0.174890 -0.612904
O14   O     O_R   0.943320 0.227120 0.825110 -0.613473
O15   O     O_R   0.943320 0.772880 0.825110 -0.612837
O16   O     O_R   0.056680 0.227120 0.174890 -0.613472
O17   O     O_R   0.556680 0.272880 0.174890 -0.620617
O18   O     O_R   0.443320 0.727120 0.825110 -0.620609
O19   O     O_R   0.443320 0.272880 0.825110 -0.620615
O20   O     O_R   0.556680 0.727120 0.174890 -0.620537
O21   O     O_R   0.992160 0.837390 0.045890 -0.628916
O22   O     O_R   0.007840 0.162610 0.954110 -0.628832
O23   O     O_R   0.007840 0.837390 0.954110 -0.628922
O24   O     O_R   0.992160 0.162610 0.045890 -0.628832
O25   O     O_R   0.492160 0.337390 0.045890 -0.628698
O26   O     O_R   0.507840 0.662610 0.954110 -0.628635
O27   O     O_R   0.507840 0.337390 0.954110 -0.628698
O28   O     O_R   0.492160 0.662610 0.045890 -0.628648
O29   O     O_R   0.946340 0.662530 0.954150 -0.604771
O30   O     O_R   0.053660 0.337470 0.045850 -0.604241
O31   O     O_R   0.053660 0.662530 0.045850 -0.604760
O32   O     O_R   0.946340 0.337470 0.954150 -0.604243
O33   O     O_R   0.446340 0.162530 0.954150 -0.605159
O34   O     O_R   0.553660 0.837470 0.045850 -0.605129
O35   O     O_R   0.553660 0.162530 0.045850 -0.605160
O36   O     O_R   0.446340 0.837470 0.954150 -0.605146
O37   O     O_R   0.118180 0.727030 0.174870 -0.609980
O38   O     O_R   0.881820 0.272970 0.825130 -0.610036
O39   O     O_R   0.881820 0.727030 0.825130 -0.609922
O40   O     O_R   0.118180 0.272970 0.174870 -0.610035
O41   O     O_R   0.618180 0.227030 0.174870 -0.592044
O42   O     O_R   0.381820 0.772970 0.825130 -0.592048
O43   O     O_R   0.381820 0.227030 0.825130 -0.592044
O44   O     O_R   0.618180 0.772970 0.174870 -0.591983
O45   O     O_R   0.905650 0.772880 0.045890 -0.608931
O46   O     O_R   0.094350 0.227120 0.954110 -0.609141
O47   O     O_R   0.094350 0.772880 0.954110 -0.608848
O48   O     O_R   0.905650 0.227120 0.045890 -0.609140
O49   O     O_R   0.405650 0.272880 0.045890 -0.607688
O50   O     O_R   0.594350 0.727120 0.954110 -0.607500
O51   O     O_R   0.594350 0.272880 0.954110 -0.607687
O52   O     O_R   0.405650 0.727120 0.045890 -0.607409
C1    C     C_R   0.858438 0.750024 0.999793 0.925593
C2    C     C_R   0.141559 0.249979 0.000200 0.926202
C3    C     C_R   0.141561 0.750024 0.000206 0.925587
C4    C     C_R   0.858441 0.249979 0.999800 0.926200
C5    C     C_R   0.358402 0.250063 0.999735 0.915383
C6    C     C_R   0.641602 0.749932 0.000272 0.915367
C7    C     C_R   0.641598 0.250063 0.000265 0.915382
C8    C     C_R   0.358398 0.749932 0.999728 0.915378
C9    C     C_R   0.105665 0.749953 0.211342 0.930688
C10   C     C_R   0.894337 0.250049 0.788658 0.931531
C11   C     C_R   0.894335 0.749953 0.788657 0.930558
C12   C     C_R   0.105663 0.250049 0.211341 0.931529
C13   C     C_R   0.605653 0.249937 0.211337 0.940569
C14   C     C_R   0.394349 0.750064 0.788664 0.940561
C15   C     C_R   0.394347 0.249937 0.788663 0.940566
C16   C     C_R   0.605651 0.750064 0.211337 0.940456
C17   C     C_R   0.000000 0.855813 0.000000 0.854976
C18   C     C_R   1.000000 0.144187 1.000000 0.855254
C19   C     C_R   0.500000 0.355804 0.000000 0.852706
C20   C     C_R   0.500000 0.644196 1.000000 0.852566
C21   C     C_R   1.000000 0.644281 0.000000 0.935657
C22   C     C_R   1.000000 0.355626 1.000000 0.928877
C23   C     C_R   0.500000 0.144303 1.000000 0.942022
C24   C     C_R   0.500000 0.855697 1.000000 0.942032
C25   C     C_R   0.972335 0.417740 0.030640 0.249593
C26   C     C_R   0.040675 0.581936 0.987413 0.248068
C27   C     C_R   0.027666 0.417740 0.969362 0.249597
C28   C     C_R   0.959328 0.581936 0.012592 0.248069
C29   C     C_R   0.524206 0.918049 0.069266 0.255239
C30   C     C_R   0.475795 0.081951 0.930734 0.255213
C31   C     C_R   0.475795 0.918048 0.930734 0.255214
C32   C     C_R   0.524206 0.081952 0.069266 0.255213
C33   C     C_R   0.000000 0.397825 0.000000 -0.254657
C34   C     C_R   0.000000 0.601884 0.000001 -0.258369
C35   C     C_R   0.500000 0.898029 1.000000 -0.260424
C36   C     C_R   0.500000 0.101970 1.000000 -0.260442
C37   C     C_R   0.033234 0.458628 0.975723 -0.105993
C38   C     C_R   0.962586 0.540952 0.018607 -0.112217
C39   C     C_R   0.966769 0.458628 0.024283 -0.105995
C40   C     C_R   0.037419 0.540951 0.981400 -0.112221
C41   C     C_R   0.480941 0.958934 0.931870 -0.104627
C42   C     C_R   0.519061 0.041066 0.068130 -0.104635
C43   C     C_R   0.519061 0.958934 0.068130 -0.104634
C44   C     C_R   0.480940 0.041066 0.931869 -0.104633
C45   C     C_R   0.000002 0.479242 0.000003 -0.019564
C46   C     C_R   0.000002 0.520391 0.000003 -0.014150
C47   C     C_R   0.500000 0.979470 1.000000 -0.017084
C48   C     C_R   0.500000 0.020530 1.000000 -0.017084
C49   C     C_R   0.070289 0.479350 0.957487 0.215303
C50   C     C_R   0.928931 0.519952 0.041614 0.209070
C51   C     C_R   0.929717 0.479351 0.042523 0.215299
C52   C     C_R   0.071076 0.519951 0.958397 0.209066
C53   C     C_R   0.469360 0.979673 0.867641 0.220132
C54   C     C_R   0.530642 0.020327 0.132360 0.220128
C55   C     C_R   0.530642 0.979673 0.132360 0.220136
C56   C     C_R   0.469359 0.020327 0.867640 0.220127
C57   C     C_3   0.257458 0.722313 0.049663 -0.201838
C58   C     C_3   0.742587 0.277727 0.950438 -0.204022
C59   C     C_3   0.742540 0.722315 0.950332 -0.201805
C60   C     C_3   0.257413 0.277727 0.049562 -0.204022
C61   C     C_3   0.757500 0.222390 0.049679 -0.215142
C62   C     C_3   0.242454 0.777562 0.950232 -0.214740
C63   C     C_3   0.242500 0.222390 0.950321 -0.215142
C64   C     C_3   0.757548 0.777560 0.049773 -0.214706
C65   C     C_3   0.754959 0.215877 0.976997 0.340549
C66   C     C_3   0.244993 0.784140 0.022897 0.340616
C67   C     C_3   0.245041 0.215877 0.023003 0.340548
C68   C     C_3   0.755009 0.784141 0.977109 0.340636
C69   C     C_3   0.254930 0.715728 0.977008 0.340390
C70   C     C_3   0.745119 0.284246 0.023113 0.340817
C71   C     C_3   0.745068 0.715727 0.022986 0.340411
C72   C     C_3   0.254881 0.284246 0.976887 0.340817
H1    H     H_    0.262827 0.699287 0.089349 0.222118
H2    H     H_    0.737248 0.300785 0.910825 0.219131
H3    H     H_    0.737169 0.699291 0.910642 0.222136
H4    H     H_    0.262752 0.300785 0.089175 0.219132
H5    H     H_    0.762868 0.199336 0.089315 0.215836
H6    H     H_    0.237046 0.800581 0.910515 0.215854
H7    H     H_    0.237132 0.199336 0.910685 0.215836
H8    H     H_    0.762957 0.800577 0.089494 0.215878
C73   C     C_3   0.801169 0.249958 0.999410 -0.130178
C74   C     C_3   0.198834 0.750044 0.000601 -0.130828
C75   C     C_3   0.198831 0.249958 0.000590 -0.130178
C76   C     C_3   0.801165 0.750044 0.999399 -0.130827
C77   C     C_3   0.301089 0.749836 0.999289 -0.129120
C78   C     C_3   0.698909 0.250154 0.000709 -0.128932
C79   C     C_3   0.698912 0.749836 0.000711 -0.129113
C80   C     C_3   0.301091 0.250154 0.999291 -0.128932
C81   C     C_3   0.804379 0.257361 0.072596 -0.236367
C82   C     C_3   0.195630 0.742575 0.927438 -0.236916
C83   C     C_3   0.195621 0.257361 0.927404 -0.236367
C84   C     C_3   0.804370 0.742572 0.072560 -0.236946
C85   C     C_3   0.304288 0.757293 0.072458 -0.246702
C86   C     C_3   0.695705 0.242761 0.927521 -0.246123
C87   C     C_3   0.695713 0.757296 0.927543 -0.246740
C88   C     C_3   0.304295 0.242761 0.072479 -0.246123
H9    H     H_    0.849118 0.263967 0.131569 0.221415
H10   H     H_    0.150898 0.735922 0.868489 0.221570
H11   H     H_    0.150882 0.263967 0.868431 0.221414
H12   H     H_    0.849101 0.735916 0.131508 0.221530
H13   H     H_    0.349013 0.763942 0.131415 0.220866
H14   H     H_    0.650972 0.236161 0.868540 0.220599
H15   H     H_    0.650988 0.763947 0.868587 0.220811
H16   H     H_    0.349028 0.236161 0.131460 0.220599
C89   C     C_R   0.714077 0.740311 0.336039 0.170174
C90   C     C_R   0.285957 0.259788 0.663960 0.170127
C91   C     C_R   0.285983 0.740157 0.663964 0.169984
C92   C     C_R   0.714043 0.259790 0.336040 0.170124
C93   C     C_R   0.214051 0.240152 0.336053 0.170885
C94   C     C_R   0.785901 0.759746 0.663942 0.171373
C95   C     C_R   0.785949 0.240151 0.663947 0.170884
C96   C     C_R   0.214040 0.759898 0.336054 0.171215
C97   C     C_R   0.647970 0.750105 0.295936 -0.160494
C98   C     C_R   0.352026 0.249898 0.704062 -0.160470
C99   C     C_R   0.352031 0.750105 0.704066 -0.160409
C100  C     C_R   0.647974 0.249898 0.295938 -0.160470
C101  C     C_R   0.147982 0.250048 0.295950 -0.162109
C102  C     C_R   0.852016 0.749962 0.704046 -0.162152
C103  C     C_R   0.852018 0.250048 0.704050 -0.162109
C104  C     C_R   0.147984 0.749962 0.295952 -0.162015
C105  C     C_R   0.622010 0.759980 0.336046 0.187845
C106  C     C_R   0.377949 0.239933 0.663952 0.187703
C107  C     C_R   0.377933 0.760134 0.663957 0.187722
C108  C     C_R   0.622051 0.239931 0.336048 0.187702
C109  C     C_R   0.122025 0.259917 0.336068 0.177355
C110  C     C_R   0.878022 0.740224 0.663923 0.175739
C111  C     C_R   0.877975 0.259919 0.663932 0.177352
C112  C     C_R   0.122034 0.740072 0.336073 0.175558
C113  C     C_R   0.662699 0.759814 0.417803 0.048890
C114  C     C_R   0.337258 0.240094 0.582194 0.049000
C115  C     C_R   0.337240 0.759980 0.582199 0.048895
C116  C     C_R   0.662743 0.240092 0.417806 0.049001
C117  C     C_R   0.162714 0.259740 0.417826 0.051289
C118  C     C_R   0.837328 0.740395 0.582167 0.051849
C119  C     C_R   0.837285 0.259742 0.582174 0.051290
C120  C     C_R   0.162730 0.740230 0.417831 0.051901
C121  C     C_R   0.729424 0.750110 0.458812 0.018510
C122  C     C_R   0.270573 0.249903 0.541184 0.018618
C123  C     C_R   0.270575 0.750110 0.541188 0.018479
C124  C     C_R   0.729427 0.249903 0.458816 0.018617
C125  C     C_R   0.229406 0.249949 0.458833 0.018579
C126  C     C_R   0.770592 0.750067 0.541162 0.018573
C127  C     C_R   0.770594 0.249949 0.541167 0.018579
C128  C     C_R   0.229408 0.750067 0.458837 0.018552
C129  C     C_R   0.755145 0.740452 0.417794 0.053892
C130  C     C_R   0.244891 0.259663 0.582203 0.053711
C131  C     C_R   0.244915 0.740286 0.582208 0.053944
C132  C     C_R   0.755108 0.259665 0.417797 0.053712
C133  C     C_R   0.255096 0.240212 0.417813 0.051430
C134  C     C_R   0.744859 0.759691 0.582183 0.051132
C135  C     C_R   0.744905 0.240210 0.582187 0.051431
C136  C     C_R   0.255080 0.759856 0.417816 0.051169
C137  C     C_R   0.638276 0.769207 0.459667 -0.119529
C138  C     C_R   0.361640 0.230595 0.540329 -0.119670
C139  C     C_R   0.361601 0.769545 0.540333 -0.119481
C140  C     C_R   0.638361 0.230592 0.459671 -0.119670
C141  C     C_R   0.138324 0.269215 0.459693 -0.123299
C142  C     C_R   0.861759 0.731028 0.540300 -0.124502
C143  C     C_R   0.861674 0.269219 0.540307 -0.123300
C144  C     C_R   0.138362 0.730690 0.459699 -0.124526
C145  C     C_R   0.678586 0.769135 0.540326 -0.123785
C146  C     C_R   0.321328 0.230662 0.459670 -0.123944
C147  C     C_R   0.321290 0.769473 0.459673 -0.123776
C148  C     C_R   0.678673 0.230658 0.540330 -0.123943
C149  C     C_R   0.178647 0.269179 0.540350 -0.124545
C150  C     C_R   0.821432 0.731051 0.459645 -0.124870
C151  C     C_R   0.821351 0.269183 0.459650 -0.124545
C152  C     C_R   0.178691 0.730712 0.540356 -0.124910
H17   H     H_    0.587700 0.776638 0.430936 0.207880
H18   H     H_    0.412185 0.223079 0.569061 0.207870
H19   H     H_    0.412127 0.777119 0.569067 0.207932
H20   H     H_    0.587816 0.223074 0.430938 0.207871
H21   H     H_    0.087773 0.276713 0.430966 0.208418
H22   H     H_    0.912343 0.723623 0.569022 0.208297
H23   H     H_    0.912225 0.276718 0.569034 0.208418
H24   H     H_    0.087827 0.723144 0.430975 0.208327
H25   H     H_    0.656729 0.776524 0.569059 0.208151
H26   H     H_    0.343151 0.223185 0.430934 0.208139
H27   H     H_    0.343096 0.777003 0.430937 0.208198
H28   H     H_    0.656851 0.223180 0.569066 0.208140
H29   H     H_    0.156825 0.276655 0.569086 0.208000
H30   H     H_    0.843287 0.723660 0.430910 0.207859
H31   H     H_    0.843173 0.276660 0.430914 0.208000
H32   H     H_    0.156888 0.723179 0.569093 0.207888
C153  C     C_R   0.982202 0.081435 0.041098 -0.122109
C154  C     C_R   0.017799 0.918564 0.958902 -0.122085
C155  C     C_R   0.017799 0.081435 0.958902 -0.122110
C156  C     C_R   0.982201 0.918565 0.041098 -0.122081
C157  C     C_R   0.474535 0.581479 0.032734 -0.123607
C158  C     C_R   0.525459 0.418522 0.967258 -0.123604
C159  C     C_R   0.525464 0.581478 0.967265 -0.123613
C160  C     C_R   0.474541 0.418522 0.032741 -0.123604
C161  C     C_R   1.000000 0.101672 1.000000 -0.081936
C162  C     C_R   0.000000 0.898328 0.000000 -0.081848
C163  C     C_R   0.500000 0.601696 1.000000 -0.082888
C164  C     C_R   0.500000 0.398304 0.000000 -0.082854
C165  C     C_R   0.018258 0.040815 0.958275 0.003079
C166  C     C_R   0.981743 0.959185 0.041725 0.003032
C167  C     C_R   0.981743 0.040815 0.041725 0.003078
C168  C     C_R   0.018258 0.959184 0.958276 0.003032
C169  C     C_R   0.526266 0.540836 0.967046 0.000684
C170  C     C_R   0.473738 0.459164 0.032959 0.000955
C171  C     C_R   0.473733 0.540837 0.032953 0.000681
C172  C     C_R   0.526262 0.459164 0.967041 0.000955
C173  C     C_R   0.000000 0.020380 0.000000 -0.005217
C174  C     C_R   0.000000 0.979620 0.000000 -0.005227
C175  C     C_R   0.500000 0.520391 1.000000 -0.005946
C176  C     C_R   0.500000 0.479610 1.000000 -0.005995
C177  C     C_R   0.036599 0.020376 0.916963 0.231061
C178  C     C_R   0.963401 0.979624 0.083038 0.231093
C179  C     C_R   0.963402 0.020376 0.083038 0.231063
C180  C     C_R   0.036599 0.979624 0.916963 0.231092
C181  C     C_R   0.552817 0.520382 0.934788 0.229807
C182  C     C_R   0.447188 0.479618 0.065218 0.229594
C183  C     C_R   0.447182 0.520383 0.065211 0.229808
C184  C     C_R   0.552811 0.479618 0.934781 0.229595
H33   H     H_    0.968410 0.097865 0.072105 0.212671
H34   H     H_    0.031590 0.902135 0.927895 0.212720
H35   H     H_    0.031590 0.097865 0.927894 0.212670
H36   H     H_    0.968410 0.902135 0.072105 0.212716
H37   H     H_    0.454838 0.597971 0.057200 0.212689
H38   H     H_    0.545151 0.402030 0.942789 0.212602
H39   H     H_    0.545161 0.597970 0.942799 0.212685
H40   H     H_    0.454849 0.402030 0.057211 0.212602
N1    N     N_R   0.955899 0.396443 0.074417 0.220142
O53   O     O_R   0.909473 0.370729 0.040703 -0.309549
O54   O     O_R   0.990927 0.400761 0.149468 -0.299223
N2    N     N_R   0.085916 0.603804 0.982501 0.237717
O55   O     O_R   0.064706 0.628262 0.925813 -0.329403
O56   O     O_R   0.147480 0.603629 0.040794 -0.287116
N3    N     N_R   0.044097 0.396444 0.925579 0.220146
O57   O     O_R   0.090517 0.370726 0.959285 -0.309557
O58   O     O_R   0.009074 0.400770 0.850531 -0.299219
N4    N     N_R   0.914086 0.603804 0.017503 0.237715
O59   O     O_R   0.935294 0.628264 0.074187 -0.329295
O60   O     O_R   0.852521 0.603626 0.959212 -0.287110
N5    N     N_R   0.555705 0.896640 0.140704 0.236798
O61   O     O_R   0.524009 0.870202 0.149124 -0.327170
O62   O     O_R   0.617865 0.901060 0.194485 -0.289013
N6    N     N_R   0.444296 0.103360 0.859295 0.236802
O63   O     O_R   0.382136 0.098941 0.805515 -0.289048
O64   O     O_R   0.475992 0.129798 0.850876 -0.327070
N7    N     N_R   0.444297 0.896640 0.859295 0.236804
O65   O     O_R   0.475992 0.870201 0.850877 -0.327032
O66   O     O_R   0.382137 0.901061 0.805512 -0.289022
N8    N     N_R   0.555704 0.103360 0.140704 0.236801
O67   O     O_R   0.617865 0.098942 0.194485 -0.289048
O68   O     O_R   0.524008 0.129798 0.149124 -0.327068
Br1   Br    Br    0.062072 0.047614 0.859908 -0.310964
Br2   Br    Br    0.937928 0.952386 0.140092 -0.310780
Br3   Br    Br    0.937928 0.047614 0.140092 -0.310963
Br4   Br    Br    0.062073 0.952386 0.859909 -0.310771
Br5   Br    Br    0.589868 0.547628 0.890536 -0.286777
Br6   Br    Br    0.410161 0.452373 0.109497 -0.289454
Br7   Br    Br    0.410131 0.547629 0.109462 -0.286764
Br8   Br    Br    0.589839 0.452372 0.890502 -0.289455
N9    N     N_R   0.111462 0.459572 0.942997 0.263094
O69   O     O_R   0.101293 0.463138 0.876100 -0.224379
O70   O     O_R   0.164352 0.442648 0.000130 -0.253495
N10   N     N_R   0.895786 0.539318 0.068031 0.260542
O71   O     O_R   0.832811 0.536404 0.028512 -0.219866
O72   O     O_R   0.929398 0.554048 0.137654 -0.256787
N11   N     N_R   0.888548 0.459573 0.057020 0.263092
O73   O     O_R   0.898726 0.463137 0.123922 -0.224390
O74   O     O_R   0.835651 0.442655 0.999887 -0.253482
N12   N     N_R   0.104226 0.539317 0.931986 0.260545
O75   O     O_R   0.167202 0.536403 0.971513 -0.219869
O76   O     O_R   0.070619 0.554045 0.862361 -0.256804
N13   N     N_R   0.467104 0.960000 0.807055 0.253628
O77   O     O_R   0.414096 0.960228 0.736035 -0.227786
O78   O     O_R   0.519629 0.944102 0.822069 -0.265181
N14   N     N_R   0.532902 0.040000 0.192948 0.253629
O79   O     O_R   0.480377 0.055896 0.177938 -0.265179
O80   O     O_R   0.585913 0.039773 0.263966 -0.227788
N15   N     N_R   0.532901 0.960001 0.192947 0.253626
O81   O     O_R   0.585911 0.960228 0.263966 -0.227787
O82   O     O_R   0.480376 0.944104 0.177936 -0.265196
N16   N     N_R   0.467099 0.039999 0.807052 0.253629
O83   O     O_R   0.519625 0.055896 0.822062 -0.265181
O84   O     O_R   0.414089 0.039773 0.736035 -0.227790
N17   N     N_R   0.759138 0.177730 0.950861 0.233315
O85   O     O_R   0.716712 0.151160 0.934958 -0.294152
O86   O     O_R   0.803757 0.170257 0.941273 -0.359630
N18   N     N_R   0.240761 0.822310 0.048908 0.233397
O87   O     O_R   0.283142 0.848891 0.064707 -0.294181
O88   O     O_R   0.196147 0.829794 0.058499 -0.359597
N19   N     N_R   0.240862 0.177730 0.049139 0.233315
O89   O     O_R   0.283288 0.151160 0.065041 -0.294151
O90   O     O_R   0.196243 0.170257 0.058726 -0.359630
N20   N     N_R   0.759244 0.822313 0.951104 0.233388
O91   O     O_R   0.716865 0.848893 0.935310 -0.294176
O92   O     O_R   0.803858 0.829797 0.941515 -0.359681
N21   N     N_R   0.259158 0.677530 0.951085 0.234015
O93   O     O_R   0.216896 0.650923 0.935578 -0.251941
O94   O     O_R   0.303820 0.669997 0.941600 -0.360743
N22   N     N_R   0.740939 0.322414 0.049178 0.233514
O95   O     O_R   0.783288 0.349003 0.064889 -0.252674
O96   O     O_R   0.696253 0.329932 0.058630 -0.360846
N23   N     N_R   0.740838 0.677528 0.048903 0.234005
O97   O     O_R   0.783098 0.650920 0.064405 -0.251931
O98   O     O_R   0.696174 0.669994 0.058386 -0.360833
N24   N     N_R   0.259061 0.322415 0.950822 0.233514
O99   O     O_R   0.216712 0.349003 0.935111 -0.252673
O100  O     O_R   0.303747 0.329932 0.941371 -0.360846
Br9   Br    Br    0.746567 0.725196 0.277691 -0.427031
Br10  Br    Br    0.253522 0.274999 0.722320 -0.426246
Br11  Br    Br    0.253585 0.724872 0.722330 -0.427028
Br12  Br    Br    0.746477 0.275003 0.277680 -0.426247
Br13  Br    Br    0.246511 0.225017 0.277684 -0.426556
Br14  Br    Br    0.753369 0.774743 0.722301 -0.425706
Br15  Br    Br    0.753490 0.225013 0.722316 -0.426556
Br16  Br    Br    0.246482 0.775062 0.277678 -0.425656
Br17  Br    Br    0.531261 0.775292 0.277692 -0.412083
Br18  Br    Br    0.468649 0.224514 0.722314 -0.412220
Br19  Br    Br    0.468605 0.775620 0.722328 -0.411733
Br20  Br    Br    0.531352 0.224511 0.277686 -0.412216
Br21  Br    Br    0.031265 0.275214 0.277726 -0.429599
Br22  Br    Br    0.968867 0.725117 0.722248 -0.435555
Br23  Br    Br    0.968733 0.275218 0.722275 -0.429599
Br24  Br    Br    0.031261 0.724798 0.277731 -0.435424

loop_
_geom_bond_atom_site_label_1
_geom_bond_atom_site_label_2
_geom_bond_distance
_ccdc_geom_bond_type
C31   C35   1.402243 A    
C156  C162  1.395671 A    
C62   H6    1.110179 S    
Zn8   O10   1.935926 S    
Zn6   O42   1.940985 S    
C135  C148  1.403230 A    
C160  C164  1.395380 A    
C150  H30   1.080472 S    
C119  C143  1.403166 A    
N13   O77   1.300891 A    
C166  C178  1.412730 A    
C181  C184  1.404770 A    
C117  C141  1.403163 A    
C96   Br16  1.940549 S    
C154  C168  1.399982 A    
C182  C183  1.404774 A    
C59   C71   1.536353 S    
C69   C82   1.536878 S    
C44   C56   1.416671 A    
C159  C163  1.395379 A    
O42   C14   1.278857 A    
C72   C83   1.536884 S    
C61   C78   1.544543 S    
C58   C73   1.544502 S    
C111  C119  1.406180 A    
C105  C113  1.406164 A    
C8    C77   1.460145 S    
C32   C36   1.402243 A    
C64   C79   1.544541 S    
C109  C117  1.406180 A    
O46   C2    1.277034 A    
O24   C18   1.282947 A    
C40   C52   1.419233 A    
C39   C45   1.423262 A    
C68   N20   1.457642 S    
C112  C120  1.406182 A    
C95   Br15  1.940508 S    
Zn16  O28   1.943710 S    
C61   H5    1.110178 S    
C146  H26   1.080469 S    
Zn4   O2    1.950633 S    
C122  C130  1.416531 A    
C116  C124  1.416577 A    
Zn4   O40   1.940985 S    
C169  C181  1.412864 A    
C62   C66   1.536359 S    
C67   N19   1.457640 S    
O33   C23   1.278380 A    
O11   C7    1.275364 A    
Zn7   O43   1.940986 S    
C68   C76   1.526239 S    
C154  H34   1.079960 S    
O25   C19   1.282796 A    
C158  C164  1.395381 A    
N14   O79   1.300969 A    
C25   C33   1.399040 A    
C128  C136  1.416608 A    
C168  C174  1.418451 A    
N8    O67   1.300934 A    
C153  C167  1.399982 A    
C77   C85   1.542341 S    
C64   H8    1.110179 S    
Zn12  O24   1.943710 S    
C89   C129  1.406116 A    
C134  C145  1.403231 A    
Zn13  O17   1.940648 S    
C178  Br2   1.936876 S    
Zn10  O14   1.940650 S    
N19   O89   1.300214 A    
C144  H24   1.080539 S    
Zn16  O4    1.951224 S    
C52   N12   1.434327 S    
N18   O87   1.300214 A    
C120  C128  1.416642 A    
C69   C77   1.526588 S    
C59   H3    1.110218 S    
C60   H4    1.110198 S    
C29   C35   1.402245 A    
C72   C80   1.526546 S    
C61   C65   1.536364 S    
N2    O55   1.301645 A    
O47   C3    1.277039 A    
Zn7   O3    1.950636 S    
C130  C149  1.403192 A    
O23   C17   1.282947 A    
C42   C48   1.421700 A    
C91   C99   1.406099 A    
C153  C161  1.395672 A    
C92   C100  1.406071 A    
C122  C125  1.416363 A    
C167  C173  1.418452 A    
O29   C21   1.278748 A    
C95   C135  1.406212 A    
C157  C163  1.395379 A    
C147  H27   1.080535 S    
O43   C15   1.278868 A    
Zn10  O22   1.943712 S    
C125  C133  1.416532 A    
C139  H19   1.080551 S    
C41   C53   1.416669 A    
Zn10  O2    1.951218 S    
C83   H11   1.110291 S    
Zn3   O1    1.950636 S    
Zn8   O34   1.943884 S    
C84   H12   1.110290 S    
C94   C102  1.406150 A    
C26   C34   1.400881 A    
C89   Br9   1.940564 S    
C132  C151  1.403192 A    
Zn5   O35   1.943885 S    
C98   C106  1.405953 A    
Zn6   O36   1.943885 S    
C141  H21   1.080478 S    
C42   C54   1.416669 A    
C110  C118  1.406151 A    
C172  C184  1.412867 A    
C160  H40   1.080242 S    
N17   O85   1.300212 A    
C90   C98   1.406071 A    
N24   O99   1.300294 A    
C157  H37   1.080241 S    
O22   C18   1.282946 A    
Zn9   O45   1.935997 S    
C37   C45   1.423260 A    
C63   C80   1.544544 S    
C113  C137  1.403151 A    
Zn12  O48   1.935996 S    
C56   N16   1.435122 S    
C142  H22   1.080471 S    
C3    C74   1.459762 S    
C40   C46   1.425500 A    
C47   C48   1.414950 A    
O50   C6    1.276886 A    
C60   C88   1.558202 S    
N22   O95   1.300296 A    
C58   H2    1.110199 S    
N9    O70   1.301019 A    
Zn1   O37   1.940984 S    
C60   C75   1.544504 S    
Zn5   O11   1.935927 S    
C171  C183  1.412865 A    
Zn6   O12   1.935925 S    
C155  C161  1.395671 A    
C57   H1    1.110221 S    
N5    O62   1.300934 A    
C63   H7    1.110179 S    
C145  H25   1.080467 S    
C108  C116  1.406184 A    
O32   C22   1.277179 A    
C119  C127  1.416577 A    
C28   N4    1.436370 S    
C152  H32   1.080537 S    
C117  C125  1.416575 A    
N6    O64   1.301681 A    
N4    O60   1.301001 A    
C30   C44   1.413927 A    
C69   N21   1.457663 S    
C181  Br5   1.936880 S    
C90   Br10  1.940527 S    
C81   H9    1.110291 S    
N12   O75   1.301390 A    
C79   C87   1.542340 S    
C111  Br23  1.940569 S    
O5    C1    1.275053 A    
C148  H28   1.080472 S    
C75   C83   1.542233 S    
N11   O74   1.301024 A    
C109  Br21  1.940566 S    
N1    O53   1.301269 A    
C133  C146  1.403227 A    
Zn4   O6    1.935926 S    
N16   O84   1.300888 A    
C71   C79   1.526588 S    
C64   C68   1.536361 S    
Zn15  O51   1.935997 S    
C25   N1    1.437489 S    
C170  C182  1.412866 A    
C63   C83   1.558292 S    
C140  H20   1.080485 S    
C165  C173  1.418450 A    
N19   O90   1.300232 A    
N7    O66   1.300935 A    
C88   H16   1.110293 S    
O51   C7    1.276912 A    
C71   N23   1.457662 S    
C44   C48   1.421698 A    
C87   H15   1.110292 S    
O8    C4    1.275077 A    
Zn9   O1    1.951220 S    
C136  C147  1.403310 A    
C1    C76   1.459763 S    
C70   N22   1.457678 S    
C102  C110  1.406089 A    
C2    C75   1.459801 S    
N10   O71   1.301390 A    
C94   Br14  1.940540 S    
Zn14  O18   1.940650 S    
C32   N8    1.437214 S    
O52   C8    1.276885 A    
C127  C135  1.416530 A    
C29   N5    1.437216 S    
C142  C150  1.387190 A    
C66   C85   1.536769 S    
C93   Br13  1.940506 S    
N15   O82   1.300967 A    
C60   C72   1.536366 S    
Zn15  O27   1.943710 S    
Zn16  O20   1.940648 S    
C70   C78   1.526549 S    
C121  C126  1.416346 A    
O9    C5    1.275361 A    
C160  C170  1.400751 A    
C96   C136  1.406235 A    
C121  C129  1.416527 A    
O13   C9    1.279098 A    
C138  C146  1.387272 A    
C180  Br4   1.936877 S    
C177  C180  1.404333 A    
C9    C104  1.455215 S    
C178  C179  1.404336 A    
C10   C103  1.455186 S    
O18   C14   1.279239 A    
C13   C100  1.455056 S    
O6    C2    1.275075 A    
C38   C50   1.419231 A    
C27   C33   1.399038 A    
C32   C42   1.413927 A    
C11   C102  1.455227 S    
C113  C121  1.416565 A    
C175  C176  1.405325 A    
C17   C162  1.465114 S    
N7    O65   1.301679 A    
C65   C86   1.536771 S    
Zn13  O25   1.943712 S    
C149  H29   1.080470 S    
C118  C142  1.403169 A    
Zn15  O3    1.951223 S    
N21   O94   1.300230 A    
N14   O80   1.300888 A    
Zn5   O3    1.950632 S    
C29   C43   1.413923 A    
C95   C103  1.406114 A    
C28   C34   1.400880 A    
N8    O68   1.301682 A    
C31   C41   1.413928 A    
C155  H35   1.079960 S    
C93   C101  1.406111 A    
C156  H36   1.079964 S    
C26   N2    1.436366 S    
C104  C112  1.406108 A    
C28   C38   1.416144 A    
C96   C104  1.406170 A    
O35   C23   1.278378 A    
C97   C105  1.405980 A    
N18   O88   1.300231 A    
C100  C108  1.405956 A    
C157  C171  1.400751 A    
C158  C172  1.400751 A    
C159  C169  1.400751 A    
C158  H38   1.080240 S    
N2    O56   1.301000 A    
C89   C97   1.406081 A    
C37   C49   1.415248 A    
Zn10  O46   1.935998 S    
C39   C51   1.415250 A    
N13   O78   1.300968 A    
C139  C147  1.387290 A    
Zn13  O3    1.951220 S    
C30   N6    1.437215 S    
O7    C3    1.275053 A    
C115  C123  1.416646 A    
Zn2   O38   1.940985 S    
C49   C52   1.399256 A    
O19   C15   1.279252 A    
Zn1   O31   1.943885 S    
Zn4   O30   1.943884 S    
C155  C165  1.399985 A    
Zn2   O32   1.943885 S    
C43   C55   1.416670 A    
Zn3   O29   1.943884 S    
C90   C130  1.406154 A    
C91   C131  1.406148 A    
O37   C9    1.279105 A    
N11   O73   1.301330 A    
Zn14  O4    1.951218 S    
O39   C11   1.279115 A    
C86   H14   1.110293 S    
C172  C176  1.418722 A    
C123  C131  1.416607 A    
N23   O98   1.300229 A    
Zn8   O4    1.950633 S    
C71   C84   1.536880 S    
O36   C24   1.278381 A    
C115  C139  1.403233 A    
C129  C150  1.403173 A    
O12   C8    1.275408 A    
C93   C133  1.406211 A    
C106  C114  1.406186 A    
C45   C46   1.418031 A    
Zn11  O1    1.951223 S    
C59   C87   1.558208 S    
C74   C82   1.542206 S    
C114  C138  1.403150 A    
Zn1   O1    1.950632 S    
C94   C134  1.406203 A    
C57   C85   1.558206 S    
C110  Br22  1.940597 S    
O40   C12   1.279070 A    
C78   C86   1.542323 S    
N24   O100  1.300230 A    
O30   C22   1.277178 A    
Zn6   O4    1.950635 S    
C168  C180  1.412733 A    
Zn11  O47   1.935997 S    
Zn7   O9    1.935923 S    
Zn5   O41   1.940984 S    
C62   C82   1.558299 S    
C141  C149  1.387229 A    
Zn8   O44   1.940985 S    
C165  C177  1.412730 A    
C182  Br6   1.936868 S    
C166  C174  1.418452 A    
C124  C127  1.416363 A    
C67   C75   1.526243 S    
C5    C80   1.460112 S    
C167  C179  1.412731 A    
N22   O96   1.300230 A    
C6    C79   1.460146 S    
C153  H33   1.079960 S    
N9    O69   1.301331 A    
C57   C74   1.544490 S    
N5    O61   1.301680 A    
C137  C145  1.387257 A    
C73   C81   1.542233 S    
O38   C10   1.279069 A    
C68   C87   1.536770 S    
C65   N17   1.457640 S    
N15   O81   1.300889 A    
C76   C84   1.542205 S    
C21   C34   1.461031 S    
Zn2   O2    1.950635 S    
C67   C88   1.536773 S    
C31   N7    1.437214 S    
N23   O97   1.300309 A    
C7    C78   1.460110 S    
C151  H31   1.080473 S    
C23   C36   1.458805 S    
N3    O57   1.301264 A    
C61   C81   1.558291 S    
O49   C5    1.276912 A    
Zn13  O49   1.935997 S    
C171  C175  1.418720 A    
C26   C40   1.416143 A    
C64   C84   1.558300 S    
C57   C69   1.536353 S    
C38   C46   1.425494 A    
O21   C17   1.282946 A    
C16   C97   1.455037 S    
C184  Br8   1.936869 S    
C107  C115  1.406195 A    
C53   N13   1.435125 S    
C140  C148  1.387270 A    
C143  H23   1.080479 S    
N12   O76   1.300970 A    
O16   C12   1.279123 A    
C66   C74   1.526238 S    
C51   N11   1.435308 S    
C50   C51   1.399259 A    
C53   C56   1.400966 A    
C105  Br17  1.940464 S    
C27   C37   1.414586 A    
C24   C35   1.458805 S    
C137  H17   1.080483 S    
C12   C101  1.455188 S    
C92   C132  1.406156 A    
Zn16  O52   1.935996 S    
C120  C144  1.403249 A    
C18   C161  1.465118 S    
C177  Br1   1.936877 S    
Zn9   O13   1.940648 S    
Zn14  O26   1.943712 S    
C50   N10   1.434328 S    
C179  Br3   1.936875 S    
Zn11  O15   1.940649 S    
N20   O92   1.300232 A    
N17   O86   1.300233 A    
Zn12  O16   1.940648 S    
O31   C21   1.278745 A    
Zn3   O39   1.940986 S    
C118  C126  1.416561 A    
Zn15  O19   1.940649 S    
C107  Br19  1.940481 S    
C169  C175  1.418723 A    
C116  C140  1.403155 A    
C170  C176  1.418721 A    
C65   C73   1.526239 S    
Zn7   O33   1.943884 S    
N10   O72   1.300969 A    
C14   C99   1.455023 S    
C138  H18   1.080486 S    
C15   C98   1.455056 S    
C108  Br20  1.940441 S    
C22   C33   1.454197 S    
C59   C76   1.544488 S    
C63   C67   1.536363 S    
C159  H39   1.080242 S    
Zn9   O21   1.943712 S    
C173  C174  1.404639 A    
Zn14  O50   1.935998 S    
C49   N9    1.435311 S    
Zn11  O23   1.943710 S    
N3    O58   1.300915 A    
C154  C162  1.395674 A    
O34   C24   1.278378 A    
Zn1   O7    1.935927 S    
Zn2   O8    1.935925 S    
C123  C128  1.416367 A    
O41   C13   1.278867 A    
Zn3   O5    1.935923 S    
O26   C20   1.282794 A    
N6    O63   1.300934 A    
O45   C1    1.277037 A    
C106  Br18  1.940439 S    
C156  C166  1.399982 A    
N4    O59   1.301645 A    
C58   C70   1.536370 S    
C103  C111  1.406037 A    
C27   N3    1.437487 S    
C101  C109  1.406039 A    
C99   C107  1.406001 A    
O15   C11   1.279106 A    
C55   N15   1.435124 S    
C143  C151  1.387229 A    
N21   O93   1.300309 A    
C72   N24   1.457680 S    
C126  C134  1.416526 A    
O27   C19   1.282794 A    
C91   Br11  1.940576 S    
C92   Br12  1.940529 S    
C85   H13   1.110294 S    
N1    O54   1.300927 A    
O28   C20   1.282792 A    
C25   C39   1.414587 A    
O44   C16   1.278866 A    
C70   C81   1.536883 S    
N16   O83   1.300966 A    
O20   C16   1.279247 A    
C30   C36   1.402244 A    
O10   C6    1.275406 A    
C62   C77   1.544541 S    
C66   N18   1.457640 S    
O48   C4    1.277034 A    
N20   O91   1.300213 A    
C54   N14   1.435122 S    
C58   C86   1.558202 S    
C144  C152  1.387222 A    
C183  Br7   1.936878 S    
C41   C47   1.421699 A    
O14   C10   1.279122 A    
C82   H10   1.110290 S    
C80   C88   1.542322 S    
C124  C132  1.416531 A    
C4    C73   1.459802 S    
Zn12  O2    1.951224 S    
C112  Br24  1.940610 S    
C114  C122  1.416574 A    
C43   C47   1.421698 A    
C54   C55   1.400962 A    
C131  C152  1.403255 A    
O17   C13   1.279248 A    
C19   C164  1.464601 S    
C20   C163  1.464587 S    
