data_mof_unit_36313.cif
_audit_creation_date              2012-12-10T21:30:27-0500
_audit_creation_method            fapswitch 2.2
_symmetry_space_group_name_H-M    P1
_symmetry_Int_Tables_number       1
_space_group_crystal_system       triclinic
_cell_length_a                    13.107222
_cell_length_b                    16.097152
_cell_length_c                    16.628787
_cell_angle_alpha                 91.149427
_cell_angle_beta                  88.879513
_cell_angle_gamma                 109.049167
_cell_volume                      3315.37984213

loop_
_atom_site_label
_atom_site_type_symbol
_atom_type_description
_atom_site_fract_x
_atom_site_fract_y
_atom_site_fract_z
_atom_type_partial_charge
C1    C     C_R   0.505405 0.491738 0.346214 0.877561
C2    C     C_R   0.016253 0.457189 0.516674 0.070897
C3    C     C_R   0.124422 0.476138 0.538792 0.100096
C4    C     C_R   0.971798 0.526838 0.517633 0.025972
C5    C     C_R   0.027106 0.605613 0.560014 0.114265
C6    C     C_R   0.126392 0.616709 0.594862 -0.232053
C7    C     C_R   0.175076 0.553104 0.583757 -0.200204
C8    C     C_R   0.876906 0.522831 0.476187 0.074693
C9    C     C_R   0.880528 0.662329 0.538833 0.134416
C10   C     C_R   0.179521 0.417782 0.514946 -0.187158
C11   C     C_R   0.513780 0.489612 0.258091 -0.081362
C12   C     C_R   0.297564 0.450891 0.505896 0.872100
C13   C     C_R   0.542213 0.567148 0.210085 0.093325
C14   C     C_R   0.534608 0.556069 0.125459 -0.038671
C15   C     C_R   0.503990 0.470776 0.091331 0.245552
C16   C     C_R   0.486505 0.397336 0.138475 -0.216850
C17   C     C_R   0.490125 0.406410 0.221120 -0.262664
C18   C     C_R   0.409659 0.405305 0.855510 0.184985
C19   C     C_R   0.439397 0.418499 0.774868 -0.247764
C20   C     C_R   0.404346 0.477580 0.902357 0.244992
C21   C     C_R   0.463187 0.501835 0.739738 -0.138408
C22   C     C_R   0.447107 0.571578 0.785882 -0.043360
C23   C     C_R   0.493142 0.508228 0.653736 0.865131
C24   C     C_R   0.416671 0.557843 0.866584 -0.247889
C25   C     C_R   0.570037 0.784012 0.517096 -0.014649
C26   C     C_R   0.563800 0.869083 0.516040 -0.292459
C27   C     C_R   0.468919 0.882992 0.489900 0.269663
C28   C     C_R   0.382173 0.808947 0.464706 -0.105457
C29   C     C_R   0.395138 0.725411 0.463878 -0.051659
C30   C     C_R   0.437650 0.132602 0.475024 -0.275591
C31   C     C_R   0.434159 0.218754 0.473745 -0.024834
C32   C     C_R   0.523641 0.115352 0.513483 0.331388
C33   C     C_R   0.595959 0.270868 0.547546 -0.011943
C34   C     C_R   0.703110 0.549457 0.496878 0.885389
C35   C     C_R   0.602984 0.185976 0.549789 -0.320905
C36   C     C_R   0.983542 0.673364 0.566943 -0.213432
C37   C     C_R   0.822171 0.582191 0.499674 -0.123273
C38   C     C_R   0.120670 0.331729 0.490771 -0.195364
C39   C     C_R   0.007333 0.305161 0.486815 0.237209
C40   C     C_R   0.956269 0.368814 0.498638 -0.312254
H1    H     H_    0.464998 0.332414 0.111000 0.154175
H2    H     H_    0.470769 0.347211 0.256317 0.175954
H3    H     H_    0.410080 0.612072 0.903530 0.173266
H4    H     H_    0.368774 0.232142 0.443791 0.123497
H5    H     H_    0.374117 0.080627 0.445947 0.159018
H6    H     H_    0.167960 0.675892 0.628719 0.138094
H7    H     H_    0.329418 0.668799 0.444185 0.154873
H8    H     H_    0.657523 0.324818 0.575958 0.136466
H9    H     H_    0.632374 0.923070 0.536718 0.156024
H10   H     H_    0.670121 0.175258 0.579800 0.138703
H11   H     H_    0.640377 0.773832 0.540511 0.144804
H12   H     H_    0.028088 0.733979 0.597939 0.144222
H13   H     H_    0.163814 0.286824 0.474448 0.162185
H14   H     H_    0.869267 0.348349 0.494944 0.138440
H15   H     H_    0.252198 0.564004 0.611598 0.168950
H16   H     H_    0.443818 0.362393 0.739653 0.181015
N1    N     N_2   0.488995 0.458653 0.008318 -0.180057
N2    N     N_2   0.408956 0.477483 0.986544 -0.188789
N3    N     N_R   0.487340 0.714070 0.490410 -0.085684
N4    N     N_2   0.458799 0.969001 0.486154 -0.191283
N5    N     N_2   0.534208 0.029665 0.517085 -0.197721
N6    N     N_R   0.512670 0.285920 0.509580 -0.082401
O1    O     O_R   0.504530 0.423560 0.387290 -0.612871
O2    O     O_R   0.496400 0.561030 0.381140 -0.611586
O3    O     O_R   0.352460 0.397130 0.504630 -0.613648
O4    O     O_R   0.344330 0.534610 0.498470 -0.618341
O5    O     O_R   0.503600 0.438970 0.618860 -0.614390
O6    O     O_R   0.495470 0.576440 0.612710 -0.601904
O7    O     O_R   0.655670 0.465390 0.501530 -0.613111
O8    O     O_R   0.647540 0.602870 0.495370 -0.620644
Zn1   Zn    Zn3+2 0.505430 0.408200 0.504110 0.928894
Zn2   Zn    Zn3+2 0.494570 0.591800 0.495890 0.929171
C41   C     C_3   0.838442 0.737958 0.552472 -0.397020
C42   C     C_3   0.785003 0.732722 0.635258 -0.882546
H17   H     H_    0.763594 0.793060 0.646719 0.237034
H18   H     H_    0.711097 0.674377 0.638640 0.278304
H19   H     H_    0.841376 0.728498 0.682832 0.250377
H20   H     H_    0.906148 0.801110 0.549450 0.190612
H21   H     H_    0.784703 0.741570 0.503269 0.208875
C43   C     C_3   0.383396 0.314159 0.889905 -0.413483
C44   C     C_3   0.483419 0.285460 0.893647 -0.856900
H22   H     H_    0.516092 0.280442 0.832299 0.252136
H23   H     H_    0.547062 0.332893 0.930113 0.271495
H24   H     H_    0.461479 0.219921 0.921886 0.242764
H25   H     H_    0.347114 0.310854 0.951184 0.216908
H26   H     H_    0.322011 0.266615 0.851688 0.195052
C45   C     C_R   0.464193 0.660295 0.754632 0.179716
C46   C     C_R   0.375360 0.684995 0.732904 -0.155373
C47   C     C_R   0.390185 0.771162 0.709525 -0.132414
C48   C     C_R   0.493239 0.833696 0.710152 -0.093065
C49   C     C_R   0.581623 0.810028 0.733688 -0.179125
C50   C     C_R   0.567322 0.723498 0.755768 -0.143023
H27   H     H_    0.294649 0.638024 0.735804 0.115043
H28   H     H_    0.321674 0.789983 0.692367 0.114921
H29   H     H_    0.504485 0.900644 0.692983 0.131264
H30   H     H_    0.661013 0.859028 0.735581 0.122544
H31   H     H_    0.635868 0.706210 0.775646 0.127110
C51   C     C_R   0.557370 0.632078 0.070750 0.136535
C52   C     C_R   0.648977 0.654362 0.020087 -0.118867
C53   C     C_R   0.668763 0.724388 0.967054 -0.149632
C54   C     C_R   0.597443 0.772576 0.964368 -0.107706
C55   C     C_R   0.505803 0.750476 0.014332 -0.156537
C56   C     C_R   0.485191 0.680011 0.066946 -0.188029
H32   H     H_    0.704664 0.617374 0.021619 0.122043
H33   H     H_    0.739316 0.741250 0.927953 0.122260
H34   H     H_    0.612897 0.826751 0.923291 0.132345
H35   H     H_    0.450255 0.787447 0.011777 0.133644
H36   H     H_    0.413371 0.662792 0.104816 0.129695
C57   C     C_3   0.582506 0.660450 0.246483 -0.373910
C58   C     C_3   0.692988 0.681701 0.285277 -0.867005
H37   H     H_    0.725354 0.753096 0.299800 0.239532
H38   H     H_    0.687444 0.646142 0.342126 0.269087
H39   H     H_    0.750458 0.664771 0.243327 0.254989
H40   H     H_    0.592740 0.711707 0.200977 0.207090
H41   H     H_    0.522440 0.672248 0.289020 0.222826
C59   C     C_R   0.276197 0.816194 0.442031 0.131275
C60   C     C_R   0.222409 0.771672 0.373401 -0.158589
C61   C     C_R   0.120790 0.775609 0.353903 -0.118553
C62   C     C_R   0.072161 0.824397 0.402228 -0.101441
C63   C     C_R   0.124747 0.868865 0.470459 -0.168697
C64   C     C_R   0.225543 0.863999 0.490929 -0.138062
H42   H     H_    0.259141 0.734055 0.334813 0.113225
H43   H     H_    0.079789 0.740895 0.301210 0.121458
H44   H     H_    0.993487 0.827347 0.387072 0.118252
H45   H     H_    0.086786 0.906238 0.508183 0.121076
H46   H     H_    0.263078 0.896457 0.545604 0.128961
C65   C     C_3   0.842952 0.465919 0.400024 -0.399881
C66   C     C_3   0.820593 0.516538 0.329437 -0.878626
H47   H     H_    0.740700 0.525087 0.337433 0.250710
H48   H     H_    0.884382 0.581641 0.323812 0.258698
H49   H     H_    0.818565 0.478535 0.272655 0.252005
H50   H     H_    0.908841 0.441739 0.378275 0.218028
H51   H     H_    0.770700 0.407870 0.411920 0.225502
C67   C     C_3   0.937256 0.211891 0.466598 -0.399245
C68   C     C_3   0.996909 0.144872 0.456963 -0.907381
H52   H     H_    0.053991 0.161587 0.404924 0.256235
H53   H     H_    0.041056 0.142309 0.512714 0.258568
H54   H     H_    0.937610 0.078636 0.445589 0.252804
H55   H     H_    0.875507 0.188895 0.515205 0.202869
H56   H     H_    0.893979 0.212471 0.409894 0.206494

loop_
_geom_bond_atom_site_label_1
_geom_bond_atom_site_label_2
_ccdc_geom_bond_type
C19   H16   S    
C68   H54   S    
C45   C46   A    
C1    O2    A    
C54   C55   A    
C34   C37   S    
C41   C42   S    
C30   H5    S    
C1    C11   S    
C7    H15   S    
C4    C8    A    
C66   H47   S    
C44   H22   S    
C48   C49   A    
C68   H52   S    
C62   H44   S    
C65   H50   S    
C53   H33   S    
C42   H18   S    
C29   H7    S    
C5    C6    A    
C21   C22   A    
C28   C29   A    
C19   C21   A    
C32   N5    S    
C3    C7    A    
C27   N4    S    
C67   H56   S    
C38   C39   A    
C51   C56   A    
C5    C36   A    
C59   C60   A    
C18   C19   A    
C23   O5    A    
C47   H28   S    
O7    Zn1   S    
C58   H37   S    
C43   H26   S    
C28   C59   S    
C49   H30   S    
C61   C62   A    
O4    Zn2   S    
C20   C24   A    
C16   C17   A    
C42   H19   S    
C9    C36   A    
C13   C57   S    
C41   H20   S    
C56   H36   S    
C34   O8    A    
C18   C20   A    
C49   C50   A    
N3    Zn2   S    
C52   H32   S    
C13   C14   A    
C15   N1    S    
C31   N6    A    
C9    C41   S    
C67   H55   S    
C1    O1    A    
C44   H23   S    
C50   H31   S    
C14   C51   S    
C31   H4    S    
C32   C35   A    
C29   N3    A    
C48   H29   S    
C42   H17   S    
C26   H9    S    
C39   C40   A    
C63   H45   S    
C33   N6    A    
C25   C26   A    
O3    Zn1   S    
C12   O4    A    
C66   H48   S    
N4    N5    D    
C23   O6    A    
C2    C4    A    
C60   H42   S    
C25   H11   S    
C43   H25   S    
C8    C65   S    
C52   C53   A    
C34   O7    A    
O6    Zn2   S    
C35   H10   S    
C9    C37   A    
C41   H21   S    
C55   H35   S    
C22   C45   S    
C58   H39   S    
C67   C68   S    
C10   C12   S    
C57   H40   S    
O1    Zn1   S    
C40   H14   S    
C21   C23   S    
C26   C27   A    
C22   C24   A    
C8    C37   A    
C20   N2    S    
C65   C66   S    
C66   H49   S    
C17   H2    S    
C44   H24   S    
C63   C64   A    
C54   H34   S    
C68   H53   S    
C46   H27   S    
C11   C17   A    
C6    H6    S    
C65   H51   S    
C43   C44   S    
C36   H12   S    
C62   C63   A    
C6    C7    A    
C12   O3    A    
C10   C38   A    
C2    C3    A    
C64   H46   S    
C3    C10   A    
C60   C61   A    
C30   C32   A    
C11   C13   A    
N1    N2    D    
C30   C31   A    
C38   H13   S    
C53   C54   A    
C33   C35   A    
N6    Zn1   S    
O5    Zn1   S    
C61   H43   S    
O2    Zn2   S    
C55   C56   A    
C24   H3    S    
C58   H38   S    
C57   H41   S    
C2    C40   A    
C4    C5    A    
C46   C47   A    
C18   C43   S    
C51   C52   A    
C57   C58   S    
C27   C28   A    
C33   H8    S    
C14   C15   A    
O8    Zn2   S    
C59   C64   A    
C25   N3    A    
C47   C48   A    
C45   C50   A    
C16   H1    S    
C15   C16   A    
C39   C67   S    
