data_mof_unit_11296.cif
_audit_creation_date              2012-12-10T18:08:32-0500
_audit_creation_method            fapswitch 2.2
_symmetry_space_group_name_H-M    P1
_symmetry_Int_Tables_number       1
_space_group_crystal_system       triclinic
_cell_length_a                    18.390029
_cell_length_b                    18.392236
_cell_length_c                    51.30497
_cell_angle_alpha                 89.965357
_cell_angle_beta                  89.986401
_cell_angle_gamma                 90.225996
_cell_volume                      17352.9339112

loop_
_atom_site_label
_atom_site_type_symbol
_atom_type_description
_atom_site_fract_x
_atom_site_fract_y
_atom_site_fract_z
_atom_type_partial_charge
C1    C     C_R   0.999789 0.499945 0.820210 0.793749
C2    C     C_R   0.065199 0.488393 0.362805 -0.232643
C3    C     C_R   0.196610 0.696715 0.749953 -0.389327
C4    C     C_R   0.303461 0.196615 0.249979 -0.390970
C5    C     C_R   0.696147 0.803863 0.749991 -0.373107
C6    C     C_R   0.195952 0.696008 0.250033 -0.359598
C7    C     C_R   0.803404 0.303266 0.749960 -0.389540
C8    C     C_R   0.484233 0.066167 0.944888 0.543407
C9    C     C_R   0.522022 0.941081 0.055040 0.544199
C10   C     C_R   0.938994 0.466797 0.944986 0.554685
C11   C     C_R   0.057064 0.524417 0.054983 0.555117
C12   C     C_R   0.520878 0.941954 0.944762 0.543276
C13   C     C_R   0.491988 0.066043 0.637240 -0.232919
C14   C     C_R   0.488128 0.066105 0.055181 0.543028
C15   C     C_R   0.054881 0.525282 0.944927 0.531081
C16   C     C_R   0.940002 0.468404 0.055299 0.541421
C17   C     C_R   0.031282 0.551354 0.444802 0.537967
C18   C     C_R   0.963984 0.441783 0.555190 0.549004
C19   C     C_R   0.444580 0.966272 0.444929 0.548980
C20   C     C_R   0.556816 0.031031 0.555149 0.536330
C21   C     C_R   0.965286 0.439587 0.444858 0.545096
C22   C     C_R   0.027655 0.554981 0.554819 0.532784
C23   C     C_R   0.559981 0.025842 0.445073 0.532311
C24   C     C_R   0.495167 0.064919 0.363122 -0.219457
C25   C     C_R   0.442637 0.969268 0.555203 0.545081
C26   C     C_R   0.524305 0.940861 0.972249 -0.139546
C27   C     C_R   0.489524 0.068578 0.027669 -0.144648
C28   C     C_R   0.060339 0.518552 0.972300 -0.160392
C29   C     C_R   0.937731 0.468035 0.027779 -0.125959
C30   C     C_R   0.484617 0.067761 0.972411 -0.142310
C31   C     C_R   0.521987 0.939477 0.027510 -0.139483
C32   C     C_R   0.938180 0.464912 0.972528 -0.131384
C33   C     C_R   0.060705 0.519961 0.027511 -0.148283
C34   C     C_R   0.963185 0.439013 0.472382 -0.144286
C35   C     C_R   0.933709 0.506006 0.637282 -0.210426
C36   C     C_R   0.022514 0.559251 0.527383 -0.170043
C37   C     C_R   0.564120 0.021027 0.472523 -0.170691
C38   C     C_R   0.441736 0.967378 0.527708 -0.149500
C39   C     C_R   0.024661 0.557392 0.472153 -0.168051
C40   C     C_R   0.960993 0.440863 0.527675 -0.143414
C41   C     C_R   0.443621 0.963874 0.472444 -0.146708
C42   C     C_R   0.562384 0.024344 0.527773 -0.167132
C43   C     C_R   0.504902 0.004270 0.986145 -0.149694
C44   C     C_R   0.505575 0.004133 0.013778 -0.154598
C45   C     C_R   0.999521 0.491645 0.986229 -0.144696
C46   C     C_R   0.934633 0.506246 0.362855 -0.230096
C47   C     C_R   0.999670 0.492381 0.013833 -0.158427
C48   C     C_R   0.992481 0.499120 0.486080 -0.143847
C49   C     C_R   0.991554 0.499963 0.513711 -0.144368
C50   C     C_R   0.503714 0.992687 0.486304 -0.144062
C51   C     C_R   0.502931 0.994142 0.513933 -0.142897
C52   C     C_R   0.546189 0.878222 0.986109 0.375176
C53   C     C_R   0.475009 0.133336 0.013758 0.390834
C54   C     C_R   0.124255 0.538816 0.986074 0.385769
C55   C     C_R   0.875068 0.445050 0.014034 0.385626
C56   C     C_R   0.466149 0.131087 0.986497 0.347167
C57   C     C_R   0.506998 0.935117 0.637078 -0.228850
C58   C     C_R   0.537957 0.875321 0.013442 0.376192
C59   C     C_R   0.877592 0.437983 0.986609 0.334178
C60   C     C_R   0.123605 0.541773 0.013540 0.412006
C61   C     C_R   0.933165 0.379978 0.486476 0.364007
C62   C     C_R   0.047523 0.620774 0.513281 0.413095
C63   C     C_R   0.626587 0.043867 0.486535 0.415985
C64   C     C_R   0.381485 0.939705 0.513700 0.364327
C65   C     C_R   0.048883 0.619886 0.485893 0.394442
C66   C     C_R   0.928926 0.382452 0.513825 0.360394
C67   C     C_R   0.384140 0.934234 0.486405 0.359966
C68   C     C_R   0.506244 0.933574 0.362724 -0.209975
C69   C     C_R   0.625590 0.046285 0.513929 0.391490
C70   C     C_R   0.063959 0.491197 0.609651 -0.095761
C71   C     C_R   0.064967 0.486522 0.390013 -0.112417
C72   C     C_R   0.491706 0.066328 0.610029 -0.115942
C73   C     C_R   0.495564 0.064157 0.390367 -0.095921
C74   C     C_R   0.933071 0.505456 0.610082 -0.131030
C75   C     C_R   0.934557 0.504559 0.390041 -0.130205
C76   C     C_R   0.506791 0.935545 0.609884 -0.130041
C77   C     C_R   0.506836 0.932985 0.389927 -0.130668
C78   C     C_R   0.568176 0.998057 0.110186 -0.114266
C79   C     C_R   0.567134 0.997142 0.137384 -0.214170
C80   C     C_R   0.435197 0.006198 0.890233 -0.113187
C81   C     C_R   0.993462 0.564236 0.109699 -0.117586
C82   C     C_R   0.990522 0.564088 0.890293 -0.095372
C83   C     C_R   0.436740 0.006175 0.109560 -0.114785
C84   C     C_R   0.566771 0.000230 0.889957 -0.122814
C85   C     C_R   0.004142 0.433013 0.110128 -0.120189
C86   C     C_R   0.002464 0.432972 0.889957 -0.131621
C87   C     C_3   0.725656 0.394659 0.704824 0.194679
C88   C     C_3   0.655552 0.380861 0.689449 -0.356268
C89   C     C_3   0.613255 0.451116 0.685253 -1.000992
C90   C     C_R   0.434636 0.004771 0.863010 -0.219108
C91   C     C_3   0.165708 0.710058 0.309711 0.130221
C92   C     C_3   0.150618 0.668933 0.335051 -0.319289
C93   C     C_3   0.087864 0.702587 0.350246 -0.957627
C94   C     C_3   0.572884 0.681715 0.749439 0.136288
C95   C     C_3   0.497204 0.663648 0.738979 -0.318367
C96   C     C_3   0.450804 0.624992 0.759425 -1.008052
C97   C     C_3   0.373487 0.255298 0.302491 0.164391
C98   C     C_3   0.347022 0.317620 0.319855 -0.347691
C99   C     C_3   0.354869 0.298728 0.348686 -0.996219
C100  C     C_3   0.274406 0.605525 0.704818 0.194601
C101  C     C_R   0.994004 0.564995 0.136924 -0.230958
C102  C     C_3   0.344566 0.619419 0.689469 -0.355503
C103  C     C_3   0.386947 0.549212 0.685303 -0.999111
C104  C     C_3   0.836865 0.288092 0.309216 0.127777
C105  C     C_3   0.853739 0.328671 0.334496 -0.319874
C106  C     C_3   0.918364 0.295485 0.348781 -0.945370
C107  C     C_3   0.427166 0.318251 0.749489 0.135964
C108  C     C_3   0.502888 0.336321 0.739047 -0.318344
C109  C     C_3   0.549265 0.374825 0.759512 -1.007735
C110  C     C_3   0.627317 0.745250 0.302731 0.163398
C111  C     C_3   0.654634 0.683225 0.320088 -0.342431
C112  C     C_R   0.999965 0.499982 0.179798 0.770195
C113  C     C_R   0.991946 0.564864 0.863056 -0.220530
C114  C     C_3   0.646802 0.702012 0.348921 -1.008798
C115  C     C_3   0.681632 0.573023 0.250663 0.135699
C116  C     C_3   0.663732 0.497267 0.261108 -0.318066
C117  C     C_3   0.624905 0.450975 0.240697 -1.008691
C118  C     C_3   0.255224 0.373335 0.697433 0.164400
C119  C     C_3   0.317579 0.346819 0.680080 -0.347529
C120  C     C_3   0.298798 0.354747 0.651246 -0.997858
C121  C     C_3   0.605616 0.274136 0.295265 0.193843
C122  C     C_3   0.619613 0.344248 0.310603 -0.354449
C123  C     C_3   0.549425 0.386600 0.314862 -0.999374
C124  C     C_R   0.435522 0.005169 0.136796 -0.215527
C125  C     C_3   0.287658 0.835711 0.690477 0.128308
C126  C     C_3   0.328090 0.852143 0.665108 -0.316973
C127  C     C_3   0.292942 0.914496 0.650134 -0.959397
C128  C     C_3   0.315623 0.428101 0.250082 0.137735
C129  C     C_3   0.333551 0.503869 0.260473 -0.313111
C130  C     C_3   0.366549 0.552217 0.239349 -1.011317
C131  C     C_3   0.744991 0.626913 0.697402 0.164084
C132  C     C_3   0.682724 0.653516 0.680026 -0.342311
C133  C     C_3   0.701651 0.645727 0.651199 -1.009771
C134  C     C_3   0.395477 0.724771 0.294779 0.195880
C135  C     C_R   0.566380 0.999121 0.862758 -0.216244
C136  C     C_3   0.382192 0.654778 0.310294 -0.356811
C137  C     C_3   0.452614 0.612608 0.314285 -0.999743
C138  C     C_3   0.711994 0.164301 0.690543 0.129186
C139  C     C_3   0.671431 0.147920 0.665211 -0.319503
C140  C     C_3   0.705867 0.084894 0.650409 -0.957360
C141  C     C_3   0.224911 0.895287 0.205130 0.193898
C142  C     C_3   0.155005 0.881704 0.189617 -0.356604
C143  C     C_3   0.112618 0.951961 0.185556 -0.998895
C144  C     C_3   0.654724 0.208451 0.807870 0.127062
C145  C     C_3   0.676069 0.272305 0.825478 -0.331202
C146  C     C_R   0.004592 0.433621 0.137322 -0.218466
C147  C     C_3   0.610757 0.300334 0.840762 -0.965282
C148  C     C_3   0.071928 0.184358 0.249797 0.138299
C149  C     C_3   0.996054 0.166862 0.239396 -0.313433
C150  C     C_3   0.947693 0.133549 0.260452 -1.012858
C151  C     C_3   0.873609 0.755413 0.802475 0.163896
C152  C     C_3   0.847556 0.817912 0.819839 -0.346775
C153  C     C_3   0.855929 0.799257 0.848673 -0.993017
C154  C     C_3   0.774903 0.105989 0.204870 0.186659
C155  C     C_3   0.844918 0.120763 0.189548 -0.352720
C156  C     C_3   0.888365 0.051151 0.185515 -0.999400
C157  C     C_R   0.003676 0.433569 0.862756 -0.210412
C158  C     C_3   0.345342 0.790884 0.807836 0.127286
C159  C     C_3   0.323960 0.726477 0.825216 -0.331225
C160  C     C_3   0.389179 0.698128 0.840477 -0.964057
C161  C     C_3   0.928433 0.814997 0.249924 0.137513
C162  C     C_3   0.004227 0.832790 0.239491 -0.312281
C163  C     C_3   0.053040 0.864611 0.260685 -1.011041
C164  C     C_3   0.126320 0.244517 0.802477 0.163432
C165  C     C_3   0.152430 0.182044 0.819863 -0.343154
C166  C     C_3   0.144066 0.200716 0.848688 -1.000575
C167  C     C_3   0.184367 0.071919 0.750146 0.137954
C168  C     C_R   0.999595 0.499403 0.650984 -0.006404
C169  C     C_3   0.166744 0.996043 0.760538 -0.312785
C170  C     C_3   0.133477 0.947782 0.739469 -1.014087
C171  C     C_3   0.755624 0.873898 0.197577 0.165470
C172  C     C_3   0.818190 0.848033 0.180198 -0.351219
C173  C     C_3   0.799543 0.856522 0.151372 -0.987500
C174  C     C_3   0.105744 0.774945 0.795050 0.188629
C175  C     C_3   0.120442 0.844911 0.810378 -0.352465
C176  C     C_3   0.050812 0.888383 0.814361 -0.998429
C177  C     C_3   0.791248 0.345561 0.192134 0.128986
C178  C     C_3   0.727733 0.324171 0.174370 -0.327601
C179  C     C_R   0.999989 0.498310 0.348957 -0.000462
C180  C     C_3   0.699686 0.389526 0.159102 -0.971472
C181  C     C_3   0.815592 0.928126 0.750136 0.137766
C182  C     C_3   0.833191 0.003966 0.760532 -0.312848
C183  C     C_3   0.866368 0.052349 0.739454 -1.013552
C184  C     C_3   0.244991 0.127028 0.197402 0.163883
C185  C     C_3   0.182909 0.154136 0.180038 -0.350353
C186  C     C_3   0.201756 0.146282 0.151207 -0.987662
C187  C     C_3   0.894250 0.224923 0.795052 0.188824
C188  C     C_3   0.879602 0.154924 0.810400 -0.353633
C189  C     C_3   0.949273 0.111529 0.814404 -0.999996
C190  C     C_R   0.499647 0.000391 0.651038 -0.000393
C191  C     C_3   0.211375 0.665120 0.190556 0.129132
C192  C     C_3   0.170471 0.648676 0.165308 -0.321637
C193  C     C_3   0.204624 0.585506 0.150501 -0.954728
C194  C     C_3   0.647009 0.809123 0.976913 0.135185
C195  C     C_3   0.690223 0.849666 0.955855 -0.341943
C196  C     C_3   0.771815 0.837863 0.959040 -0.969912
C197  C     C_3   0.521178 0.247667 0.022062 0.137460
C198  C     C_3   0.581725 0.238592 0.042302 -0.345544
C199  C     C_3   0.642661 0.293924 0.038007 -0.968627
C200  C     C_3   0.224400 0.500192 0.963525 0.103857
C201  C     C_R   0.500449 0.999566 0.349023 -0.007012
C202  C     C_3   0.292777 0.526683 0.949439 -0.274023
C203  C     C_3   0.338420 0.463426 0.939519 -0.985136
C204  C     C_3   0.752008 0.468626 0.019595 0.172742
C205  C     C_3   0.709587 0.495269 0.043404 -0.368414
C206  C     C_3   0.744721 0.562410 0.055663 -0.790116
C207  C     C_3   0.365928 0.195321 0.974919 0.149621
C208  C     C_3   0.340319 0.268543 0.964398 -0.302679
C209  C     C_3   0.257561 0.274313 0.964859 -1.009090
C210  C     C_3   0.494647 0.759755 0.021578 0.131206
C211  C     C_3   0.432960 0.768265 0.041408 -0.346092
C212  C     C_R   0.500777 0.000675 0.150986 -0.007241
C213  C     C_3   0.372981 0.712187 0.036807 -0.951478
C214  C     C_3   0.818371 0.333486 0.975522 0.117701
C215  C     C_3   0.750779 0.303177 0.961956 -0.302729
C216  C     C_3   0.746442 0.220548 0.964306 -0.982719
C217  C     C_3   0.240500 0.522314 0.028286 0.138545
C218  C     C_3   0.277778 0.529277 0.054833 -0.282733
C219  C     C_3   0.349125 0.487168 0.055530 -1.011036
C220  C     C_3   0.958275 0.265074 0.472939 0.155796
C221  C     C_3   0.928942 0.201054 0.457137 -0.297034
C222  C     C_3   0.983853 0.139187 0.455829 -1.002727
C223  C     C_R   0.500021 0.000174 0.820205 0.766478
C224  C     C_R   0.500277 0.001228 0.848994 -0.014599
C225  C     C_3   0.014858 0.727761 0.532806 0.143196
C226  C     C_3   0.041889 0.806385 0.533223 -0.313171
C227  C     C_3   0.980688 0.859325 0.539438 -1.016161
C228  C     C_3   0.730904 0.003670 0.466987 0.132399
C229  C     C_3   0.811393 0.024672 0.466621 -0.306157
C230  C     C_3   0.859677 0.958505 0.462363 -1.017193
C231  C     C_3   0.268313 0.972180 0.527023 0.181250
C232  C     C_3   0.197329 0.944722 0.539090 -0.381451
C233  C     C_3   0.206883 0.922805 0.567603 -0.707510
C234  C     C_3   0.023480 0.723784 0.462925 0.130884
C235  C     C_R   0.999615 0.499640 0.151011 -0.008016
C236  C     C_3   0.056869 0.777665 0.443585 -0.284986
C237  C     C_3   0.998663 0.824120 0.430621 -0.987854
C238  C     C_3   0.822674 0.330838 0.527429 0.140406
C239  C     C_3   0.789683 0.261408 0.538857 -0.316029
C240  C     C_3   0.706997 0.265980 0.540564 -0.888633
C241  C     C_3   0.331342 0.828467 0.473216 0.145896
C242  C     C_3   0.262061 0.795785 0.461623 -0.324293
C243  C     C_3   0.266439 0.713094 0.459931 -0.886111
C244  C     C_3   0.729516 0.018684 0.536453 0.131546
C245  C     C_3   0.787293 0.051299 0.554425 -0.286450
C246  C     C_R   0.998610 0.499555 0.849012 -0.006572
C247  C     C_3   0.835711 0.992453 0.566041 -0.991280
C248  C     C_R   0.998103 0.498032 0.596103 0.294056
C249  C     C_R   0.999663 0.494746 0.403767 0.293781
C250  C     C_R   0.499149 0.001091 0.596223 0.295786
C251  C     C_R   0.501471 0.998187 0.403906 0.294652
C252  C     C_R   0.503057 0.002588 0.096145 0.296322
C253  C     C_R   0.501243 0.003803 0.903809 0.305524
C254  C     C_R   0.998505 0.498241 0.096181 0.291364
C255  C     C_R   0.500090 0.000076 0.179789 0.794184
C256  C     C_R   0.995957 0.498150 0.903876 0.293817
C257  C     C_R   0.859605 0.640423 0.749990 0.911400
C258  C     C_R   0.140252 0.359759 0.250001 0.897431
C259  C     C_R   0.359846 0.859880 0.749977 0.890705
C260  C     C_R   0.640466 0.140347 0.250024 0.939868
C261  C     C_R   0.140406 0.359573 0.749996 0.911850
C262  C     C_R   0.859724 0.640235 0.249990 0.898451
C263  C     C_R   0.640132 0.140147 0.749981 0.890389
C264  C     C_R   0.359594 0.859604 0.250010 0.939262
C265  C     C_R   0.859825 0.359905 0.250002 0.889801
C266  C     C_R   0.500051 0.999948 0.320213 0.794347
C267  C     C_R   0.140356 0.640456 0.749967 0.939533
C268  C     C_R   0.359600 0.140422 0.249992 0.911450
C269  C     C_R   0.640229 0.859731 0.750011 0.898791
C270  C     C_R   0.140129 0.640169 0.250012 0.898669
C271  C     C_R   0.859651 0.359530 0.749972 0.940159
C272  C     C_R   0.640455 0.859621 0.250020 0.911833
C273  C     C_R   0.359769 0.140282 0.750010 0.899170
C274  C     C_R   0.759886 0.292498 0.727530 0.329299
C275  C     C_R   0.235157 0.710283 0.272980 0.321072
C276  C     C_R   0.680997 0.734887 0.739404 0.313722
C277  C     C_R   0.499935 0.000070 0.679807 0.773922
C278  C     C_R   0.315805 0.263410 0.262969 0.332366
C279  C     C_R   0.240125 0.707600 0.727520 0.328686
C280  C     C_R   0.765409 0.289092 0.273011 0.322040
C281  C     C_R   0.319054 0.265176 0.739427 0.313893
C282  C     C_R   0.684391 0.736779 0.263106 0.329013
C283  C     C_R   0.734924 0.681061 0.260647 0.313764
C284  C     C_R   0.263370 0.315772 0.736992 0.329070
C285  C     C_R   0.707630 0.239991 0.272476 0.330165
C286  C     C_R   0.289219 0.765403 0.726981 0.321633
C287  C     C_R   0.265190 0.319050 0.260551 0.314101
C288  C     C_R   0.000004 0.499768 0.320193 0.774683
C289  C     C_R   0.736689 0.684309 0.736965 0.329041
C290  C     C_R   0.292897 0.759446 0.272399 0.328803
C291  C     C_R   0.710754 0.234738 0.726991 0.321616
C292  C     C_R   0.259515 0.792921 0.227654 0.328199
C293  C     C_R   0.733722 0.211813 0.773166 0.350186
C294  C     C_R   0.181005 0.234894 0.239415 0.314157
C295  C     C_R   0.815807 0.763403 0.762966 0.331855
C296  C     C_R   0.739906 0.207831 0.227528 0.325983
C297  C     C_R   0.266288 0.788059 0.773166 0.349881
C298  C     C_R   0.819103 0.765219 0.239454 0.313934
C299  C     C_R   0.999969 0.499911 0.679788 0.794157
C300  C     C_R   0.184194 0.236571 0.762977 0.331844
C301  C     C_R   0.234830 0.180957 0.760566 0.313713
C302  C     C_R   0.763504 0.815883 0.237062 0.332451
C303  C     C_R   0.207698 0.739923 0.772437 0.325357
C304  C     C_R   0.788054 0.266419 0.226806 0.349809
C305  C     C_R   0.765170 0.819026 0.760559 0.313855
C306  C     C_R   0.236668 0.184324 0.236974 0.332262
C307  C     C_R   0.792297 0.259972 0.772441 0.325674
C308  C     C_R   0.210393 0.735174 0.227082 0.321854
C309  C     C_R   0.695618 0.196316 0.750053 -0.368519
C310  C     C_R   0.064781 0.492027 0.636894 -0.220720
C311  C     C_R   0.303350 0.803371 0.250027 -0.386536
C312  C     C_R   0.803470 0.696613 0.749974 -0.389373
C313  C     C_R   0.196158 0.303885 0.249995 -0.375547
C314  C     C_R   0.304351 0.803717 0.750047 -0.368218
C315  C     C_R   0.696731 0.196599 0.250028 -0.389680
C316  C     C_R   0.196555 0.303404 0.749989 -0.389561
C317  C     C_R   0.803897 0.696183 0.250027 -0.373895
C318  C     C_R   0.696686 0.803532 0.250061 -0.390030
C319  C     C_R   0.303867 0.196156 0.749997 -0.373186
C320  C     C_R   0.803675 0.304395 0.249933 -0.369038
H1    H     H_    0.114497 0.485181 0.599051 0.147509
H2    H     H_    0.384306 0.008711 0.900808 0.135542
H3    H     H_    0.249391 0.322421 0.646510 0.269348
H4    H     H_    0.344688 0.334607 0.639215 0.277720
H5    H     H_    0.289058 0.412701 0.646302 0.263748
H6    H     H_    0.561504 0.243378 0.305190 0.167918
H7    H     H_    0.584840 0.287404 0.275376 0.118422
H8    H     H_    0.644079 0.330930 0.329822 0.247204
H9    H     H_    0.657916 0.379455 0.299663 0.252684
H10   H     H_    0.523088 0.399070 0.295894 0.281181
H11   H     H_    0.561784 0.438582 0.324961 0.274140
H12   H     H_    0.511377 0.354549 0.327156 0.272539
H13   H     H_    0.988946 0.614911 0.099080 0.145363
H14   H     H_    0.284941 0.886499 0.702266 0.106940
H15   H     H_    0.231449 0.817156 0.685675 0.154330
H16   H     H_    0.385291 0.866979 0.669634 0.242768
H17   H     H_    0.328425 0.802691 0.652661 0.225960
H18   H     H_    0.235833 0.900587 0.645076 0.265762
H19   H     H_    0.323673 0.924603 0.631835 0.294753
H20   H     H_    0.293849 0.964973 0.662014 0.254130
H21   H     H_    0.278223 0.433681 0.233093 0.109217
H22   H     H_    0.367083 0.401811 0.243613 0.150791
H23   H     H_    0.283091 0.529654 0.267886 0.260031
H24   H     H_    0.985345 0.614741 0.900865 0.146638
H25   H     H_    0.372655 0.499049 0.276899 0.225553
H26   H     H_    0.418479 0.528755 0.232256 0.270042
H27   H     H_    0.377632 0.607071 0.247448 0.263798
H28   H     H_    0.328236 0.557903 0.222751 0.254151
H29   H     H_    0.761542 0.572003 0.690721 0.157055
H30   H     H_    0.793715 0.662683 0.694838 0.105283
H31   H     H_    0.632559 0.621765 0.684275 0.249191
H32   H     H_    0.671918 0.711768 0.684081 0.245506
H33   H     H_    0.751085 0.678072 0.646492 0.267979
H34   H     H_    0.655825 0.665927 0.639150 0.277375
H35   H     H_    0.386138 0.009537 0.098848 0.139148
H36   H     H_    0.711413 0.587795 0.646250 0.262968
H37   H     H_    0.439987 0.755625 0.304411 0.168518
H38   H     H_    0.415421 0.711380 0.274793 0.117511
H39   H     H_    0.358400 0.668222 0.329609 0.244208
H40   H     H_    0.343563 0.619398 0.299602 0.253334
H41   H     H_    0.478389 0.600159 0.295216 0.281196
H42   H     H_    0.440705 0.560620 0.324473 0.273848
H43   H     H_    0.490951 0.644790 0.326400 0.272027
H44   H     H_    0.714488 0.113567 0.702390 0.107221
H45   H     H_    0.768287 0.182542 0.685698 0.153698
H46   H     H_    0.618033 0.998345 0.900316 0.131663
H47   H     H_    0.614051 0.133833 0.669763 0.243740
H48   H     H_    0.671702 0.197167 0.652637 0.224291
H49   H     H_    0.763174 0.098000 0.645354 0.266124
H50   H     H_    0.675106 0.074888 0.632120 0.293338
H51   H     H_    0.704252 0.034614 0.662410 0.253739
H52   H     H_    0.255724 0.939748 0.195433 0.167928
H53   H     H_    0.211403 0.915408 0.225082 0.118593
H54   H     H_    0.168597 0.857865 0.170327 0.244163
H55   H     H_    0.119705 0.843014 0.200337 0.253289
H56   H     H_    0.099986 0.977757 0.204600 0.280798
H57   H     H_    0.008369 0.381801 0.099847 0.141494
H58   H     H_    0.060716 0.939844 0.175358 0.274197
H59   H     H_    0.144738 0.990360 0.173425 0.271961
H60   H     H_    0.628232 0.165877 0.820015 0.165780
H61   H     H_    0.613217 0.226058 0.793357 0.090052
H62   H     H_    0.718836 0.254601 0.839386 0.246272
H63   H     H_    0.698230 0.317392 0.813401 0.234528
H64   H     H_    0.567562 0.318999 0.827218 0.258451
H65   H     H_    0.627803 0.346871 0.853141 0.278290
H66   H     H_    0.588535 0.256827 0.853547 0.274437
H67   H     H_    0.066523 0.221501 0.266859 0.108641
H68   H     H_    0.007078 0.381808 0.900270 0.134025
H69   H     H_    0.098084 0.132721 0.256156 0.150396
H70   H     H_    0.970382 0.217544 0.232128 0.258375
H71   H     H_    0.000692 0.128115 0.222864 0.226377
H72   H     H_    0.970991 0.081359 0.267372 0.271035
H73   H     H_    0.892736 0.122892 0.252355 0.263698
H74   H     H_    0.942267 0.171465 0.277170 0.254123
H75   H     H_    0.928540 0.738647 0.809077 0.157187
H76   H     H_    0.837645 0.706880 0.805155 0.106623
H77   H     H_    0.879352 0.867945 0.815437 0.249253
H78   H     H_    0.789240 0.828832 0.815924 0.247669
H79   H     H_    0.116333 0.486578 0.646901 0.156159
H80   H     H_    0.823612 0.749922 0.853533 0.271228
H81   H     H_    0.836050 0.845222 0.860714 0.278150
H82   H     H_    0.913961 0.789465 0.853483 0.262318
H83   H     H_    0.744669 0.061558 0.194948 0.167146
H84   H     H_    0.788255 0.085381 0.224777 0.121181
H85   H     H_    0.831341 0.144610 0.170249 0.244585
H86   H     H_    0.879405 0.159886 0.200393 0.252499
H87   H     H_    0.901084 0.025379 0.204564 0.280193
H88   H     H_    0.940240 0.064091 0.175414 0.274629
H89   H     H_    0.856974 0.012383 0.173311 0.271814
H90   H     H_    0.116353 0.481820 0.352635 0.163509
H91   H     H_    0.371702 0.833125 0.820141 0.166216
H92   H     H_    0.386964 0.773769 0.793291 0.089953
H93   H     H_    0.281025 0.743694 0.839137 0.248192
H94   H     H_    0.302011 0.681686 0.812974 0.233394
H95   H     H_    0.432550 0.679955 0.826920 0.258262
H96   H     H_    0.372106 0.651190 0.852679 0.277001
H97   H     H_    0.411182 0.741298 0.853431 0.275342
H98   H     H_    0.933944 0.777218 0.266816 0.108800
H99   H     H_    0.902412 0.866428 0.256548 0.149485
H100  H     H_    0.029576 0.782450 0.231799 0.260578
H101  H     H_    0.485969 0.117179 0.647449 0.163822
H102  H     H_    0.999516 0.872546 0.223254 0.224975
H103  H     H_    0.029982 0.916374 0.268085 0.270274
H104  H     H_    0.107870 0.875690 0.252538 0.263674
H105  H     H_    0.058698 0.825578 0.277075 0.253446
H106  H     H_    0.071364 0.261216 0.809075 0.156937
H107  H     H_    0.162227 0.293090 0.805138 0.105922
H108  H     H_    0.120662 0.131990 0.815494 0.249153
H109  H     H_    0.210749 0.171158 0.815935 0.247250
H110  H     H_    0.176371 0.250064 0.853515 0.269852
H111  H     H_    0.163966 0.154763 0.860746 0.278750
H112  H     H_    0.115553 0.478829 0.400433 0.146680
H113  H     H_    0.490471 0.116573 0.353123 0.156619
H114  H     H_    0.086033 0.210491 0.853507 0.261349
H115  H     H_    0.221626 0.066530 0.733105 0.108356
H116  H     H_    0.132783 0.098117 0.743757 0.150582
H117  H     H_    0.217373 0.970303 0.767819 0.258165
H118  H     H_    0.127918 0.000674 0.777058 0.226344
H119  H     H_    0.081342 0.971156 0.732531 0.270789
H120  H     H_    0.122712 0.892823 0.747560 0.263749
H121  H     H_    0.171476 0.942357 0.722765 0.254119
H122  H     H_    0.738815 0.928851 0.191008 0.157009
H123  H     H_    0.707129 0.837905 0.194878 0.106633
H124  H     H_    0.882618 0.511933 0.647560 0.155426
H125  H     H_    0.868174 0.879880 0.184603 0.249733
H126  H     H_    0.829195 0.789720 0.184089 0.247045
H127  H     H_    0.750292 0.824105 0.146507 0.272990
H128  H     H_    0.845583 0.836835 0.139318 0.277601
H129  H     H_    0.789599 0.914545 0.146587 0.261825
H130  H     H_    0.061232 0.744709 0.804949 0.168273
H131  H     H_    0.085265 0.788340 0.775132 0.120075
H132  H     H_    0.144131 0.831282 0.829694 0.245862
H133  H     H_    0.159685 0.879387 0.799560 0.251902
H134  H     H_    0.025193 0.901155 0.795293 0.279881
H135  H     H_    0.883583 0.514140 0.352747 0.163831
H136  H     H_    0.063702 0.940224 0.824469 0.274459
H137  H     H_    0.011924 0.856990 0.826538 0.272301
H138  H     H_    0.833895 0.372369 0.180113 0.167330
H139  H     H_    0.773249 0.386818 0.206670 0.088814
H140  H     H_    0.745805 0.281619 0.160447 0.246237
H141  H     H_    0.682550 0.301714 0.186329 0.233480
H142  H     H_    0.680653 0.432505 0.172659 0.257806
H143  H     H_    0.653395 0.372436 0.146607 0.275800
H144  H     H_    0.743304 0.412037 0.146431 0.276672
H145  H     H_    0.778321 0.933570 0.733105 0.108252
H146  H     H_    0.513206 0.883748 0.647142 0.163264
H147  H     H_    0.867181 0.901973 0.743731 0.150318
H148  H     H_    0.782564 0.029639 0.767843 0.258317
H149  H     H_    0.872063 0.999286 0.777031 0.226224
H150  H     H_    0.918497 0.029040 0.732483 0.270732
H151  H     H_    0.877123 0.107275 0.747549 0.263752
H152  H     H_    0.828317 0.057833 0.722771 0.254064
H153  H     H_    0.261245 0.072084 0.190670 0.156890
H154  H     H_    0.293923 0.162535 0.194880 0.107392
H155  H     H_    0.132510 0.122751 0.184279 0.250498
H156  H     H_    0.172539 0.212459 0.184113 0.246219
H157  H     H_    0.510597 0.882351 0.352443 0.155856
H158  H     H_    0.251458 0.178224 0.146510 0.272812
H159  H     H_    0.156098 0.166909 0.139169 0.277460
H160  H     H_    0.211018 0.088281 0.146234 0.262131
H161  H     H_    0.938740 0.255176 0.804935 0.167724
H162  H     H_    0.914735 0.211572 0.775133 0.120298
H163  H     H_    0.855853 0.168504 0.829709 0.244232
H164  H     H_    0.840429 0.120410 0.799587 0.252291
H165  H     H_    0.974954 0.098812 0.795343 0.280412
H166  H     H_    0.936418 0.059660 0.824524 0.274283
H167  H     H_    0.988092 0.142951 0.826580 0.271879
H168  H     H_    0.618326 0.993604 0.147737 0.156655
H169  H     H_    0.214203 0.614355 0.202378 0.107239
H170  H     H_    0.267544 0.683513 0.185602 0.153095
H171  H     H_    0.113151 0.634697 0.169977 0.243949
H172  H     H_    0.170640 0.697856 0.152700 0.224070
H173  H     H_    0.261916 0.598458 0.145375 0.265492
H174  H     H_    0.173675 0.575486 0.132254 0.293471
H175  H     H_    0.203000 0.535282 0.162532 0.254143
H176  H     H_    0.659408 0.750203 0.975429 0.160947
H177  H     H_    0.665650 0.826585 0.996639 0.143367
H178  H     H_    0.673321 0.829938 0.936295 0.264314
H179  H     H_    0.382889 0.006509 0.852964 0.169710
H180  H     H_    0.678820 0.908849 0.957091 0.212529
H181  H     H_    0.790323 0.858428 0.978292 0.268370
H182  H     H_    0.801501 0.867787 0.943506 0.272038
H183  H     H_    0.784934 0.779131 0.957419 0.270308
H184  H     H_    0.498900 0.303527 0.023758 0.156746
H185  H     H_    0.544519 0.243519 0.002060 0.149901
H186  H     H_    0.558902 0.246115 0.062172 0.264795
H187  H     H_    0.604718 0.182941 0.040929 0.216470
H188  H     H_    0.667747 0.286192 0.018520 0.267626
H189  H     H_    0.685283 0.286711 0.053103 0.288034
H190  H     H_    0.989760 0.616653 0.146909 0.163534
H191  H     H_    0.621060 0.350080 0.039435 0.254956
H192  H     H_    0.190952 0.468056 0.949590 0.157241
H193  H     H_    0.240385 0.463030 0.979591 0.082512
H194  H     H_    0.276785 0.561378 0.932658 0.252715
H195  H     H_    0.326214 0.560052 0.962994 0.215484
H196  H     H_    0.358611 0.430797 0.956183 0.263016
H197  H     H_    0.385969 0.484775 0.928543 0.274709
H198  H     H_    0.305801 0.428192 0.926348 0.271995
H199  H     H_    0.715283 0.432995 0.008036 0.136343
H200  H     H_    0.766375 0.516471 0.007152 0.125464
H201  H     H_    0.987649 0.616499 0.853021 0.156251
H202  H     H_    0.653409 0.509532 0.037313 0.164169
H203  H     H_    0.705770 0.451129 0.058160 0.254332
H204  H     H_    0.801456 0.550994 0.061624 0.294971
H205  H     H_    0.713317 0.578771 0.073175 0.244098
H206  H     H_    0.744749 0.608350 0.041597 0.233224
H207  H     H_    0.345729 0.189584 0.995326 0.145017
H208  H     H_    0.342295 0.150967 0.962760 0.144219
H209  H     H_    0.363851 0.312664 0.976588 0.214824
H210  H     H_    0.359875 0.275648 0.944046 0.248127
H211  H     H_    0.232806 0.230947 0.952647 0.273069
H212  H     H_    0.383615 0.008083 0.146715 0.156223
H213  H     H_    0.240872 0.327944 0.956989 0.263162
H214  H     H_    0.237017 0.269332 0.985147 0.267240
H215  H     H_    0.517958 0.704433 0.023699 0.157338
H216  H     H_    0.472308 0.762727 0.001412 0.153825
H217  H     H_    0.454812 0.761167 0.061436 0.265038
H218  H     H_    0.409298 0.823585 0.039798 0.219014
H219  H     H_    0.349086 0.719147 0.017082 0.279392
H220  H     H_    0.329345 0.719456 0.051525 0.278543
H221  H     H_    0.395108 0.656312 0.038627 0.262111
H222  H     H_    0.817358 0.315564 0.996270 0.154819
H223  H     H_    0.485553 0.117212 0.599651 0.145267
H224  H     H_    0.617827 0.996464 0.852535 0.169883
H225  H     H_    0.867694 0.311083 0.965829 0.143040
H226  H     H_    0.701332 0.327274 0.970877 0.213958
H227  H     H_    0.752092 0.318453 0.940993 0.251976
H228  H     H_    0.794767 0.195125 0.955120 0.268740
H229  H     H_    0.696808 0.200459 0.954257 0.278830
H230  H     H_    0.743569 0.204141 0.985125 0.264696
H231  H     H_    0.280924 0.536565 0.013014 0.164109
H232  H     H_    0.223321 0.464354 0.025828 0.082459
H233  H     H_    0.288968 0.587419 0.059116 0.241835
H234  H     H_    0.241429 0.507557 0.070289 0.253065
H235  H     H_    0.009019 0.382387 0.147601 0.170319
H236  H     H_    0.339055 0.428604 0.051580 0.276128
H237  H     H_    0.374314 0.492596 0.075103 0.276819
H238  H     H_    0.387640 0.509038 0.040769 0.261528
H239  H     H_    0.971175 0.245730 0.492983 0.155585
H240  H     H_    0.009078 0.285335 0.463468 0.134438
H241  H     H_    0.877937 0.180825 0.466277 0.225902
H242  H     H_    0.916261 0.219530 0.437014 0.255124
H243  H     H_    0.035826 0.158624 0.447207 0.273896
H244  H     H_    0.961958 0.094870 0.443393 0.275815
H245  H     H_    0.994264 0.117180 0.475643 0.268194
H246  H     H_    0.008947 0.382376 0.852514 0.155805
H247  H     H_    0.994904 0.713390 0.552583 0.178391
H248  H     H_    0.967553 0.723510 0.519276 0.064772
H249  H     H_    0.085177 0.811866 0.548202 0.238738
H250  H     H_    0.065533 0.820550 0.513927 0.221445
H251  H     H_    0.937728 0.856246 0.524250 0.262379
H252  H     H_    0.002662 0.915637 0.539906 0.273473
H253  H     H_    0.956538 0.846615 0.558767 0.274675
H254  H     H_    0.715389 0.984683 0.447209 0.178896
H255  H     H_    0.722921 0.956798 0.480532 0.067709
H256  H     H_    0.821076 0.064503 0.450689 0.234228
H257  H     H_    0.756451 0.438857 0.694962 0.167827
H258  H     H_    0.826437 0.050783 0.485405 0.229013
H259  H     H_    0.851887 0.918493 0.478364 0.260674
H260  H     H_    0.917588 0.975724 0.462191 0.275366
H261  H     H_    0.846649 0.932296 0.443421 0.273140
H262  H     H_    0.255574 0.991624 0.506964 0.114311
H263  H     H_    0.289046 0.019054 0.538642 0.129028
H264  H     H_    0.155834 0.988372 0.537888 0.166668
H265  H     H_    0.177243 0.897314 0.527744 0.222380
H266  H     H_    0.244724 0.876120 0.569244 0.304656
H267  H     H_    0.153483 0.906374 0.575862 0.213587
H268  H     H_    0.712374 0.415234 0.724734 0.118373
H269  H     H_    0.228392 0.969221 0.579147 0.251485
H270  H     H_    0.997616 0.755270 0.478783 0.112471
H271  H     H_    0.980367 0.691835 0.452755 0.136938
H272  H     H_    0.095550 0.813873 0.454022 0.206201
H273  H     H_    0.087299 0.747745 0.428284 0.259842
H274  H     H_    0.960544 0.789342 0.419316 0.270834
H275  H     H_    0.024739 0.863573 0.417119 0.272734
H276  H     H_    0.967839 0.854654 0.445601 0.270880
H277  H     H_    0.799862 0.338835 0.507505 0.155169
H278  H     H_    0.807232 0.377899 0.539896 0.140804
H279  H     H_    0.668886 0.356576 0.670207 0.244824
H280  H     H_    0.804614 0.214535 0.526311 0.234219
H281  H     H_    0.812147 0.252025 0.558686 0.240252
H282  H     H_    0.690679 0.312514 0.553024 0.247927
H283  H     H_    0.685129 0.215149 0.549297 0.310157
H284  H     H_    0.683208 0.272711 0.520813 0.272320
H285  H     H_    0.338415 0.806111 0.493261 0.151811
H286  H     H_    0.378684 0.812265 0.460995 0.138752
H287  H     H_    0.215029 0.810875 0.474077 0.229288
H288  H     H_    0.253190 0.818310 0.441768 0.241293
H289  H     H_    0.313474 0.696647 0.447726 0.248091
H290  H     H_    0.620301 0.342475 0.700334 0.253215
H291  H     H_    0.215977 0.691411 0.450901 0.308563
H292  H     H_    0.272196 0.689224 0.479715 0.275363
H293  H     H_    0.757645 0.990407 0.520331 0.114150
H294  H     H_    0.697374 0.977689 0.547623 0.139392
H295  H     H_    0.821699 0.089925 0.543168 0.209554
H296  H     H_    0.760527 0.081658 0.570486 0.255829
H297  H     H_    0.802841 0.954086 0.577972 0.270046
H298  H     H_    0.877618 0.017907 0.578702 0.273114
H299  H     H_    0.863431 0.961997 0.550258 0.271598
H300  H     H_    0.600788 0.477290 0.704245 0.281660
H301  H     H_    0.561265 0.438892 0.675129 0.273955
H302  H     H_    0.645354 0.489243 0.673005 0.272009
H303  H     H_    0.491081 0.114817 0.400976 0.146959
H304  H     H_    0.114510 0.712365 0.298132 0.106910
H305  H     H_    0.183688 0.766401 0.314578 0.153255
H306  H     H_    0.136855 0.611501 0.330478 0.244331
H307  H     H_    0.200342 0.669433 0.347369 0.223654
H308  H     H_    0.100668 0.759918 0.355335 0.266057
H309  H     H_    0.078825 0.671467 0.368533 0.293120
H310  H     H_    0.037133 0.700719 0.338508 0.254210
H311  H     H_    0.567016 0.717121 0.766950 0.108180
H312  H     H_    0.600141 0.630039 0.755120 0.155827
H313  H     H_    0.469636 0.714668 0.733020 0.256336
H314  H     H_    0.881956 0.511089 0.599815 0.133084
H315  H     H_    0.502430 0.628088 0.721571 0.228540
H316  H     H_    0.475865 0.572301 0.764904 0.270058
H317  H     H_    0.395776 0.614323 0.751401 0.265230
H318  H     H_    0.445177 0.659400 0.777069 0.260386
H319  H     H_    0.428446 0.238763 0.309138 0.157227
H320  H     H_    0.337722 0.206596 0.305115 0.106256
H321  H     H_    0.378834 0.367729 0.315581 0.249868
H322  H     H_    0.288763 0.328494 0.315819 0.246285
H323  H     H_    0.322412 0.249390 0.353420 0.269859
H324  H     H_    0.334820 0.344621 0.360725 0.277825
H325  H     H_    0.883891 0.511413 0.400496 0.141920
H326  H     H_    0.412796 0.288828 0.353623 0.263495
H327  H     H_    0.243662 0.561368 0.694936 0.168250
H328  H     H_    0.287611 0.584855 0.724728 0.118169
H329  H     H_    0.331294 0.643730 0.670217 0.246218
H330  H     H_    0.379730 0.657820 0.700360 0.252848
H331  H     H_    0.399352 0.523010 0.704304 0.281145
H332  H     H_    0.438972 0.561504 0.675198 0.273962
H333  H     H_    0.354940 0.511081 0.673049 0.272556
H334  H     H_    0.887225 0.286128 0.297156 0.107529
H335  H     H_    0.819329 0.231609 0.314099 0.153104
H336  H     H_    0.512834 0.884892 0.599371 0.140202
H337  H     H_    0.866280 0.386398 0.329949 0.244391
H338  H     H_    0.805208 0.327137 0.347409 0.227089
H339  H     H_    0.906908 0.237788 0.353765 0.266333
H340  H     H_    0.928607 0.326115 0.367077 0.295794
H341  H     H_    0.967953 0.298570 0.336451 0.251274
H342  H     H_    0.432963 0.282752 0.766993 0.107915
H343  H     H_    0.399926 0.369916 0.755177 0.155649
H344  H     H_    0.530434 0.285315 0.733076 0.256355
H345  H     H_    0.497737 0.371984 0.721649 0.228518
H346  H     H_    0.524246 0.427520 0.764993 0.270008
H347  H     H_    0.511630 0.881768 0.400195 0.132610
H348  H     H_    0.604332 0.385469 0.751502 0.265233
H349  H     H_    0.554793 0.340333 0.777154 0.260263
H350  H     H_    0.572396 0.761452 0.309525 0.156715
H351  H     H_    0.662788 0.794221 0.305181 0.105827
H352  H     H_    0.623365 0.632756 0.315876 0.249868
H353  H     H_    0.712978 0.673003 0.315972 0.244568
H354  H     H_    0.678584 0.751817 0.353587 0.268176
H355  H     H_    0.667631 0.656421 0.360952 0.277367
H356  H     H_    0.588773 0.711056 0.353931 0.263134
H357  H     H_    0.716915 0.567292 0.233103 0.107424
H358  H     H_    0.619646 0.995373 0.099982 0.139229
H359  H     H_    0.629879 0.600254 0.245060 0.155289
H360  H     H_    0.714840 0.469707 0.266972 0.256246
H361  H     H_    0.628337 0.502342 0.278576 0.228545
H362  H     H_    0.572075 0.475970 0.235349 0.270525
H363  H     H_    0.614460 0.395856 0.248695 0.265472
H364  H     H_    0.659089 0.445585 0.222975 0.260001
H365  H     H_    0.238689 0.428267 0.690750 0.157283
H366  H     H_    0.206521 0.337563 0.694845 0.106169
H367  H     H_    0.367723 0.378550 0.684359 0.249441
H368  H     H_    0.328364 0.288547 0.684127 0.246108
N1    N     N_R   0.501893 0.003978 0.931833 -0.366091
N2    N     N_R   0.504324 0.003262 0.068107 -0.366134
N3    N     N_R   0.996360 0.497160 0.931936 -0.364002
N4    N     N_R   0.998354 0.497315 0.068138 -0.366604
N5    N     N_R   0.999337 0.494832 0.431816 -0.359503
N6    N     N_R   0.996971 0.498048 0.568030 -0.360906
N7    N     N_R   0.501906 0.997061 0.431974 -0.361037
N8    N     N_R   0.499243 0.001067 0.568184 -0.359001
O1    O     O_3   1.000000 0.500000 0.750000 -0.484246
O2    O     O_R   1.000000 0.439150 0.192270 -0.644663
O3    O     O_3   0.173651 0.719894 0.204195 -0.616039
O4    O     O_3   0.571215 0.817460 0.972897 -0.601640
O5    O     O_3   0.463319 0.198185 0.026897 -0.593899
O6    O     O_3   0.186356 0.561550 0.973085 -0.580166
O7    O     O_3   0.812422 0.426584 0.027748 -0.584198
O8    O     O_3   0.442660 0.193053 0.973777 -0.603997
O9    O     O_3   0.551231 0.810571 0.026482 -0.600411
O10   O     O_3   0.817770 0.410103 0.973572 -0.608445
O11   O     O_3   0.182281 0.572304 0.026662 -0.570347
O12   O     O_3   0.904872 0.320040 0.473659 -0.594845
O13   O     O_R   0.439150 0.000000 0.807730 -0.644251
O14   O     O_3   0.073670 0.682051 0.525887 -0.570599
O15   O     O_3   0.689453 0.065676 0.473827 -0.572237
O16   O     O_3   0.319763 0.915260 0.526475 -0.571870
O17   O     O_3   0.079253 0.679013 0.473043 -0.588728
O18   O     O_3   0.899103 0.323539 0.526852 -0.598158
O19   O     O_3   0.324751 0.904971 0.473533 -0.593388
O20   O     O_3   0.685450 0.075420 0.526668 -0.588137
O21   O     O_R   0.560850 0.000000 0.192270 -0.656520
O22   O     O_R   0.500000 0.939150 0.307730 -0.656159
O23   O     O_R   0.500000 0.060850 0.692270 -0.649736
O24   O     O_R   0.060850 0.500000 0.307730 -0.649946
O25   O     O_R   0.939150 0.500000 0.692270 -0.656212
O26   O     O_R   0.500000 0.060850 0.307730 -0.655095
O27   O     O_R   0.500000 0.939150 0.692270 -0.649402
O28   O     O_R   0.939150 0.500000 0.307730 -0.649964
O29   O     O_3   0.000000 0.500000 0.250000 -0.497358
O30   O     O_R   0.060850 0.500000 0.692270 -0.655092
O31   O     O_R   0.914360 0.646040 0.764890 -0.633725
O32   O     O_R   0.085640 0.353960 0.235110 -0.609674
O33   O     O_R   0.353960 0.914360 0.764890 -0.628391
O34   O     O_R   0.646040 0.085640 0.235110 -0.636911
O35   O     O_R   0.085640 0.353960 0.764890 -0.633861
O36   O     O_R   0.914360 0.646040 0.235110 -0.611099
O37   O     O_R   0.646040 0.085640 0.764890 -0.628440
O38   O     O_R   0.353960 0.914360 0.235110 -0.637390
O39   O     O_R   0.914360 0.353960 0.235110 -0.628332
O40   O     O_3   0.500000 1.000000 0.750000 -0.497959
O41   O     O_R   0.085640 0.646040 0.764890 -0.636532
O42   O     O_R   0.353960 0.085640 0.235110 -0.633551
O43   O     O_R   0.646040 0.914360 0.764890 -0.609789
O44   O     O_R   0.085640 0.646040 0.235110 -0.622012
O45   O     O_R   0.914360 0.353960 0.764890 -0.636655
O46   O     O_R   0.646040 0.914360 0.235110 -0.633826
O47   O     O_R   0.353960 0.085640 0.764890 -0.609904
O48   O     O_R   0.414360 0.146040 0.264890 -0.633731
O49   O     O_R   0.585640 0.853960 0.735110 -0.609714
O50   O     O_R   0.853960 0.414360 0.264890 -0.620078
O51   O     O_3   0.500000 0.000000 0.250000 -0.484231
O52   O     O_R   0.146040 0.585640 0.735110 -0.638081
O53   O     O_R   0.585640 0.853960 0.264890 -0.633412
O54   O     O_R   0.414360 0.146040 0.735110 -0.609812
O55   O     O_R   0.146040 0.585640 0.264890 -0.621867
O56   O     O_R   0.853960 0.414360 0.735110 -0.637916
O57   O     O_R   0.414360 0.853960 0.735110 -0.619440
O58   O     O_R   0.585640 0.146040 0.264890 -0.637999
O59   O     O_R   0.853960 0.585640 0.735110 -0.633628
O60   O     O_R   0.146040 0.414360 0.264890 -0.610698
O61   O     O_R   0.585640 0.146040 0.735110 -0.619674
O62   O     O_R   0.000000 0.439150 0.807730 -0.656327
O63   O     O_R   0.414360 0.853960 0.264890 -0.637618
O64   O     O_R   0.146040 0.414360 0.735110 -0.633553
O65   O     O_R   0.853960 0.585640 0.264890 -0.609620
O66   O     O_2   0.467500 0.126353 0.931132 -0.523735
O67   O     O_2   0.539728 0.881228 0.068812 -0.525262
O68   O     O_2   0.882343 0.440226 0.931217 -0.519360
O69   O     O_2   0.111676 0.555185 0.068638 -0.546223
O70   O     O_2   0.534820 0.881263 0.930914 -0.521108
O71   O     O_2   0.470363 0.125707 0.069062 -0.524253
O72   O     O_2   0.107063 0.560352 0.931297 -0.532012
O73   O     O_R   1.000000 0.560850 0.192270 -0.650043
O74   O     O_2   0.884626 0.439974 0.069285 -0.516791
O75   O     O_2   0.069325 0.601305 0.431148 -0.560050
O76   O     O_2   0.935652 0.386303 0.569143 -0.525195
O77   O     O_2   0.388060 0.939704 0.431089 -0.524544
O78   O     O_2   0.608282 0.067023 0.568775 -0.559838
O79   O     O_2   0.934223 0.385262 0.431091 -0.533772
O80   O     O_2   0.063794 0.606626 0.568302 -0.535562
O81   O     O_2   0.612827 0.059946 0.431479 -0.533408
O82   O     O_2   0.387423 0.939951 0.569021 -0.540615
O83   O     O_3   0.770927 0.332326 0.704908 -0.613668
O84   O     O_R   0.560850 0.000000 0.807730 -0.644989
O85   O     O_3   0.220349 0.672916 0.295796 -0.616315
O86   O     O_3   0.612741 0.717917 0.729774 -0.603170
O87   O     O_3   0.380054 0.277817 0.276132 -0.611280
O88   O     O_3   0.229120 0.667845 0.704899 -0.613672
O89   O     O_3   0.781131 0.325434 0.295939 -0.614826
O90   O     O_3   0.387337 0.282177 0.729809 -0.603080
O91   O     O_3   0.620323 0.722538 0.276421 -0.613057
O92   O     O_3   0.717929 0.612813 0.270300 -0.602818
O93   O     O_3   0.277722 0.379988 0.723781 -0.613030
O94   O     O_3   0.667927 0.228831 0.295115 -0.612502
O95   O     O_R   0.439150 0.000000 0.192270 -0.655291
O96   O     O_3   0.325776 0.781115 0.704078 -0.615107
O97   O     O_3   0.282326 0.387280 0.270144 -0.603559
O98   O     O_3   0.722367 0.620157 0.723740 -0.613000
O99   O     O_3   0.333123 0.770014 0.294947 -0.613861
O100  O     O_3   0.674183 0.219180 0.704090 -0.615215
O101  O     O_3   0.270282 0.833033 0.205079 -0.614692
O102  O     O_3   0.717123 0.176900 0.796384 -0.618172
O103  O     O_3   0.112794 0.217811 0.229780 -0.602795
O104  O     O_3   0.880092 0.777839 0.776104 -0.611502
O105  O     O_3   0.728974 0.167802 0.204969 -0.620301
O106  O     O_R   0.000000 0.560850 0.807730 -0.655009
O107  O     O_3   0.283006 0.822719 0.796403 -0.617782
O108  O     O_3   0.887331 0.782332 0.229823 -0.603347
O109  O     O_3   0.119893 0.222096 0.776115 -0.611514
O110  O     O_3   0.217721 0.112711 0.770182 -0.602998
O111  O     O_3   0.778000 0.880225 0.223950 -0.611102
O112  O     O_3   0.167552 0.729003 0.794987 -0.619019
O113  O     O_3   0.822875 0.283138 0.203584 -0.618011
O114  O     O_3   0.782265 0.887238 0.770176 -0.602936
O115  O     O_3   0.222318 0.120207 0.223734 -0.611289
O116  O     O_3   0.832410 0.270821 0.794991 -0.619286
Zn1   Zn    Zn3+2 0.913060 0.500000 0.727930 0.956243
Zn2   Zn    Zn3+2 0.586940 0.000000 0.772070 0.963563
Zn3   Zn    Zn3+2 0.000000 0.413060 0.227930 0.964149
Zn4   Zn    Zn3+2 0.000000 0.586940 0.772070 0.956675
Zn5   Zn    Zn3+2 0.586940 0.000000 0.227930 0.956186
Zn6   Zn    Zn3+2 0.413060 0.000000 0.772070 0.964062
Zn7   Zn    Zn3+2 1.000000 0.586940 0.227930 0.963200
Zn8   Zn    Zn3+2 0.000000 0.413060 0.772070 0.956359
Zn9   Zn    Zn3+2 0.086940 0.500000 0.272070 0.964108
Zn10  Zn    Zn3+2 0.500000 0.913060 0.727930 0.964847
Zn11  Zn    Zn3+2 0.500000 0.086940 0.272070 0.956832
Zn12  Zn    Zn3+2 0.086940 0.500000 0.727930 0.956673
Zn13  Zn    Zn3+2 0.913060 0.500000 0.272070 0.963994
Zn14  Zn    Zn3+2 0.500000 0.086940 0.727930 0.964627
Zn15  Zn    Zn3+2 0.500000 0.913060 0.272070 0.956710
Zn16  Zn    Zn3+2 0.413060 0.000000 0.227930 0.956867

loop_
_geom_bond_atom_site_label_1
_geom_bond_atom_site_label_2
_ccdc_geom_bond_type
C189  H165  S    
C217  H232  S    
C126  C127  S    
C55   C59   A    
C148  H69   S    
C6    C270  S    
C78   C252  A    
C32   C45   A    
C198  H186  S    
C223  C224  S    
C128  H21   S    
C97   H319  S    
C76   C250  A    
C230  H259  S    
C147  H66   S    
C227  H251  S    
C233  H266  S    
C41   C67   A    
C211  H218  S    
C281  C284  A    
O64   Zn12  S    
C146  H235  S    
C241  H285  S    
C282  C283  A    
C281  O90   S    
O32   Zn3   S    
O40   Zn2   S    
O1    Zn1   S    
C57   C76   A    
C208  H209  S    
C260  O34   A    
O61   Zn14  S    
C173  H129  S    
C293  C307  A    
C291  C309  A    
C120  H5    S    
C130  H26   S    
C228  O15   S    
C276  O86   S    
C151  H76   S    
C106  H340  S    
C108  C109  S    
C269  O49   A    
C298  C302  A    
C3    C303  A    
C183  H152  S    
C109  H348  S    
C18   C40   A    
C110  C111  S    
C220  C221  S    
C122  H8    S    
C63   O15   S    
C228  H254  S    
C285  C315  A    
C176  H134  S    
C148  O103  S    
C129  H23   S    
O1    Zn8   S    
C233  H269  S    
C172  H125  S    
C191  H169  S    
C157  C246  A    
C173  H128  S    
C286  O96   S    
C259  O33   A    
C107  H343  S    
C277  O23   A    
C289  C312  A    
C101  H190  S    
C109  H349  S    
C290  C311  A    
C280  C320  A    
C296  C315  A    
C151  O104  S    
C204  C205  S    
C39   C65   A    
C46   H135  S    
C234  C236  S    
C128  O97   S    
C209  H213  S    
C264  C311  S    
C127  H19   S    
C228  C229  S    
C37   C63   A    
C127  H20   S    
C38   C64   A    
C15   O72   S    
C45   C47   A    
O29   Zn3   S    
C305  O114  S    
C163  H105  S    
C193  H174  S    
C202  C203  S    
C191  C192  S    
C279  C286  A    
O40   Zn14  S    
C87   H268  S    
C239  H280  S    
C138  H45   S    
C206  H205  S    
C19   N7    A    
C24   H113  S    
C28   C54   A    
C135  H224  S    
C29   C55   A    
C160  H96   S    
C237  H275  S    
C299  O30   A    
C30   C56   A    
C89   H302  S    
C23   O81   S    
C34   C61   A    
C219  H238  S    
C126  H16   S    
C102  H329  S    
C91   H304  S    
C167  H115  S    
C215  C216  S    
C23   N7    A    
C229  C230  S    
C185  H156  S    
C103  H331  S    
C196  H181  S    
C19   O77   S    
C94   H311  S    
C125  H14   S    
C114  H356  S    
C68   H157  S    
C229  H256  S    
C8    O66   S    
C161  O108  S    
C177  H139  S    
C161  H98   S    
C204  H200  S    
C203  H198  S    
C96   H318  S    
C238  O18   S    
C85   C146  A    
C154  C155  S    
C14   N2    A    
C52   C58   A    
C247  H299  S    
C125  O96   S    
C140  H50   S    
C154  H83   S    
C33   C47   A    
C262  O36   A    
C30   C43   A    
C230  H261  S    
O106  Zn4   S    
C115  H359  S    
C2    C71   A    
O55   Zn9   S    
C300  C301  A    
C181  H145  S    
C259  O57   A    
C95   H315  S    
C68   C77   A    
C145  H63   S    
C257  O59   A    
C255  O95   A    
C162  H102  S    
C46   C179  A    
C207  H207  S    
C205  H203  S    
O40   Zn10  S    
C144  C145  S    
C272  O53   A    
C20   C42   A    
C139  C140  S    
C27   C53   A    
C294  C306  A    
C13   C72   A    
C112  C235  S    
C22   C36   A    
C154  O105  S    
C99   H323  S    
C1    O62   A    
C194  H176  S    
C165  H108  S    
C186  H158  S    
C103  H332  S    
C226  H250  S    
O45   Zn8   S    
C83   H35   S    
C77   H347  S    
O30   Zn12  S    
C37   C50   A    
C232  H264  S    
C120  H4    S    
C123  H12   S    
C300  C316  A    
C180  H142  S    
C286  C314  A    
C260  C315  S    
C184  H154  S    
C133  H33   S    
C294  O103  S    
C192  H172  S    
C280  O89   S    
C298  O108  S    
C157  H246  S    
C195  C196  S    
C66   O18   S    
C259  C314  S    
C243  H292  S    
O48   Zn11  S    
C65   O17   S    
C88   C89   S    
C118  H366  S    
C249  N5    S    
C98   C99   S    
C138  O100  S    
C155  C156  S    
C221  H241  S    
C52   O4    S    
C32   C59   A    
C216  H228  S    
O44   Zn7   S    
C92   H306  S    
C271  O56   A    
C71   C249  A    
C84   H46   S    
C110  H351  S    
C16   N4    A    
O27   Zn10  S    
C87   O83   S    
C169  H118  S    
C163  H103  S    
C84   C135  A    
C3    C279  A    
C244  H293  S    
C136  H40   S    
O37   Zn2   S    
C13   H101  S    
O2    Zn3   S    
C80   C90   A    
C267  O41   A    
C160  H95   S    
C128  C129  S    
C158  H92   S    
C97   C98   S    
C144  H60   S    
C155  H85   S    
C81   C101  A    
C244  C245  S    
C303  O112  S    
C214  C215  S    
C169  H117  S    
C125  C126  S    
C174  O112  S    
C219  H236  S    
C302  C318  A    
C184  H153  S    
C121  H7    S    
C176  H136  S    
C243  H289  S    
C231  O16   S    
C134  H38   S    
C196  H183  S    
C17   C39   A    
C130  H27   S    
C25   C38   A    
C86   H68   S    
C121  H6    S    
C114  H354  S    
C61   C66   A    
C86   C256  A    
C115  C116  S    
C175  H132  S    
C184  C185  S    
C87   H257  S    
C142  H55   S    
C301  O110  S    
C267  O52   A    
C130  H28   S    
C57   H146  S    
C92   C93   S    
C186  H160  S    
C283  C317  A    
C171  H122  S    
C20   O78   S    
C265  O50   A    
C182  C183  S    
C117  H362  S    
C247  H297  S    
C108  H345  S    
C63   C69   A    
C150  H72   S    
C96   H317  S    
C107  C108  S    
C222  H245  S    
C194  O4    S    
C83   C124  A    
C115  H357  S    
C222  H244  S    
C197  H184  S    
C18   O76   S    
C25   N8    A    
C20   N8    A    
C232  H265  S    
C95   H313  S    
C310  H79   S    
C7    C307  A    
C202  H195  S    
C177  O113  S    
O28   Zn13  S    
C261  O35   A    
C272  C318  S    
C158  O107  S    
C272  O46   A    
C164  O109  S    
C240  H283  S    
C156  H88   S    
C273  O47   A    
C2    H90   S    
C24   C201  A    
C137  H41   S    
C147  H64   S    
C11   C33   A    
C121  O94   S    
C216  H229  S    
C91   C92   S    
C5    C276  A    
C164  H107  S    
C251  N7    S    
C38   C51   A    
C123  H10   S    
C217  C218  S    
C180  H144  S    
C301  C319  A    
O1    Zn12  S    
C13   C190  A    
C12   C26   A    
O25   Zn1   S    
C234  H270  S    
C221  C222  S    
C109  H346  S    
O36   Zn7   S    
C178  H140  S    
C119  H368  S    
C294  C313  A    
C74   C248  A    
C144  H61   S    
C150  H74   S    
C295  C312  A    
C188  H163  S    
C105  H337  S    
C98   H322  S    
C35   C168  A    
C19   C41   A    
C200  H193  S    
O24   Zn9   S    
C214  H222  S    
C298  C317  A    
C70   H1    S    
C276  C289  A    
C76   H336  S    
C200  C202  S    
C244  O20   S    
O38   Zn16  S    
O58   Zn11  S    
C177  C178  S    
C274  O83   S    
C263  O37   A    
C159  H94   S    
C263  C309  S    
C139  H47   S    
C178  H141  S    
C291  O100  S    
C129  C130  S    
C100  O88   S    
C53   C56   A    
C200  O6    S    
C296  C304  A    
C146  C235  A    
C217  H231  S    
C153  H81   S    
C211  C213  S    
C138  H44   S    
C198  H187  S    
C266  O26   A    
C264  O63   A    
C128  H22   S    
C136  C137  S    
C275  C290  A    
C230  H260  S    
C147  H65   S    
C118  O93   S    
C75   H325  S    
C85   H57   S    
C211  H217  S    
C242  H287  S    
C288  O24   A    
C132  H31   S    
C8    N1    A    
C58   O9    S    
C223  O13   A    
C287  C313  A    
C212  C255  S    
C208  H210  S    
C282  C318  A    
O34   Zn5   S    
C256  N3    S    
C90   H179  S    
C117  H364  S    
C292  O101  S    
O51   Zn16  S    
C218  H233  S    
C151  H75   S    
C307  O116  S    
C11   O69   S    
C70   C310  A    
C189  H166  S    
C10   O68   S    
C222  H243  S    
C220  H239  S    
C183  H151  S    
C102  C103  S    
C86   C157  A    
C210  H216  S    
C166  H110  S    
C67   O19   S    
O52   Zn12  S    
O65   Zn13  S    
C6    C308  A    
C100  H328  S    
C152  C153  S    
C226  C227  S    
C4    C306  A    
C84   C253  A    
C106  H341  S    
C11   N4    A    
C172  H126  S    
C173  H127  S    
C9    N2    A    
C70   C248  A    
C73   C251  A    
O62   Zn8   S    
C141  H53   S    
C87   C88   S    
C35   C74   A    
C270  O44   A    
C306  O115  S    
O23   Zn14  S    
C15   N3    A    
C83   C252  A    
C137  H43   S    
C265  C320  S    
C265  O39   A    
C268  O42   A    
C239  C240  S    
C197  H185  S    
C7    C274  A    
C199  H191  S    
C182  H148  S    
C161  C162  S    
C255  O21   A    
C296  O105  S    
C204  O7    S    
C213  H219  S    
C181  C182  S    
O53   Zn15  S    
C234  O17   S    
C21   N5    A    
O31   Zn4   S    
C193  H173  S    
C85   C254  A    
C158  H91   S    
C93   H309  S    
C181  O114  S    
C10   N3    A    
C262  C317  S    
C164  C165  S    
C257  C312  S    
C297  C314  A    
C174  H130  S    
C206  H206  S    
C112  O2    A    
O13   Zn6   S    
C82   H24   S    
C24   C73   A    
C141  H52   S    
C18   N6    A    
C261  O64   A    
C237  H274  S    
C89   H301  S    
C264  O38   A    
C229  H258  S    
C219  H237  S    
C225  H248  S    
C102  H330  S    
C107  O90   S    
C104  C105  S    
O29   Zn9   S    
C292  C308  A    
C185  H155  S    
C196  H182  S    
C248  N6    S    
C176  H137  S    
C14   O71   S    
C207  H208  S    
C208  C209  S    
C293  O102  S    
O42   Zn16  S    
C151  C152  S    
C203  H197  S    
C170  H119  S    
C73   H303  S    
C143  H58   S    
C295  O104  S    
C263  O61   A    
C245  H296  S    
C171  H123  S    
C152  H77   S    
O47   Zn6   S    
C293  C309  A    
C160  H97   S    
C12   N1    A    
C266  O22   A    
C40   C66   A    
O35   Zn8   S    
C154  H84   S    
C124  H212  S    
C82   C256  A    
C79   C212  A    
O43   Zn2   S    
C213  H221  S    
C97   H320  S    
C103  H333  S    
C141  O101  S    
C227  H252  S    
C145  C147  S    
C149  H71   S    
C25   O82   S    
O63   Zn15  S    
C59   O10   S    
C145  H62   S    
C113  H201  S    
C241  H286  S    
C3    C267  S    
C80   C253  A    
C96   H316  S    
O54   Zn14  S    
C144  O102  S    
C207  C208  S    
C64   O16   S    
C12   O70   S    
C205  H202  S    
C62   O14   S    
O84   Zn2   S    
C236  C237  S    
C278  C287  A    
O29   Zn7   S    
O46   Zn5   S    
C240  H282  S    
C177  H138  S    
C210  O9    S    
C21   C34   A    
C124  C212  A    
C214  O10   S    
C106  H339  S    
C91   H305  S    
C99   H326  S    
C283  O92   S    
C36   C62   A    
C231  H262  S    
C278  O87   S    
C186  H159  S    
C254  N4    S    
C213  H220  S    
C112  O73   A    
C164  H106  S    
C159  C160  S    
O57   Zn10  S    
C123  H11   S    
C271  O45   A    
C50   C51   A    
O51   Zn5   S    
C104  H335  S    
C275  O85   S    
C143  H56   S    
C191  H170  S    
C207  O8    S    
O73   Zn7   S    
C121  C122  S    
C153  H82   S    
C48   C49   A    
C238  H278  S    
C29   C47   A    
C33   C60   A    
C245  C247  S    
C282  O91   S    
C93   H310  S    
C209  H214  S    
O51   Zn15  S    
C41   C50   A    
C162  C163  S    
C197  O5    S    
O39   Zn3   S    
C238  C239  S    
C131  H29   S    
C54   O6    S    
C261  C316  S    
C244  H294  S    
C68   C201  A    
O50   Zn13  S    
C35   H124  S    
C91   O85   S    
C131  C132  S    
C206  H204  S    
C178  C180  S    
C119  C120  S    
O22   Zn15  S    
C308  O3    S    
C131  H30   S    
C237  H276  S    
C105  C106  S    
C79   H168  S    
C5    C269  S    
C134  O99   S    
C8    C30   A    
C273  O54   A    
C7    C271  S    
C167  H116  S    
C187  C188  S    
C22   N6    A    
C292  C311  A    
C23   C37   A    
C149  C150  S    
C273  C319  S    
C194  C195  S    
C241  O19   S    
C5    C305  A    
C15   C28   A    
C232  C233  S    
C161  H99   S    
C204  H199  S    
C116  H361  S    
C111  C114  S    
C162  H100  S    
C195  H180  S    
C168  C299  S    
C94   C95   S    
C175  H133  S    
C138  C139  S    
C110  O91   S    
C228  H255  S    
C122  H9    S    
C174  H131  S    
C114  H355  S    
O95   Zn16  S    
C69   O20   S    
C81   H13   S    
C140  H49   S    
C46   C75   A    
C142  C143  S    
C199  H189  S    
C72   C250  A    
C75   C249  A    
C53   O5    S    
O26   Zn11  S    
C93   H308  S    
C131  O98   S    
C88   H290  S    
C36   C49   A    
C40   C49   A    
C60   O11   S    
O51   Zn11  S    
C39   C48   A    
C220  O12   S    
C171  C172  S    
C56   O8    S    
C165  C166  S    
C190  C277  S    
C165  H109  S    
O1    Zn4   S    
C80   H2    S    
C169  C170  S    
C215  H227  S    
C95   C96   S    
C111  H353  S    
C43   C44   A    
O60   Zn9   S    
C236  H273  S    
C240  H284  S    
C258  C313  S    
C139  H48   S    
C54   C60   A    
C205  C206  S    
C203  H196  S    
C90   C224  A    
C135  C224  A    
C277  O27   A    
C99   H324  S    
C200  H192  S    
C31   C58   A    
C9    O67   S    
C195  H178  S    
C241  C242  S    
C226  H249  S    
C216  H230  S    
C1    C246  S    
C184  O115  S    
C281  C319  A    
C136  H39   S    
C304  C320  A    
C120  H3    S    
C302  O111  S    
C105  H338  S    
C113  C246  A    
C94   O86   S    
C179  C288  S    
C133  H34   S    
C98   H321  S    
C192  H171  S    
C289  O98   S    
C119  H367  S    
C174  C175  S    
C107  H342  S    
C252  N2    S    
C115  O92   S    
C21   O79   S    
C175  C176  S    
C118  H365  S    
C132  C133  S    
C188  H164  S    
C193  H175  S    
C101  C235  A    
C221  H242  S    
C225  H247  S    
C198  C199  S    
C77   C251  A    
C81   C254  A    
C17   O75   S    
C274  C291  A    
C127  H18   S    
C168  C310  A    
C210  H215  S    
C262  O65   A    
C100  H327  S    
C42   C51   A    
C170  H120  S    
C167  O110  S    
C82   C113  A    
C238  H277  S    
O59   Zn1   S    
O41   Zn4   S    
C108  H344  S    
O29   Zn13  S    
C167  C169  S    
C159  H93   S    
C143  H59   S    
C27   C44   A    
C170  H121  S    
C163  H104  S    
C118  C119  S    
C258  O32   A    
C242  C243  S    
C155  H86   S    
C284  C316  A    
C297  C303  A    
C156  H89   S    
C299  O25   A    
C28   C45   A    
C78   H358  S    
C153  H80   S    
C31   C44   A    
C148  H67   S    
C217  O11   S    
C64   C67   A    
C199  H188  S    
C215  H226  S    
C148  C149  S    
C134  H37   S    
C22   O80   S    
C227  H253  S    
C78   C79   A    
C97   O87   S    
C134  C136  S    
C242  H288  S    
C16   C29   A    
C132  H32   S    
C258  O60   A    
C42   C69   A    
C188  C189  S    
C142  H54   S    
C55   O7    S    
C158  C159  S    
C111  H352  S    
C269  O43   A    
C26   C52   A    
C16   O74   S    
C117  H363  S    
C247  H298  S    
C290  O99   S    
C197  C198  S    
C187  H162  S    
C140  H51   S    
C218  H234  S    
C100  C102  S    
C225  C226  S    
C223  O84   A    
C284  O93   S    
C214  H225  S    
C231  H263  S    
O33   Zn6   S    
C220  H240  S    
C6    C275  A    
C61   O12   S    
C166  H111  S    
C26   C43   A    
C74   H314  S    
C300  O109  S    
C202  H194  S    
C149  H70   S    
C288  O28   A    
C104  H334  S    
C233  H267  S    
C2    C179  A    
O49   Zn10  S    
C295  C305  A    
C234  H271  S    
O56   Zn1   S    
C172  C173  S    
C156  H87   S    
C243  H291  S    
C304  O113  S    
C62   C65   A    
C287  O97   S    
C137  H42   S    
C125  H15   S    
C4    C268  S    
C280  C285  A    
C209  H211  S    
C110  H350  S    
C257  O31   A    
C182  H149  S    
C4    C278  A    
C166  H114  S    
C88   H279  S    
C171  O111  S    
C180  H143  S    
C94   H312  S    
C133  H36   S    
C181  H147  S    
O40   Zn6   S    
C192  C193  S    
C250  N8    S    
C122  C123  S    
C57   C190  A    
C141  C142  S    
C236  H272  S    
C150  H73   S    
C218  C219  S    
C270  O55   A    
C72   H223  S    
C187  H161  S    
C116  C117  S    
C225  O14   S    
C89   H300  S    
C260  O58   A    
C245  H295  S    
C1    O106  A    
C268  O48   A    
C297  O107  S    
C253  N1    S    
C71   H112  S    
C92   H307  S    
C279  O88   S    
C9    C31   A    
C183  H150  S    
C10   C32   A    
C14   C27   A    
C34   C48   A    
C194  H177  S    
C210  C211  S    
C201  C266  S    
C231  C232  S    
C17   N5    A    
C116  H360  S    
C185  C186  S    
C129  H25   S    
C239  H281  S    
C285  O94   S    
C191  O3    S    
C104  O89   S    
C189  H167  S    
O21   Zn5   S    
C187  O116  S    
C152  H78   S    
C126  H17   S    
