data_mof_unit_57911.cif
_audit_creation_date              2012-12-11T15:07:03-0500
_audit_creation_method            fapswitch 2.2
_symmetry_space_group_name_H-M    P1
_symmetry_Int_Tables_number       1
_space_group_crystal_system       triclinic
_cell_length_a                    19.535992
_cell_length_b                    11.417417
_cell_length_c                    18.689278
_cell_angle_alpha                 89.999661
_cell_angle_beta                  89.017201
_cell_angle_gamma                 90.00042
_cell_volume                      4168.04080521

loop_
_atom_site_label
_atom_site_type_symbol
_atom_type_description
_atom_site_fract_x
_atom_site_fract_y
_atom_site_fract_z
_atom_type_partial_charge
C1    C     C_R   0.761551 0.524780 0.639388 0.528019
C2    C     C_3   0.254781 0.060547 0.563492 0.044198
C3    C     C_R   0.741436 0.037399 0.153397 0.537771
C4    C     C_R   0.775224 0.137212 0.860737 0.529647
C5    C     C_R   0.224771 0.137224 0.139259 0.529654
C6    C     C_R   0.275224 0.637212 0.860737 0.529656
C7    C     C_R   0.724771 0.637225 0.139259 0.529644
C8    C     C_R   0.949301 0.356068 0.860760 0.535483
C9    C     C_R   0.050650 0.356062 0.139251 0.535524
C10   C     C_R   0.449297 0.856069 0.860761 0.535475
C11   C     C_R   0.550676 0.856066 0.139242 0.535482
C12   C     C_3   0.684708 0.135103 0.465257 -0.212160
C13   C     C_3   0.245219 0.560546 0.436508 0.044198
C14   C     C_3   0.315292 0.135104 0.534743 -0.212161
C15   C     C_3   0.184708 0.635103 0.465257 -0.212160
C16   C     C_3   0.815292 0.635104 0.534743 -0.212161
C17   C     C_3   0.695035 0.161140 0.544905 -0.039893
C18   C     C_3   0.304966 0.161141 0.455095 -0.039892
C19   C     C_3   0.195035 0.661140 0.544905 -0.039892
C20   C     C_3   0.804966 0.661141 0.455095 -0.039893
C21   C     C_3   0.752036 0.945952 0.481320 -0.226208
C22   C     C_3   0.247963 0.945953 0.518682 -0.226207
C23   C     C_3   0.252036 0.445952 0.481320 -0.226207
C24   C     C_3   0.754781 0.560547 0.563492 0.044197
C25   C     C_3   0.747963 0.445953 0.518682 -0.226208
C26   C     C_3   0.727910 0.309361 0.173334 -0.013680
C27   C     C_3   0.665291 0.326638 0.221851 -0.315538
C28   C     C_3   0.272005 0.309357 0.826641 -0.013687
C29   C     C_3   0.334607 0.326630 0.778099 -0.315558
C30   C     C_3   0.227933 0.809358 0.173339 -0.013687
C31   C     C_3   0.165319 0.826638 0.221863 -0.315544
C32   C     C_3   0.772043 0.809361 0.826648 -0.013683
C33   C     C_3   0.834658 0.826635 0.778124 -0.315550
C34   C     C_3   0.758239 0.093671 0.574516 0.063569
C35   C     C_3   0.241761 0.093671 0.425484 0.063570
C36   C     C_3   0.258239 0.593671 0.574516 0.063569
C37   C     C_3   0.741761 0.593671 0.425484 0.063570
C38   C     C_3   0.745581 0.964693 0.562261 -0.267279
C39   C     C_3   0.254418 0.964694 0.437740 -0.267280
C40   C     C_3   0.245581 0.464693 0.562261 -0.267279
C41   C     C_R   0.238449 0.524779 0.360612 0.528017
C42   C     C_3   0.754418 0.464694 0.437740 -0.267280
C43   C     C_3   0.823133 0.130873 0.529331 -0.246346
C44   C     C_3   0.176867 0.130873 0.470668 -0.246345
C45   C     C_3   0.323133 0.630873 0.529331 -0.246346
C46   C     C_3   0.676867 0.630873 0.470668 -0.246345
C47   C     C_3   0.004844 0.199980 0.458730 -0.225849
C48   C     C_3   0.995155 0.199980 0.541271 -0.225848
C49   C     C_3   0.504844 0.699980 0.458730 -0.225849
C50   C     C_3   0.495155 0.699980 0.541271 -0.225848
C51   C     C_3   0.063708 0.400668 0.472284 -0.215431
C52   C     C_R   0.261551 0.024780 0.639389 0.528018
C53   C     C_3   0.936292 0.400667 0.527716 -0.215432
C54   C     C_3   0.563708 0.900667 0.472284 -0.215431
C55   C     C_3   0.436292 0.900667 0.527716 -0.215432
C56   C     C_3   0.939584 0.379219 0.447089 -0.268920
C57   C     C_3   0.060416 0.379219 0.552911 -0.268921
C58   C     C_3   0.439584 0.879219 0.447088 -0.268920
C59   C     C_3   0.560416 0.879220 0.552911 -0.268921
C60   C     C_3   0.009575 0.328051 0.430590 0.052690
C61   C     C_3   0.990425 0.328052 0.569410 0.052688
C62   C     C_3   0.509575 0.828051 0.430590 0.052689
C63   C     C_R   0.738449 0.024778 0.360612 0.528019
C64   C     C_3   0.490425 0.828052 0.569410 0.052688
C65   C     C_3   0.818754 0.022826 0.046762 -0.275562
C66   C     C_3   0.181255 0.022791 0.953242 -0.275550
C67   C     C_3   0.318754 0.522819 0.046761 -0.275567
C68   C     C_3   0.681250 0.522806 0.953240 -0.275550
C69   C     C_R   0.773817 0.121508 0.649667 0.548251
C70   C     C_R   0.226183 0.121508 0.350333 0.548255
C71   C     C_R   0.273817 0.621508 0.649667 0.548249
C72   C     C_R   0.726183 0.621507 0.350332 0.548257
C73   C     C_3   0.820793 0.033345 0.967059 -0.257379
C74   C     C_3   0.809746 0.132642 0.448425 -0.276230
C75   C     C_3   0.179209 0.033339 0.032943 -0.257390
C76   C     C_3   0.320793 0.533342 0.967058 -0.257375
C77   C     C_3   0.679206 0.533346 0.032941 -0.257392
C78   C     C_3   0.686771 0.041430 0.037524 -0.209011
C79   C     C_3   0.313234 0.041482 0.962474 -0.209033
C80   C     C_3   0.186771 0.541436 0.037525 -0.209022
C81   C     C_3   0.813230 0.541475 0.962474 -0.209019
C82   C     C_3   0.760227 0.210621 0.067339 0.128280
C83   C     C_3   0.239736 0.210619 0.932652 0.128289
C84   C     C_3   0.260235 0.710619 0.067340 0.128283
C85   C     C_3   0.190254 0.132643 0.551575 -0.276231
C86   C     C_3   0.739745 0.710625 0.932652 0.128289
C87   C     C_3   0.752113 0.078443 0.078462 0.094884
C88   C     C_3   0.247882 0.078447 0.921536 0.094877
C89   C     C_3   0.252115 0.578443 0.078462 0.094887
C90   C     C_3   0.747881 0.578451 0.921535 0.094875
C91   C     C_3   0.761919 0.113007 0.939285 0.023004
C92   C     C_3   0.238075 0.113022 0.060711 0.022984
C93   C     C_3   0.261920 0.613007 0.939286 0.023009
C94   C     C_3   0.738074 0.613024 0.060710 0.022983
C95   C     C_3   0.695649 0.045933 0.955248 -0.284387
C96   C     C_3   0.309746 0.632643 0.448425 -0.276230
C97   C     C_3   0.304354 0.045981 0.044749 -0.284364
C98   C     C_3   0.195649 0.545936 0.955249 -0.284396
C99   C     C_3   0.804351 0.545978 0.044748 -0.284359
C100  C     C_3   0.755775 0.229986 0.983949 -0.179767
C101  C     C_3   0.244191 0.229997 0.016041 -0.179772
C102  C     C_3   0.255779 0.729986 0.983950 -0.179777
C103  C     C_3   0.744194 0.730000 0.016041 -0.179760
C104  C     C_3   0.005034 0.480016 0.040196 -0.231948
C105  C     C_3   0.994923 0.480017 0.959819 -0.231942
C106  C     C_3   0.505039 0.980016 0.040194 -0.231943
C107  C     C_3   0.690254 0.632643 0.551575 -0.276230
C108  C     C_3   0.494922 0.980018 0.959818 -0.231937
C109  C     C_3   0.074267 0.298998 0.009985 -0.269153
C110  C     C_3   0.925685 0.298998 0.990031 -0.269172
C111  C     C_3   0.574276 0.799005 0.009973 -0.269184
C112  C     C_3   0.425690 0.798993 0.990035 -0.269181
C113  C     C_3   0.958491 0.277752 0.062805 -0.228103
C114  C     C_3   0.041462 0.277757 0.937210 -0.228068
C115  C     C_3   0.458506 0.777750 0.062807 -0.228072
C116  C     C_3   0.541463 0.777761 0.937202 -0.228057
C117  C     C_R   0.970209 0.341352 0.645643 0.540448
C118  C     C_3   0.745219 0.060546 0.436508 0.044197
C119  C     C_R   0.029791 0.341352 0.354357 0.540436
C120  C     C_R   0.470209 0.841352 0.645643 0.540448
C121  C     C_R   0.529791 0.841352 0.354357 0.540443
C122  C     C_3   0.023125 0.353530 0.065397 0.064035
C123  C     C_3   0.976826 0.353533 0.934617 0.064029
C124  C     C_3   0.523140 0.853532 0.065392 0.064034
C125  C     C_3   0.476825 0.853534 0.934616 0.064032
C126  C     C_R   0.758563 0.537402 0.846602 0.537771
C127  C     C_R   0.241436 0.537400 0.153397 0.537781
C128  C     C_R   0.258564 0.037399 0.846603 0.537784
Cr1   Cr    Cr6+3 0.885690 0.492860 0.745310 1.002705
Cr2   Cr    Cr6+3 0.111880 0.178590 0.246990 0.984637
Cr3   Cr    Cr6+3 0.388120 0.678590 0.753010 0.984642
Cr4   Cr    Cr6+3 0.611880 0.678590 0.246990 0.984633
Cr5   Cr    Cr6+3 0.114310 0.492860 0.254690 1.002713
Cr6   Cr    Cr6+3 0.385690 0.992860 0.745310 1.002710
Cr7   Cr    Cr6+3 0.614310 0.992860 0.254690 1.002709
Cr8   Cr    Cr6+3 0.729880 0.332270 0.748190 1.030499
Cr9   Cr    Cr6+3 0.270120 0.332270 0.251810 1.030502
Cr10  Cr    Cr6+3 0.229880 0.832270 0.748190 1.030496
Cr11  Cr    Cr6+3 0.770120 0.832270 0.251810 1.030500
Cr12  Cr    Cr6+3 0.888120 0.178590 0.753010 0.984635
H1    H     H_    0.636756 0.089876 0.458087 0.157857
H2    H     H_    0.194404 0.916690 0.528276 0.155536
H3    H     H_    0.542564 0.009893 0.932098 0.134817
H4    H     H_    0.614341 0.859743 0.996102 0.104233
H5    H     H_    0.385617 0.859709 0.003908 0.104219
H6    H     H_    0.114335 0.359732 0.996122 0.104226
H7    H     H_    0.885615 0.359720 0.003901 0.104230
H8    H     H_    0.577374 0.801354 0.892540 0.108124
H9    H     H_    0.422595 0.801337 0.107470 0.108098
H10   H     H_    0.077377 0.301352 0.892552 0.108110
H11   H     H_    0.922578 0.301341 0.107466 0.108070
H12   H     H_    0.971455 0.183302 0.068651 0.132908
H13   H     H_    0.305596 0.416689 0.471726 0.155532
H14   H     H_    0.028501 0.183306 0.931361 0.132916
H15   H     H_    0.471471 0.683300 0.068651 0.132911
H16   H     H_    0.528503 0.683308 0.931357 0.132918
H17   H     H_    0.903873 0.219456 0.968959 0.122749
H18   H     H_    0.096074 0.219446 0.031055 0.122746
H19   H     H_    0.403880 0.719448 0.968966 0.122744
H20   H     H_    0.596090 0.719457 0.031039 0.122734
H21   H     H_    0.716497 0.878550 0.464523 0.097459
H22   H     H_    0.283503 0.878552 0.535479 0.097461
H23   H     H_    0.216497 0.378550 0.464523 0.097459
H24   H     H_    0.694404 0.416689 0.528276 0.155536
H25   H     H_    0.783503 0.378552 0.535479 0.097461
H26   H     H_    0.694139 0.940031 0.582817 0.130966
H27   H     H_    0.305861 0.940032 0.417184 0.130967
H28   H     H_    0.194139 0.440031 0.582817 0.130965
H29   H     H_    0.805861 0.440032 0.417184 0.130968
H30   H     H_    0.854118 0.094817 0.418604 0.139726
H31   H     H_    0.145882 0.094818 0.581396 0.139725
H32   H     H_    0.354118 0.594817 0.418604 0.139726
H33   H     H_    0.645882 0.594818 0.581395 0.139726
H34   H     H_    0.801879 0.223297 0.429022 0.102130
H35   H     H_    0.783735 0.910054 0.590469 0.111095
H36   H     H_    0.198122 0.223299 0.570977 0.102128
H37   H     H_    0.301879 0.723298 0.429022 0.102130
H38   H     H_    0.698122 0.723298 0.570977 0.102129
H39   H     H_    0.842911 0.215909 0.546749 0.113406
H40   H     H_    0.157090 0.215908 0.453249 0.113406
H41   H     H_    0.342910 0.715909 0.546749 0.113406
H42   H     H_    0.657090 0.715908 0.453249 0.113406
H43   H     H_    0.754675 0.394428 0.168209 0.133656
H44   H     H_    0.763180 0.247539 0.200235 0.116570
H45   H     H_    0.639500 0.241835 0.232581 0.173608
H46   H     H_    0.216264 0.910053 0.409533 0.111096
H47   H     H_    0.681133 0.364674 0.273651 0.109178
H48   H     H_    0.628159 0.386270 0.196263 0.175269
H49   H     H_    0.245234 0.394419 0.831758 0.133652
H50   H     H_    0.236732 0.247512 0.799763 0.116557
H51   H     H_    0.360398 0.241830 0.767368 0.173624
H52   H     H_    0.318744 0.364649 0.726302 0.109123
H53   H     H_    0.371745 0.386275 0.803667 0.175325
H54   H     H_    0.254700 0.894424 0.168213 0.133651
H55   H     H_    0.263204 0.747532 0.200235 0.116568
H56   H     H_    0.139528 0.741836 0.232596 0.173611
H57   H     H_    0.283736 0.410054 0.590468 0.111092
H58   H     H_    0.181167 0.864674 0.273661 0.109168
H59   H     H_    0.128185 0.886270 0.196279 0.175284
H60   H     H_    0.745274 0.894425 0.831763 0.133657
H61   H     H_    0.736775 0.747524 0.799757 0.116566
H62   H     H_    0.860450 0.741833 0.767398 0.173615
H63   H     H_    0.818811 0.864660 0.726323 0.109151
H64   H     H_    0.871791 0.886275 0.803704 0.175299
H65   H     H_    0.716264 0.410053 0.409533 0.111097
H66   H     H_    0.049002 0.149053 0.441884 0.139593
H67   H     H_    0.950997 0.149053 0.558118 0.139594
H68   H     H_    0.549002 0.649053 0.441884 0.139592
H69   H     H_    0.363244 0.089875 0.541912 0.157858
H70   H     H_    0.450997 0.649053 0.558118 0.139594
H71   H     H_    0.961627 0.153322 0.433914 0.114782
H72   H     H_    0.038372 0.153323 0.566088 0.114782
H73   H     H_    0.461627 0.653322 0.433914 0.114782
H74   H     H_    0.538372 0.653323 0.566088 0.114783
H75   H     H_    0.614790 0.888264 0.449849 0.112482
H76   H     H_    0.385210 0.888263 0.550150 0.112480
H77   H     H_    0.114790 0.388264 0.449849 0.112482
H78   H     H_    0.885211 0.388263 0.550150 0.112480
H79   H     H_    0.601450 0.819595 0.569777 0.103935
H80   H     H_    0.136756 0.589876 0.458087 0.157857
H81   H     H_    0.398550 0.819595 0.430222 0.103936
H82   H     H_    0.101450 0.319595 0.569777 0.103935
H83   H     H_    0.898550 0.319595 0.430222 0.103935
H84   H     H_    0.932480 0.460404 0.417497 0.175442
H85   H     H_    0.067522 0.460404 0.582503 0.175440
H86   H     H_    0.432480 0.960404 0.417497 0.175442
H87   H     H_    0.567522 0.960404 0.582503 0.175440
H88   H     H_    0.950238 0.493784 0.535705 0.166258
H89   H     H_    0.049762 0.493783 0.464294 0.166259
H90   H     H_    0.450238 0.993784 0.535705 0.166258
H91   H     H_    0.863244 0.589875 0.541912 0.157858
H92   H     H_    0.549762 0.993783 0.464294 0.166259
H93   H     H_    0.825223 0.930010 0.060458 0.150978
H94   H     H_    0.174817 0.929970 0.939556 0.150980
H95   H     H_    0.325217 0.430003 0.060456 0.150976
H96   H     H_    0.674805 0.429986 0.939552 0.150984
H97   H     H_    0.680395 0.218066 0.434558 0.107813
H98   H     H_    0.319607 0.218067 0.565440 0.107813
H99   H     H_    0.180395 0.718066 0.434558 0.107813
H100  H     H_    0.819607 0.718067 0.565440 0.107814
H101  H     H_    0.864516 0.066322 0.069422 0.106854
H102  H     H_    0.862322 0.062398 0.538265 0.142186
H103  H     H_    0.135482 0.066240 0.930574 0.106869
H104  H     H_    0.364517 0.566307 0.069422 0.106855
H105  H     H_    0.635480 0.566268 0.930573 0.106866
H106  H     H_    0.873253 0.055019 0.949126 0.136963
H107  H     H_    0.126749 0.055026 0.050865 0.136960
H108  H     H_    0.373253 0.555017 0.949127 0.136962
H109  H     H_    0.626747 0.555030 0.050867 0.136964
H110  H     H_    0.814791 0.945784 0.944636 0.203969
H111  H     H_    0.185213 0.945789 0.055380 0.203974
H112  H     H_    0.314792 0.445781 0.944633 0.203975
H113  H     H_    0.137678 0.062398 0.461735 0.142186
H114  H     H_    0.685211 0.445793 0.055375 0.203967
H115  H     H_    0.669881 0.957860 0.058930 0.095117
H116  H     H_    0.330146 0.957922 0.941071 0.095129
H117  H     H_    0.169884 0.457865 0.058928 0.095135
H118  H     H_    0.830132 0.457911 0.941071 0.095125
H119  H     H_    0.697402 0.956260 0.933187 0.119548
H120  H     H_    0.302613 0.956309 0.066812 0.119501
H121  H     H_    0.197399 0.456261 0.933192 0.119569
H122  H     H_    0.802609 0.456308 0.066815 0.119488
H123  H     H_    0.811473 0.240986 0.084594 0.079950
H124  H     H_    0.362322 0.562399 0.538265 0.142187
H125  H     H_    0.188477 0.240940 0.915406 0.079962
H126  H     H_    0.311485 0.740977 0.084591 0.079954
H127  H     H_    0.688492 0.740961 0.915397 0.079950
H128  H     H_    0.792907 0.292706 0.964100 0.071870
H129  H     H_    0.207036 0.292664 0.035887 0.071859
H130  H     H_    0.292905 0.792716 0.964097 0.071876
H131  H     H_    0.707039 0.792669 0.035885 0.071850
H132  H     H_    0.704902 0.266823 0.973308 0.146172
H133  H     H_    0.295051 0.266886 0.026680 0.146148
H134  H     H_    0.204902 0.766814 0.973316 0.146170
H135  H     H_    0.637678 0.562398 0.461735 0.142186
H136  H     H_    0.795054 0.766888 0.026686 0.146157
H137  H     H_    0.645596 0.104034 0.052028 0.174896
H138  H     H_    0.354390 0.104123 0.947968 0.174883
H139  H     H_    0.145596 0.604038 0.052030 0.174886
H140  H     H_    0.854392 0.604102 0.947967 0.174896
H141  H     H_    0.710778 0.248956 0.548712 0.147105
H142  H     H_    0.289223 0.248957 0.451286 0.147107
H143  H     H_    0.210778 0.748956 0.548712 0.147105
H144  H     H_    0.789223 0.748957 0.451286 0.147107
H145  H     H_    0.651511 0.091525 0.930903 0.116448
H146  H     H_    0.805596 0.916689 0.471726 0.155532
H147  H     H_    0.348484 0.091598 0.069093 0.116469
H148  H     H_    0.151511 0.591529 0.930904 0.116445
H149  H     H_    0.848482 0.591595 0.069091 0.116469
H150  H     H_    0.044360 0.545000 0.053103 0.126321
H151  H     H_    0.955605 0.545008 0.946907 0.126298
H152  H     H_    0.544362 0.045008 0.053099 0.126308
H153  H     H_    0.455600 0.045005 0.946911 0.126290
H154  H     H_    0.957392 0.509893 0.067913 0.134796
H155  H     H_    0.042568 0.509888 0.932103 0.134808
H156  H     H_    0.457398 0.009885 0.067915 0.134810
I1    I     I_    0.600238 0.183828 0.604556 -0.443321
I2    I     I_    0.399762 0.183828 0.395442 -0.443333
I3    I     I_    0.100238 0.683828 0.604556 -0.443327
I4    I     I_    0.899762 0.683828 0.395442 -0.443332
O1    O     O_R   0.957210 0.449410 0.665480 -0.504966
O2    O     O_R   0.167480 0.095300 0.164000 -0.544752
O3    O     O_R   0.332520 0.595300 0.836000 -0.544745
O4    O     O_R   0.667480 0.595300 0.164000 -0.544758
O5    O     O_R   0.946380 0.253940 0.826940 -0.510614
O6    O     O_R   0.053620 0.253940 0.173060 -0.510635
O7    O     O_R   0.446380 0.753940 0.826940 -0.510612
O8    O     O_R   0.553620 0.753940 0.173060 -0.510617
O9    O     O_3   0.834560 0.334570 0.748840 -0.290561
O10   O     O_3   0.165440 0.334570 0.251160 -0.290541
O11   O     O_3   0.334560 0.834570 0.748840 -0.290565
O12   O     O_R   0.042790 0.449410 0.334520 -0.504973
O13   O     O_3   0.665440 0.834570 0.251160 -0.290552
O14   O     O_R   0.820730 0.541240 0.668250 -0.525161
O15   O     O_R   0.179270 0.541240 0.331750 -0.525161
O16   O     O_R   0.320730 0.041240 0.668250 -0.525166
O17   O     O_R   0.679270 0.041240 0.331750 -0.525159
O18   O     O_R   0.714240 0.455060 0.663710 -0.508915
O19   O     O_R   0.285760 0.455060 0.336290 -0.508918
O20   O     O_R   0.214240 0.955060 0.663710 -0.508915
O21   O     O_R   0.785760 0.955060 0.336290 -0.508916
O22   O     O_R   0.736780 0.204870 0.675910 -0.474778
O23   O     O_R   0.457210 0.949410 0.665480 -0.504965
O24   O     O_R   0.263220 0.204870 0.324090 -0.474779
O25   O     O_R   0.236780 0.704870 0.675910 -0.474778
O26   O     O_R   0.763220 0.704870 0.324090 -0.474778
O27   O     O_R   0.833070 0.087590 0.673490 -0.541112
O28   O     O_R   0.166930 0.087590 0.326510 -0.541112
O29   O     O_R   0.333070 0.587590 0.673490 -0.541109
O30   O     O_R   0.666930 0.587590 0.326510 -0.541113
O31   O     O_R   0.946890 0.246800 0.676300 -0.509719
O32   O     O_R   0.053110 0.246800 0.323700 -0.509724
O33   O     O_R   0.446890 0.746800 0.676300 -0.509718
O34   O     O_R   0.542790 0.949410 0.334520 -0.504970
O35   O     O_R   0.553110 0.746800 0.323700 -0.509720
O36   O     O_R   0.956650 0.457120 0.827980 -0.521344
O37   O     O_R   0.043350 0.457120 0.172020 -0.521369
O38   O     O_R   0.456650 0.957120 0.827980 -0.521340
O39   O     O_R   0.543350 0.957120 0.172020 -0.521349
O40   O     O_R   0.820220 0.548390 0.818890 -0.504080
O41   O     O_R   0.179780 0.548390 0.181110 -0.504043
O42   O     O_R   0.320220 0.048390 0.818890 -0.504082
O43   O     O_R   0.679780 0.048390 0.181110 -0.504052
O44   O     O_R   0.713680 0.462770 0.826210 -0.542321
O45   O     O_R   0.736260 0.212010 0.826560 -0.500790
O46   O     O_R   0.286320 0.462770 0.173790 -0.542323
O47   O     O_R   0.213680 0.962770 0.826210 -0.542325
O48   O     O_R   0.786320 0.962770 0.173790 -0.542321
O49   O     O_3   0.706809 0.269925 0.105060 -0.600745
O50   O     O_3   0.293129 0.269964 0.894916 -0.600755
O51   O     O_3   0.206824 0.769930 0.105067 -0.600745
O52   O     O_3   0.793151 0.769954 0.894926 -0.600760
O53   O     O_R   0.263740 0.212010 0.173440 -0.500785
O54   O     O_R   0.236260 0.712010 0.826560 -0.500793
O55   O     O_R   0.763740 0.712010 0.173440 -0.500786
O56   O     O_R   0.832520 0.095300 0.836000 -0.544751

loop_
_geom_bond_atom_site_label_1
_geom_bond_atom_site_label_2
_ccdc_geom_bond_type
C113  H11   S    
Cr9   O24   S    
Cr1   O14   S    
C86   O52   S    
C66   H94   S    
C70   O24   A    
C5    O53   A    
C103  H136  S    
C40   H57   S    
C86   C103  S    
C25   H24   S    
C82   C87   S    
Cr10  O25   S    
C15   H99   S    
C105  C123  S    
Cr12  O31   S    
C32   H61   S    
C113  C122  S    
C48   H72   S    
C49   H73   S    
C2    C22   S    
C68   C90   S    
C51   C57   S    
C16   H100  S    
C91   C100  S    
C10   C125  S    
C52   O16   A    
C58   H86   S    
C36   C71   S    
C83   C88   S    
Cr11  O26   S    
C128  O47   A    
C76   H108  S    
C13   C41   S    
C104  C105  S    
C65   C87   S    
C83   H125  S    
Cr11  O55   S    
C86   C90   S    
C63   C118  S    
C45   H124  S    
Cr2   O6    S    
Cr3   O11   S    
C8    O5    A    
C33   H63   S    
C28   H50   S    
C25   C42   S    
C111  H20   S    
C110  C123  S    
Cr12  O9    S    
C16   C20   S    
C43   H39   S    
C90   C126  S    
C24   C107  S    
C27   H47   S    
C102  H134  S    
C34   C69   S    
C73   C91   S    
C112  C125  S    
C110  H17   S    
C2    C52   S    
C81   C90   S    
C6    O54   A    
C119  O12   A    
C23   H13   S    
C26   C27   S    
C17   C34   S    
C114  H10   S    
C76   H112  S    
Cr5   O10   S    
C89   C127  S    
C68   C77   S    
C69   O27   A    
C49   C62   S    
C111  C124  S    
C79   C97   S    
C108  H153  S    
C8    C123  S    
C57   C61   S    
C19   H143  S    
C64   C120  S    
C82   O49   S    
Cr10  O11   S    
C101  H129  S    
C29   H53   S    
C2    C14   S    
C67   H104  S    
C116  H16   S    
C3    O43   A    
C72   O30   A    
C106  C124  S    
C80   H117  S    
C83   O50   S    
C72   O26   A    
C114  H14   S    
C31   H58   S    
Cr10  O20   S    
Cr9   O46   S    
C30   O51   S    
C47   H71   S    
C84   C102  S    
C11   C124  S    
C28   H49   S    
C126  O40   A    
C85   H31   S    
C78   H115  S    
Cr3   O3    S    
C74   H34   S    
C66   C88   S    
Cr3   O29   S    
C104  C122  S    
C66   H103  S    
C66   C75   S    
C77   C94   S    
C37   C42   S    
C12   H1    S    
C13   C23   S    
C42   H65   S    
C27   H45   S    
Cr9   O10   S    
C53   C61   S    
Cr7   O13   S    
C9    O6    A    
Cr8   O18   S    
C80   H139  S    
Cr7   O39   S    
C29   H51   S    
C21   H146  S    
Cr5   O12   S    
C4    C91   S    
C57   H85   S    
C117  O31   A    
C1    O14   A    
C55   C64   S    
Cr1   O40   S    
C55   H90   S    
C22   H2    S    
C54   H92   S    
C58   H81   S    
C92   C97   S    
C54   C59   S    
C43   H102  S    
C74   C118  S    
C17   I1    S    
C13   C96   S    
C8    O36   A    
Cr1   O9    S    
C70   O28   A    
C100  H128  S    
C65   H101  S    
C119  O32   A    
C9    O37   A    
C103  H131  S    
C105  H151  S    
C74   H30   S    
C106  H152  S    
C49   H68   S    
C115  H9    S    
C84   H126  S    
C109  C114  S    
Cr2   O28   S    
C114  C123  S    
C121  O34   A    
C116  C125  S    
C55   C58   S    
C44   C85   S    
C28   O50   S    
Cr2   O10   S    
C53   C56   S    
Cr3   O7    S    
C83   C101  S    
C14   H69   S    
C34   C43   S    
C127  O46   A    
C128  O42   A    
Cr8   O44   S    
C56   H83   S    
Cr5   O37   S    
C16   H91   S    
C46   H135  S    
C46   H42   S    
C26   O49   S    
C20   C37   S    
C106  C108  S    
C79   H138  S    
C10   O7    A    
Cr6   O23   S    
C121  O35   A    
C91   C95   S    
Cr2   O32   S    
C50   H70   S    
C1    C24   S    
C49   C50   S    
C51   C60   S    
Cr9   O19   S    
C10   O38   A    
C97   H120  S    
C3    O48   A    
Cr8   O9    S    
C58   C62   S    
C51   H89   S    
Cr6   O42   S    
C44   H40   S    
C31   H59   S    
C45   H41   S    
C51   H77   S    
C15   C19   S    
Cr1   O1    S    
C81   H118  S    
C65   H93   S    
C28   C29   S    
C32   O52   S    
C4    O56   A    
C30   C31   S    
C22   H22   S    
C44   H113  S    
Cr12  O56   S    
C104  H154  S    
C23   C40   S    
C33   H62   S    
C85   H36   S    
C2    C85   S    
C80   C89   S    
C127  O41   A    
Cr8   O45   S    
Cr11  O13   S    
C39   H46   S    
C12   C17   S    
C79   H116  S    
C111  C116  S    
C96   H37   S    
C59   H87   S    
Cr6   O11   S    
C17   H141  S    
C26   H43   S    
Cr2   O2    S    
C113  H12   S    
C86   H127  S    
Cr4   O8    S    
C75   H111  S    
C79   C88   S    
C57   H82   S    
C54   H75   S    
C61   C117  S    
Cr10  O54   S    
Cr7   O17   S    
C73   H106  S    
C54   C62   S    
C25   H25   S    
C95   H145  S    
Cr11  O48   S    
Cr7   O43   S    
C56   C60   S    
Cr4   O13   S    
C35   C39   S    
C63   O21   A    
C21   C118  S    
C42   H29   S    
C76   C93   S    
Cr4   O30   S    
C78   C95   S    
C6    C93   S    
C1    O18   A    
C9    C122  S    
C7    O55   A    
C92   C101  S    
C12   C118  S    
C12   H97   S    
C94   C103  S    
C71   O25   A    
C18   I2    S    
C77   H109  S    
Cr5   O15   S    
C111  H4    S    
C75   H107  S    
Cr4   O35   S    
C116  H8    S    
C100  H132  S    
C38   H26   S    
C7    C94   S    
C115  C124  S    
C102  H130  S    
C47   H66   S    
C80   C98   S    
C63   O17   A    
C22   C39   S    
C105  H155  S    
C78   H137  S    
C106  H156  S    
C93   C102  S    
C68   H105  S    
C81   C99   S    
C33   H64   S    
C32   C33   S    
C32   H60   S    
C38   H35   S    
C30   H54   S    
C120  O33   A    
C48   H67   S    
C27   H48   S    
Cr4   O4    S    
C37   C72   S    
C117  O1    A    
C71   O29   A    
C41   O19   A    
Cr9   O53   S    
C20   H144  S    
C37   C46   S    
C108  H3    S    
C84   O51   S    
C112  H19   S    
C81   H140  S    
C50   C64   S    
C14   C18   S    
C109  H6    S    
C112  H5    S    
C95   H119  S    
C67   H95   S    
C59   C64   S    
C60   C119  S    
C14   H98   S    
C19   C36   S    
C53   H88   S    
C31   H56   S    
C109  C122  S    
C120  O23   A    
C50   H74   S    
C67   C89   S    
C65   C73   S    
C4    O45   A    
Cr1   O36   S    
C68   H96   S    
C47   C60   S    
Cr11  O21   S    
C99   H122  S    
Cr8   O22   S    
Cr6   O38   S    
C108  C125  S    
C5    O2    A    
C7    O4    A    
C43   C74   S    
Cr12  O5    S    
Cr5   O41   S    
C16   C24   S    
C101  H133  S    
C109  H18   S    
C97   H147  S    
C98   H148  S    
C23   H23   S    
C104  H150  S    
C21   H21   S    
C21   C38   S    
C3    C87   S    
C36   C40   S    
C24   C25   S    
C35   C70   S    
C55   H76   S    
C56   H84   S    
C107  H33   S    
C47   C48   S    
C18   H142  S    
C46   C107  S    
C29   H52   S    
C36   C45   S    
C35   C44   S    
C110  C113  S    
C41   O15   A    
C75   C92   S    
C69   O22   A    
C13   C15   S    
C107  H38   S    
C96   H32   S    
C84   C89   S    
C110  H7    S    
C78   C87   S    
Cr6   O16   S    
C73   H110  S    
C18   C35   S    
C53   H78   S    
C11   O8    A    
C115  H15   S    
C34   C38   S    
C82   C100  S    
C77   H114  S    
C88   C128  S    
C30   H55   S    
C59   H79   S    
C98   H121  S    
C48   C61   S    
C126  O44   A    
C94   C99   S    
Cr7   O34   S    
C20   I4    S    
Cr12  O27   S    
C19   I3    S    
Cr10  O47   S    
C112  C115  S    
C39   H27   S    
C40   H28   S    
C5    C92   S    
C6    O3    A    
Cr3   O33   S    
C52   O20   A    
C82   H123  S    
C67   C76   S    
C11   O39   A    
C15   H80   S    
C99   H149  S    
C45   C96   S    
C93   C98   S    
C62   C121  S    
C26   H44   S    
