data_mof_unit_43045.cif
_audit_creation_date              2012-12-11T14:20:58-0500
_audit_creation_method            fapswitch 2.2
_symmetry_space_group_name_H-M    P1
_symmetry_Int_Tables_number       1
_space_group_crystal_system       triclinic
_cell_length_a                    11.547876
_cell_length_b                    11.605322
_cell_length_c                    19.494072
_cell_angle_alpha                 90.329774
_cell_angle_beta                  89.378952
_cell_angle_gamma                 59.635614
_cell_volume                      2253.84366299

loop_
_atom_site_label
_atom_site_type_symbol
_atom_type_description
_atom_site_fract_x
_atom_site_fract_y
_atom_site_fract_z
_atom_type_partial_charge
C1    C     C_R   0.640267 0.117590 0.599157 0.546841
C2    C     C_1   0.652147 0.150357 0.668549 0.005117
C3    C     C_R   0.685910 0.602795 0.205968 0.001817
C4    C     C_R   0.612368 0.745869 0.598487 0.541629
C5    C     C_R   0.566840 0.633463 0.243095 -0.016738
C6    C     C_R   0.577938 0.612102 0.313586 0.010211
C7    C     C_R   0.786897 0.612045 0.312150 -0.149839
C8    C     C_R   0.798986 0.582856 0.242239 -0.159872
C9    C     C_R   0.436443 0.692114 0.215010 -0.071448
C10   C     C_R   0.327040 0.707707 0.254970 0.284927
C11   C     C_R   0.349938 0.657328 0.321311 -0.046651
C12   C     C_1   0.640779 0.703569 0.667805 0.008973
C13   C     C_R   0.476841 0.601640 0.348949 -0.146399
C14   C     C_R   0.672064 0.634707 0.347789 0.013057
C15   C     C_R   0.153565 0.183571 0.190146 -0.036970
C16   C     C_R   0.240207 0.145722 0.597892 0.547282
C17   C     C_R   0.210711 0.250770 0.221643 -0.036955
C18   C     C_R   0.188626 0.274699 0.292631 -0.023357
C19   C     C_R   0.140595 0.092856 0.300624 -0.040465
C20   C     C_R   0.121803 0.101659 0.229837 -0.152078
C21   C     C_R   0.267997 0.313260 0.182872 0.265505
C22   C     C_R   0.262408 0.428113 0.209872 0.293928
C23   C     C_1   0.127802 0.198497 0.859494 0.006566
C24   C     C_R   0.209629 0.471304 0.275667 -0.140748
C25   C     C_R   0.173500 0.397167 0.317633 -0.044140
C26   C     C_R   0.177899 0.177277 0.333282 -0.008165
C27   C     C_R   0.655973 0.183883 0.188769 0.016181
C28   C     C_R   0.644555 0.107319 0.400177 0.546100
C29   C     C_R   0.715856 0.051288 0.210328 0.026657
C30   C     C_R   0.740169 0.024682 0.280685 0.025849
C31   C     C_R   0.587034 0.262382 0.304973 -0.157584
C32   C     C_R   0.588509 0.288980 0.236016 -0.138559
C33   C     C_R   0.765037 0.944990 0.162049 -0.083545
C34   C     C_1   0.170779 0.170625 0.727653 -0.029414
C35   C     C_R   0.858247 0.816389 0.181128 -0.094257
C36   C     C_R   0.900279 0.792493 0.248440 -0.088872
C37   C     C_R   0.840389 0.893045 0.298259 -0.066523
C38   C     C_R   0.665484 0.132040 0.328800 0.003345
C39   C     C_R   0.082440 0.230887 0.928852 0.549897
C40   C     C_R   0.623214 0.726415 0.407323 0.546532
C41   C     C_R   0.683940 0.604634 0.929619 0.550348
C42   C     C_R   0.708398 0.206563 0.930229 0.548855
C43   C     C_R   0.085466 0.233000 0.124424 0.545571
C44   C     C_R   0.703311 0.561866 0.133893 0.549300
C45   C     C_1   0.150677 0.182140 0.798976 -0.029915
C46   C     C_R   0.703723 0.210371 0.124915 0.541220
C47   C     C_R   0.240756 0.143830 0.401839 0.547951
C48   C     C_1   0.671096 0.646574 0.860204 0.003634
C49   C     C_1   0.654683 0.683384 0.728293 -0.029133
C50   C     C_1   0.663968 0.666609 0.799648 -0.030349
C51   C     C_1   0.102082 0.461303 0.380787 0.199505
C52   C     C_1   0.105548 0.009226 0.339655 0.252750
C53   C     C_1   0.194025 0.161534 0.667146 0.008250
C54   C     C_1   0.678905 0.190833 0.860940 0.007445
C55   C     C_1   0.657906 0.167671 0.729038 -0.029362
C56   C     C_1   0.665633 0.180770 0.800458 -0.029071
Cr1   Cr    Cr6+3 0.404720 0.198220 0.499960 1.049227
Cr2   Cr    Cr6+3 0.698290 0.897110 0.500380 1.052999
Cr3   Cr    Cr6+3 0.396970 0.904720 0.499610 1.048802
Cr4   Cr    Cr6+3 0.926180 0.151990 0.028120 1.024364
Cr5   Cr    Cr6+3 0.921330 0.451820 0.027470 1.043866
Cr6   Cr    Cr6+3 0.626260 0.446870 0.028710 1.038967
H1    H     H_    0.861811 0.625242 0.337306 0.140747
H2    H     H_    0.893074 0.553659 0.215930 0.138200
H3    H     H_    0.268070 0.669088 0.353753 0.134395
H4    H     H_    0.490177 0.569140 0.401763 0.131126
H5    H     H_    0.076268 0.049536 0.206388 0.167376
H6    H     H_    0.333178 0.464281 0.126380 0.369285
H7    H     H_    0.198847 0.797728 0.182567 0.326708
H8    H     H_    0.344879 0.173615 0.112716 0.317683
H9    H     H_    0.192025 0.566223 0.293554 0.155199
H10   H     H_    0.528440 0.344344 0.340341 0.133115
H11   H     H_    0.737052 0.962859 0.108623 0.128298
H12   H     H_    0.542703 0.391859 0.220202 0.177011
H13   H     H_    0.901512 0.736352 0.143283 0.139320
H14   H     H_    0.977231 0.694236 0.262596 0.119287
H15   H     H_    0.882289 0.864539 0.348441 0.176207
H16   H     H_    0.415104 0.736482 0.164870 0.138888
N1    N     N_1   0.045829 0.512442 0.431489 -0.302563
N2    N     N_1   0.076799 0.943044 0.371266 -0.295962
O1    O     O_R   0.267740 0.231960 0.575440 -0.496056
O2    O     O_R   0.596130 0.579390 0.952730 -0.501122
O3    O     O_R   0.639060 0.321160 0.958670 -0.489130
O4    O     O_R   0.527280 0.186640 0.570530 -0.496095
O5    O     O_R   0.821240 0.124200 0.104370 -0.518281
O6    O     O_R   0.036890 0.167040 0.097840 -0.513782
O7    O     O_R   0.056180 0.349610 0.102880 -0.481544
O8    O     O_R   0.797660 0.564870 0.097950 -0.510284
O9    O     O_R   0.595880 0.584250 0.104270 -0.527313
O10   O     O_R   0.638830 0.325670 0.099150 -0.504903
O11   O     O_3   0.824590 0.350230 0.028100 -0.273731
O12   O     O_R   0.685970 0.784660 0.430010 -0.497092
O13   O     O_R   0.728090 0.003450 0.576380 -0.498520
O14   O     O_R   0.682970 0.789190 0.570490 -0.490878
O15   O     O_R   0.499290 0.771880 0.575530 -0.510417
O16   O     O_R   0.285330 0.030870 0.569730 -0.493651
O17   O     O_R   0.270980 0.227080 0.423890 -0.500092
O18   O     O_R   0.530280 0.182120 0.430050 -0.501409
O19   O     O_R   0.731330 0.998570 0.424830 -0.523805
O20   O     O_3   0.299435 0.505135 0.172320 -0.694155
O21   O     O_3   0.197874 0.770411 0.230565 -0.688986
O22   O     O_3   0.325051 0.266806 0.118547 -0.708155
O23   O     O_R   0.502530 0.767000 0.423990 -0.515052
O24   O     O_R   0.288330 0.026350 0.429250 -0.483214
O25   O     O_3   0.499990 0.000020 0.499980 -0.263255
O26   O     O_R   0.821500 0.119340 0.952830 -0.507637
O27   O     O_R   0.037130 0.162530 0.957360 -0.494985
O28   O     O_R   0.056440 0.344740 0.951340 -0.492812
O29   O     O_R   0.797900 0.560360 0.957470 -0.491029

loop_
_geom_bond_atom_site_label_1
_geom_bond_atom_site_label_2
_ccdc_geom_bond_type
Cr1   O25   S    
C55   C56   S    
C23   C45   T    
C27   C29   A    
C20   H5    S    
C19   C20   A    
C18   C26   A    
Cr6   O3    S    
Cr5   O29   S    
H6    O20   S    
C12   C49   T    
C7    C8    A    
C1    O4    A    
C39   O27   A    
C35   H13   S    
Cr3   O25   S    
Cr3   O24   S    
C36   C37   A    
Cr2   O13   S    
C2    C55   T    
C32   H12   S    
C5    C6    A    
C41   O2    A    
Cr6   O9    S    
C29   C33   A    
C30   C38   A    
C1    C2    S    
Cr5   O28   S    
C19   C26   A    
C16   C53   S    
Cr5   O7    S    
C19   C52   S    
C7    C14   A    
C35   C36   A    
C4    C12   S    
C36   H14   S    
C9    C10   A    
C46   O5    A    
C48   C50   T    
Cr6   O2    S    
C41   O29   A    
C21   C22   A    
C15   C20   A    
C18   C25   A    
Cr3   O15   S    
C15   C43   S    
C13   H4    S    
C39   O28   A    
C54   C56   T    
C3    C44   S    
C16   O16   A    
C22   O20   S    
C42   O3    A    
C24   C25   A    
C3    C8    A    
Cr4   O6    S    
C37   H15   S    
C17   C21   A    
C30   C37   A    
C25   C51   S    
C5    C9    A    
C29   C30   A    
Cr5   O8    S    
C6    C14   A    
C4    O15   A    
C31   C32   A    
C28   C38   S    
Cr1   O17   S    
Cr6   O11   S    
C17   C18   A    
Cr1   O4    S    
C34   C45   S    
C40   O12   A    
C42   O26   A    
C7    H1    S    
Cr4   O27   S    
C26   C47   S    
C8    H2    S    
C4    O14   A    
C21   O22   S    
C28   O19   A    
C33   H11   S    
C31   H10   S    
Cr1   O1    S    
Cr3   O16   S    
Cr4   O26   S    
C27   C46   S    
Cr4   O11   S    
C28   O18   A    
C15   C17   A    
C47   O24   A    
C27   C32   A    
C43   O6    A    
C10   O21   S    
Cr2   O19   S    
C3    C5    A    
Cr4   O5    S    
H8    O22   S    
C46   O10   A    
H7    O21   S    
C47   O17   A    
C31   C38   A    
Cr2   O25   S    
Cr3   O23   S    
Cr2   O14   S    
C43   O7    A    
C44   O8    A    
C42   C54   S    
C6    C13   A    
C11   C13   A    
C23   C39   S    
Cr1   O18   S    
Cr6   O10   S    
C16   O1    A    
C33   C35   A    
C41   C48   S    
C22   C24   A    
C9    H16   S    
C51   N1    T    
C10   C11   A    
C14   C40   S    
Cr5   O11   S    
C34   C53   T    
C1    O13   A    
C49   C50   S    
C52   N2    T    
Cr2   O12   S    
C44   O9    A    
C11   H3    S    
C24   H9    S    
C40   O23   A    
