data_mof_unit_6922.cif
_audit_creation_date              2012-12-10T17:37:24-0500
_audit_creation_method            fapswitch 2.2
_symmetry_space_group_name_H-M    P1
_symmetry_Int_Tables_number       1
_space_group_crystal_system       triclinic
_cell_length_a                    11.97784
_cell_length_b                    12.822455
_cell_length_c                    16.520115
_cell_angle_alpha                 90.883039
_cell_angle_beta                  80.554904
_cell_angle_gamma                 93.521395
_cell_volume                      2498.08819327

loop_
_atom_site_label
_atom_site_type_symbol
_atom_type_description
_atom_site_fract_x
_atom_site_fract_y
_atom_site_fract_z
_atom_type_partial_charge
C1    C     C_R   0.522757 0.700219 0.496533 0.924791
C2    C     C_R   0.526162 0.129825 0.546711 0.062935
C3    C     C_R   0.468174 0.976758 0.470735 0.112534
C4    C     C_R   0.532142 0.023430 0.528936 0.115850
C5    C     C_R   0.957325 0.379780 0.444088 -0.091840
C6    C     C_R   0.043889 0.622512 0.551986 -0.094642
C7    C     C_R   0.841205 0.395111 0.447649 -0.006993
C8    C     C_R   0.159468 0.606500 0.549853 -0.000637
C9    C     C_R   0.857313 0.554657 0.519981 -0.048987
C10   C     C_R   0.142271 0.444096 0.481899 -0.056171
C11   C     C_R   0.975344 0.545893 0.516990 0.016372
C12   C     C_R   0.477254 0.299810 0.503473 0.914436
C13   C     C_R   0.025655 0.455857 0.480033 0.023859
C14   C     C_R   0.483135 0.498233 0.654537 0.857776
C15   C     C_R   0.515749 0.494857 0.345508 0.875638
C16   C     C_R   0.465692 0.467381 0.739699 -0.009938
C17   C     C_R   0.522802 0.460901 0.260859 -0.028131
C18   C     C_R   0.538384 0.506622 0.792136 -0.198989
C19   C     C_R   0.461296 0.508427 0.208520 -0.199853
C20   C     C_R   0.525505 0.468469 0.871536 -0.131852
C21   C     C_R   0.461037 0.468544 0.129947 -0.146431
C22   C     C_R   0.443779 0.386861 0.897480 0.137990
C23   C     C_R   0.462834 0.188852 0.502279 -0.085802
C24   C     C_R   0.517620 0.377535 0.104371 0.143374
C25   C     C_R   0.370891 0.348345 0.844552 -0.167570
C26   C     C_R   0.578423 0.329742 0.157508 -0.183358
C27   C     C_R   0.381002 0.389263 0.766307 -0.165003
C28   C     C_R   0.582032 0.371954 0.235118 -0.203670
C29   C     C_2   0.429774 0.347012 0.982104 -0.107504
C30   C     C_2   0.522270 0.339700 0.018953 -0.098917
C31   C     C_R   0.003271 0.282834 0.404934 0.093362
C32   C     C_R   0.097008 0.287751 0.341160 -0.157658
C33   C     C_R   0.146639 0.196351 0.310509 -0.157026
C34   C     C_R   0.537259 0.811250 0.497584 -0.081504
C35   C     C_R   0.099291 0.099075 0.339515 -0.121835
C36   C     C_R   0.002832 0.093121 0.399973 -0.113782
C37   C     C_R   0.955230 0.184512 0.433066 -0.150513
C38   C     C_R   0.998693 0.719946 0.590286 0.105657
C39   C     C_R   0.950715 0.791488 0.544319 -0.151418
C40   C     C_R   0.906905 0.882415 0.581315 -0.146825
C41   C     C_R   0.912337 0.903510 0.663834 -0.107120
C42   C     C_R   0.961755 0.833753 0.709541 -0.130667
C43   C     C_R   0.005004 0.742366 0.672983 -0.156088
C44   C     C_R   0.634340 0.314443 0.970191 0.120967
C45   C     C_R   0.602011 0.962938 0.566853 -0.195741
C46   C     C_R   0.735293 0.370327 0.982325 -0.179712
C47   C     C_R   0.839209 0.346193 0.936164 -0.138944
C48   C     C_R   0.843612 0.266450 0.877370 -0.103949
C49   C     C_R   0.744118 0.210512 0.864693 -0.114173
C50   C     C_R   0.640033 0.234078 0.910870 -0.110001
C51   C     C_R   0.312539 0.329527 0.028563 0.139886
C52   C     C_R   0.230764 0.403075 0.025829 -0.170108
C53   C     C_R   0.118952 0.382538 0.064683 -0.146522
C54   C     C_R   0.087343 0.287825 0.105165 -0.094089
C55   C     C_R   0.167713 0.213855 0.107303 -0.153324
C56   C     C_R   0.398448 0.037304 0.432697 -0.173866
C57   C     C_R   0.280280 0.235088 0.070309 -0.151197
C58   C     C_R   0.603851 0.857247 0.551561 -0.267679
C59   C     C_R   0.396549 0.142969 0.448046 -0.253991
C60   C     C_R   0.473896 0.870275 0.453176 0.070604
H1    H     H_    0.604069 0.566809 0.771827 0.136876
H2    H     H_    0.579519 0.502618 0.912650 0.136197
H3    H     H_    0.347235 0.189870 0.414624 0.167877
H4    H     H_    0.653272 0.810387 0.584916 0.165989
H5    H     H_    0.654143 0.995248 0.609637 0.175397
H6    H     H_    0.346444 0.005070 0.389803 0.180049
H7    H     H_    0.183691 0.375420 0.457432 0.147030
H8    H     H_    0.814579 0.619304 0.551146 0.140731
H9    H     H_    0.134136 0.362517 0.317325 0.143653
H10   H     H_    0.222345 0.201024 0.264613 0.146297
H11   H     H_    0.137402 0.028349 0.315203 0.136207
H12   H     H_    0.414739 0.576667 0.228161 0.169408
H13   H     H_    0.965960 0.017632 0.421867 0.128739
H14   H     H_    0.882401 0.178653 0.481607 0.144759
H15   H     H_    0.946442 0.776358 0.480178 0.135063
H16   H     H_    0.868252 0.936381 0.546200 0.132754
H17   H     H_    0.878314 0.973924 0.692321 0.127131
H18   H     H_    0.966176 0.850298 0.773418 0.127760
H19   H     H_    0.042353 0.688603 0.709268 0.124423
H20   H     H_    0.733668 0.433472 0.026689 0.139225
H21   H     H_    0.916359 0.389634 0.945783 0.129859
H22   H     H_    0.924126 0.248047 0.841600 0.127613
H23   H     H_    0.212841 0.665000 0.575488 0.148973
H24   H     H_    0.747638 0.148712 0.819120 0.141572
H25   H     H_    0.563855 0.189467 0.900514 0.137388
H26   H     H_    0.253606 0.476123 0.993532 0.129732
H27   H     H_    0.056519 0.439572 0.062624 0.126871
H28   H     H_    0.000488 0.271499 0.134481 0.132413
H29   H     H_    0.142704 0.139838 0.137575 0.136568
H30   H     H_    0.341460 0.176695 0.072008 0.129176
H31   H     H_    0.788080 0.337718 0.420635 0.138912
H32   H     H_    0.627947 0.333184 0.276122 0.145706
H33   H     H_    0.325585 0.357004 0.725346 0.153568
H34   H     H_    0.306809 0.286362 0.863608 0.143609
H35   H     H_    0.623570 0.260481 0.138664 0.143994
H36   H     H_    0.417683 0.509709 0.088790 0.136388
I1    I     I_    0.606266 0.202254 0.642984 -0.445226
I2    I     I_    0.393068 0.797575 0.357443 -0.447538
N1    N     N_R   0.206400 0.519440 0.514690 -0.104983
N2    N     N_R   0.793600 0.480560 0.485310 -0.100723
O1    O     O_R   0.421320 0.658850 0.503920 -0.598277
O2    O     O_R   0.578680 0.341150 0.496080 -0.603381
O3    O     O_R   0.609840 0.646370 0.494500 -0.629879
O4    O     O_R   0.390160 0.353630 0.505500 -0.632237
O5    O     O_R   0.394600 0.506990 0.621070 -0.625731
O6    O     O_R   0.605400 0.493010 0.378930 -0.618658
O7    O     O_R   0.583120 0.494520 0.611640 -0.587307
O8    O     O_R   0.416880 0.505480 0.388360 -0.594353
Zn1   Zn    Zn3+2 0.374120 0.508330 0.506290 0.957041
Zn2   Zn    Zn3+2 0.625880 0.491670 0.493710 0.961335

loop_
_geom_bond_atom_site_label_1
_geom_bond_atom_site_label_2
_ccdc_geom_bond_type
C46   H20   S    
C37   H14   S    
N2    Zn2   S    
C22   C29   S    
C8    H23   S    
C41   C42   A    
C35   C36   A    
C53   C54   A    
C23   C59   A    
C12   C23   S    
O3    Zn2   S    
C15   O6    A    
C36   C37   A    
C19   C21   A    
C8    N1    A    
C24   C26   A    
C12   O4    A    
C60   I2    S    
C41   H17   S    
C38   C39   A    
C43   H19   S    
N1    Zn1   S    
O8    Zn1   S    
C50   H25   S    
C17   C19   A    
C46   C47   A    
C14   O5    A    
C31   C32   A    
C2    I1    S    
C22   C25   A    
C6    C38   S    
C51   C57   A    
C39   H15   S    
C1    O3    A    
C5    C13   A    
C3    C60   A    
C16   C27   A    
C35   H11   S    
C25   H34   S    
C34   C60   A    
C30   C44   S    
C19   H12   S    
C44   C46   A    
C1    C34   S    
C4    C45   A    
C58   H4    S    
C45   C58   A    
C57   H30   S    
C51   C52   A    
C53   H27   S    
C7    N2    A    
C39   C40   A    
C5    C7    A    
C6    C8    A    
C10   H7    S    
C31   C37   A    
C15   O8    A    
C2    C4    A    
C12   O2    A    
C29   C30   D    
C3    C56   A    
C47   C48   A    
C7    H31   S    
C28   H32   S    
C9    C11   A    
C33   H10   S    
C16   C18   A    
C48   C49   A    
C20   C22   A    
C42   H18   S    
C9    N2    A    
C55   C57   A    
C45   H5    S    
O7    Zn2   S    
C14   C16   S    
C27   H33   S    
C42   C43   A    
C3    C4    A    
C1    O1    A    
C6    C11   A    
C52   C53   A    
C49   H24   S    
C29   C51   S    
C44   C50   A    
C26   H35   S    
C15   C17   S    
O5    Zn1   S    
C54   C55   A    
C14   O7    A    
C17   C28   A    
C59   H3    S    
C10   C13   A    
C18   H1    S    
C32   H9    S    
C21   H36   S    
C25   C27   A    
C26   C28   A    
C56   C59   A    
C32   C33   A    
C52   H26   S    
C9    H8    S    
C38   C43   A    
C55   H29   S    
C54   H28   S    
C11   C13   A    
O4    Zn1   S    
C56   H6    S    
C33   C35   A    
C48   H22   S    
C18   C20   A    
C47   H21   S    
C20   H2    S    
C10   N1    A    
C24   C30   S    
O2    Zn2   S    
C36   H13   S    
C40   H16   S    
O6    Zn2   S    
C49   C50   A    
C21   C24   A    
C2    C23   A    
C34   C58   A    
C40   C41   A    
O1    Zn1   S    
C5    C31   S    
