data_mof_unit_6413.cif
_audit_creation_date              2012-10-26T19:59:14-0400
_audit_creation_method            fapswitch 2.2
_symmetry_space_group_name_H-M    P1
_symmetry_Int_Tables_number       1
_space_group_crystal_system       triclinic
_cell_length_a                    7.520382
_cell_length_b                    8.694564
_cell_length_c                    15.810328
_cell_angle_alpha                 95.759921
_cell_angle_beta                  75.348534
_cell_angle_gamma                 103.499996
_cell_volume                      971.592132419

loop_
_atom_site_label
_atom_site_type_symbol
_atom_type_description
_atom_site_fract_x
_atom_site_fract_y
_atom_site_fract_z
_atom_type_partial_charge
C1    C     C_R   0.545160 0.800028 0.502828 0.546063
C2    C     C_R   0.614876 0.512181 0.334173 0.543392
C3    C     C_R   0.316483 0.476602 0.761071 0.002291
C4    C     C_R   0.683687 0.534443 0.239893 0.001443
C5    C     C_R   0.072285 0.384072 0.888284 -0.130763
C6    C     C_R   0.917598 0.658738 0.117321 -0.131684
C7    C     C_R   0.127871 0.411666 0.799216 -0.127517
C8    C     C_R   0.866517 0.617462 0.204388 -0.130894
C9    C     C_R   0.446352 0.521339 0.813455 -0.131526
C10   C     C_R   0.555597 0.487062 0.186869 -0.129999
C11   C     C_R   0.393522 0.497713 0.903800 0.027204
C12   C     C_R   0.454855 0.199972 0.497153 0.546186
C13   C     C_R   0.600681 0.532425 0.099828 0.026737
C14   C     C_R   0.203985 0.423530 0.940303 0.044581
C15   C     C_R   0.786088 0.618387 0.065197 0.042666
C16   C     C_R   0.524761 0.540417 0.957963 0.027618
C17   C     C_R   0.466722 0.496939 0.046925 0.029023
C18   C     C_R   0.275859 0.422664 0.080417 -0.140063
C19   C     C_R   0.711044 0.627172 0.926538 -0.140827
C20   C     C_R   0.147757 0.387566 0.028054 -0.130898
C21   C     C_R   0.838211 0.665391 0.979338 -0.130322
C22   C     C_2   0.569310 0.968445 0.504918 -0.136812
C23   C     C_2   0.430732 0.031552 0.495030 -0.136798
C24   C     C_R   0.385220 0.489032 0.665946 0.543385
Cu1   Cu    Cu3+1 0.322120 0.483240 0.490330 1.060192
Cu2   Cu    Cu3+1 0.677880 0.516760 0.509670 1.059192
H1    H     H_    0.002990 0.331185 0.056661 0.127003
H2    H     H_    0.763132 0.671788 0.861792 0.124521
H3    H     H_    0.701901 0.040747 0.514911 0.156614
H4    H     H_    0.298146 0.959251 0.485030 0.156658
H5    H     H_    0.979127 0.732360 0.952501 0.125252
H6    H     H_    0.420313 0.416243 0.216181 0.135542
H7    H     H_    0.590040 0.568974 0.781165 0.139209
H8    H     H_    0.967544 0.655084 0.244527 0.146470
H9    H     H_    0.025171 0.376764 0.759800 0.147821
H10   H     H_    0.926675 0.329432 0.916340 0.122815
H11   H     H_    0.059268 0.724680 0.091037 0.123577
H12   H     H_    0.218031 0.392550 0.147658 0.126585
I1    I     I_    0.012001 0.699325 0.625493 -0.275422
I2    I     I_    0.988083 0.300894 0.374411 -0.273984
N1    N     N_2   0.945180 0.542040 0.524240 -0.030748
N2    N     N_2   0.054820 0.457960 0.475760 -0.030323
O1    O     O_R   0.384450 0.714270 0.493720 -0.488154
O2    O     O_R   0.615550 0.285730 0.506280 -0.488151
O3    O     O_R   0.684880 0.742590 0.510050 -0.487247
O4    O     O_R   0.315120 0.257410 0.489950 -0.487041
O5    O     O_R   0.265540 0.477900 0.617090 -0.487776
O6    O     O_R   0.734460 0.522100 0.382910 -0.487828
O7    O     O_R   0.565970 0.506210 0.633420 -0.499540
O8    O     O_R   0.434030 0.493790 0.366580 -0.497723

loop_
_geom_bond_atom_site_label_1
_geom_bond_atom_site_label_2
_ccdc_geom_bond_type
Cu1   N2    S    
C2    C4    S    
C23   H4    S    
C3    C9    A    
C22   H3    S    
C10   H6    S    
C9    C11   A    
N1    N2    D    
Cu1   O5    S    
C18   C20   A    
C13   C17   A    
C4    C8    A    
C2    O6    A    
Cu1   O1    S    
I2    N2    S    
C17   C18   A    
C5    C14   A    
C6    H11   S    
Cu2   O2    S    
C1    C22   S    
I1    N1    S    
Cu1   Cu2   S    
C8    H8    S    
C9    H7    S    
C19   H2    S    
C21   H5    S    
C12   C23   S    
C1    O3    A    
C3    C24   S    
C16   C19   A    
C20   H1    S    
C3    C7    A    
C13   C15   A    
C18   H12   S    
C11   C14   A    
C4    C10   A    
C5    H10   S    
C14   C20   A    
C15   C21   A    
Cu2   O6    S    
C12   O4    A    
C11   C16   A    
Cu2   O7    S    
C24   O7    A    
C5    C7    A    
C22   C23   D    
C12   O2    A    
C6    C8    A    
C2    O8    A    
Cu2   O3    S    
C19   C21   A    
C6    C15   A    
Cu1   O8    S    
C24   O5    A    
C7    H9    S    
Cu1   O4    S    
C1    O1    A    
Cu2   N1    S    
C16   C17   A    
C10   C13   A    
