data_mof_unit_55123.cif
_audit_creation_date              2013-03-05T15:55:01-0500
_audit_creation_method            fapswitch 2.2
_symmetry_space_group_name_H-M    P1
_symmetry_Int_Tables_number       1
_space_group_crystal_system       triclinic
_cell_length_a                    6.932423
_cell_length_b                    14.554969
_cell_length_c                    16.192311
_cell_angle_alpha                 90.455318
_cell_angle_beta                  90.144029
_cell_angle_gamma                 89.969695
_cell_volume                      1633.76667819

loop_
_atom_site_label
_atom_site_type_symbol
_atom_site_description
_atom_site_fract_x
_atom_site_fract_y
_atom_site_fract_z
_atom_type_partial_charge
O1    O     O_R   0.505810 0.583360 0.413880 -0.582501
O2    O     O_R   0.175870 0.595480 0.585520 -0.578673
O3    O     O_R   0.005540 0.416640 0.586120 -0.561298
C1    C     C_R   0.344884 0.615374 0.616379 1.029567
O4    O     O_R   0.176100 0.594390 0.414490 -0.565293
O5    O     O_R   0.005770 0.415540 0.413870 -0.609250
C2    C     C_R   0.344543 0.617346 0.386328 0.941937
O6    O     O_R   0.505580 0.584460 0.586130 -0.574452
O7    O     O_3   0.339190 0.441320 0.500000 -0.285565
V1    V     V_3+5 0.064350 0.510890 0.500000 1.270991
O8    O     O_R   0.676050 0.404520 0.414480 -0.613560
C3    C     C_R   0.845033 0.382085 0.385729 0.901558
O9    O     O_R   0.675830 0.405610 0.585510 -0.580704
C4    C     C_R   0.845108 0.386377 0.615772 0.924226
V2    V     V_3+5 0.564340 0.489110 0.500000 1.241387
O10   O     O_3   0.839370 0.558680 0.500000 -0.236608
C5    C     C_2   0.722683 0.210636 0.786699 0.000310
C6    C     C_2   0.886406 0.174062 0.817163 -0.415904
H1    H     H_    0.584756 0.191195 0.812960 0.151177
H2    H     H_    0.023476 0.187928 0.787659 0.181088
C7    C     C_2   0.718187 0.271555 0.713150 -0.223051
C8    C     C_2   0.859364 0.331327 0.692313 0.110123
H3    H     H_    0.590778 0.266215 0.674226 0.152197
C9    C     C_R   0.047456 0.222895 0.219628 -0.124322
H4    H     H_    0.188289 0.204250 0.196067 0.121748
C10   C     C_R   0.036078 0.286899 0.284432 -0.126786
H5    H     H_    0.168774 0.315764 0.308638 0.121100
C11   C     C_R   0.856304 0.313307 0.317352 -0.119207
C12   C     C_R   0.688226 0.273965 0.283616 -0.137701
H6    H     H_    0.547394 0.292609 0.307180 0.119413
C13   C     C_R   0.699605 0.209961 0.218812 -0.115630
H7    H     H_    0.566910 0.181094 0.194605 0.124369
C14   C     C_R   0.879379 0.183559 0.185886 -0.124084
C15   C     C_R   0.209517 0.745598 0.700840 -0.066079
H8    H     H_    0.086431 0.747944 0.659573 0.156989
C16   C     C_R   0.219551 0.809260 0.766106 -0.100583
H9    H     H_    0.103257 0.858302 0.773745 0.123903
C17   C     C_R   0.379429 0.811149 0.819656 -0.185198
C18   C     C_R   0.527017 0.746462 0.807554 -0.235350
H10   H     H_    0.648238 0.745079 0.849896 0.170870
C19   C     C_R   0.514883 0.679521 0.744455 0.387789
C20   C     C_R   0.356711 0.680408 0.688267 -0.302004
C21   C     C_R   0.209758 0.754305 0.307208 0.388312
C22   C     C_R   0.223858 0.816637 0.241671 -0.227776
H11   H     H_    0.112725 0.868408 0.234599 0.154639
C23   C     C_R   0.380077 0.813907 0.186630 -0.183434
C24   C     C_R   0.524142 0.747476 0.198495 -0.109153
H12   H     H_    0.646353 0.743547 0.157075 0.134336
C25   C     C_R   0.509829 0.683872 0.262791 -0.064717
H13   H     H_    0.621039 0.632051 0.268681 0.156980
C26   C     C_R   0.353361 0.685934 0.318145 -0.306302
O11   O     O_R   0.230120 0.912300 0.917180 -0.596822
O12   O     O_R   0.559740 0.902430 0.088770 -0.597563
O13   O     O_R   0.729930 0.081310 0.089370 -0.597239
C27   C     C_R   0.391024 0.880657 0.117661 0.955276
O14   O     O_R   0.559840 0.901330 0.917750 -0.601082
O15   O     O_R   0.730030 0.080210 0.917120 -0.599824
C28   C     C_R   0.390705 0.879395 0.888567 0.950157
O16   O     O_R   0.230020 0.913400 0.089430 -0.595463
O17   O     O_3   0.396460 0.055470 0.003290 -0.273815
V3    V     V_3+5 0.671360 0.985960 0.003250 1.170887
O18   O     O_R   0.059740 0.091300 0.917690 -0.593858
C29   C     C_R   0.891041 0.111496 0.888336 1.010118
O19   O     O_R   0.059640 0.092400 0.088720 -0.600191
C30   C     C_R   0.890657 0.114793 0.117500 0.933889
V4    V     V_3+5 0.171350 0.007820 0.003190 1.174824
O20   O     O_3   0.896380 0.938200 0.003220 -0.274625
N1    N     N_R   0.656849 0.607676 0.742317 0.232929
O21   O     O_R   0.836522 0.626232 0.758784 -0.400766
O22   O     O_R   0.601721 0.522247 0.740410 -0.362453
N2    N     N_R   0.053244 0.764595 0.363957 0.226676
O23   O     O_R   0.904393 0.710689 0.357724 -0.405332
O24   O     O_R   0.039437 0.839515 0.407862 -0.410089
N3    N     N_R   0.016597 0.350994 0.748093 0.252125
O25   O     O_R   0.192539 0.356387 0.720746 -0.385356
O26   O     O_R   0.981200 0.374200 0.824359 -0.322229

loop_
_geom_bond_atom_site_label_1
_geom_bond_atom_site_label_2
_geom_bond_distance
_ccdc_geom_bond_type
C27   O16   1.297002 A    
C19   C20   1.423175 A    
C15   C20   1.407102 A    
C1    O6    1.296960 A    
C14   C30   1.488900 S    
C24   C25   1.402402 A    
O13   C30   1.296519 A    
C10   H5    1.082753 S    
O18   C29   1.295799 A    
N3    O26   1.301583 A    
C3    C11   1.488890 S    
C11   C12   1.405879 A    
C9    C10   1.399977 A    
O16   V4    2.007765 S    
O5    C3    1.296491 A    
C17   C18   1.403118 A    
C6    C29   1.474776 S    
V2    O10   2.159305 S    
C15   H8    1.083153 S    
C17   C28   1.489921 S    
O8    V2    2.002613 S    
C24   H12   1.083083 S    
N1    O21   1.301160 A    
C25   C26   1.408995 A    
C23   C27   1.488140 S    
C13   C14   1.408784 A    
O1    V2    2.004506 S    
O7    V1    2.157195 S    
C6    H2    1.084390 S    
V4    O20   2.159282 S    
O17   V4    1.708058 S    
O9    C4    1.301746 A    
O12   V3    2.006886 S    
C22   C23   1.404618 A    
O15   C29   1.294990 A    
C19   N1    1.435892 S    
O12   C27   1.301065 A    
N3    O25   1.301264 A    
O18   V4    2.003008 S    
C9    H4    1.082742 S    
C18   C19   1.408592 A    
C18   H10   1.083496 S    
N2    O24   1.300615 A    
C5    C7    1.490652 S    
O17   V3    2.157152 S    
O19   V4    2.002635 S    
O2    C1    1.304402 A    
C21   C22   1.405242 A    
C12   H6    1.082743 S    
V3    O20   1.707475 S    
C13   H7    1.082753 S    
C5    C6    1.347460 D    
O3    C4    1.291531 A    
O11   C28   1.296863 A    
O6    V2    2.002121 S    
C7    H3    1.086229 S    
C8    N3    1.441215 S    
O2    V1    1.999915 S    
O11   V4    2.002495 S    
C22   H11   1.083871 S    
O4    C2    1.299483 A    
C23   C24   1.403642 A    
C16   H9    1.083167 S    
C21   N2    1.430633 S    
O1    C2    1.301538 A    
O5    V1    2.000741 S    
O8    C3    1.302158 A    
O15   V3    2.006528 S    
O13   V3    2.000616 S    
C10   C11   1.408782 A    
C9    C14   1.405877 A    
O19   C30   1.302172 A    
C4    C8    1.484222 S    
O9    V2    2.002976 S    
O7    V2    1.709148 S    
C2    C26   1.495716 S    
N2    O23   1.299873 A    
C12   C13   1.399988 A    
O3    V1    2.006613 S    
V1    O10   1.707399 S    
C21   C26   1.419008 A    
C1    C20   1.496582 S    
C16   C17   1.405653 A    
C5    H1    1.085996 S    
O14   C28   1.302010 A    
C15   C16   1.401579 A    
O4    V1    2.006857 S    
N1    O22   1.301126 A    
C25   H13   1.082828 S    
O14   V3    2.000049 S    
C7    C8    1.354909 D    
