data_mof_unit_58286.cif
_audit_creation_date              2012-12-10T16:54:53-0500
_audit_creation_method            fapswitch 2.2
_symmetry_space_group_name_H-M    P1
_symmetry_Int_Tables_number       1
_space_group_crystal_system       triclinic
_cell_length_a                    7.772971
_cell_length_b                    8.578993
_cell_length_c                    15.716144
_cell_angle_alpha                 90.839293
_cell_angle_beta                  85.852338
_cell_angle_gamma                 93.628073
_cell_volume                      1043.12639894

loop_
_atom_site_label
_atom_site_type_symbol
_atom_type_description
_atom_site_fract_x
_atom_site_fract_y
_atom_site_fract_z
_atom_type_partial_charge
C1    C     C_R   0.545763 0.794722 0.497812 0.960589
C2    C     C_2   0.430156 0.041804 0.503436 -0.382258
C3    C     C_R   0.502016 0.500026 0.661607 0.905913
C4    C     C_R   0.454237 0.205278 0.502188 0.960569
C5    C     C_R   0.497983 0.499968 0.338392 0.905915
C6    C     C_3   0.351387 0.593059 0.955413 -0.398192
C7    C     C_3   0.675062 0.576335 0.946781 -0.399805
C8    C     C_3   0.670987 0.576645 0.045106 -0.397329
C9    C     C_1   0.493877 0.500354 0.249604 -0.182252
C10   C     C_3   0.503432 0.499707 0.917314 0.370771
C11   C     C_3   0.347307 0.593336 0.053738 -0.397938
C12   C     C_3   0.496566 0.500203 0.082685 0.370556
C13   C     C_3   0.475561 0.330289 0.048644 -0.400904
C14   C     C_3   0.479672 0.329993 0.950314 -0.398853
C15   C     C_1   0.493535 0.500415 0.174234 -0.129311
C16   C     C_1   0.506461 0.499512 0.825765 -0.129251
C17   C     C_1   0.506118 0.499605 0.750395 -0.182254
C18   C     C_2   0.569844 0.958196 0.496565 -0.382281
H1    H     H_    0.226599 0.540094 0.934600 0.165543
H2    H     H_    0.694846 0.698449 0.923334 0.165009
H3    H     H_    0.688892 0.698927 0.069108 0.165347
H4    H     H_    0.357106 0.272562 0.929387 0.165134
H5    H     H_    0.587519 0.260680 0.923399 0.165417
H6    H     H_    0.351023 0.273025 0.075173 0.164936
H7    H     H_    0.359766 0.715869 0.077927 0.165792
H8    H     H_    0.780234 0.511651 0.065563 0.165080
H9    H     H_    0.220646 0.540421 0.080365 0.165883
H10   H     H_    0.581424 0.261084 0.069189 0.165013
H11   H     H_    0.701788 0.009222 0.490010 0.180505
H12   H     H_    0.298212 0.990778 0.509992 0.180510
H13   H     H_    0.013406 0.381933 0.436576 0.191585
H14   H     H_    0.986594 0.618067 0.563424 0.191611
H15   H     H_    0.365727 0.715488 0.932155 0.165212
H16   H     H_    0.786160 0.511120 0.919793 0.165920
N1    N     N_2   0.950340 0.457950 0.477370 -0.173529
N2    N     N_2   0.049660 0.542050 0.522630 -0.173520
O1    O     O_R   0.389240 0.738570 0.505550 -0.612977
O2    O     O_R   0.678400 0.711630 0.491050 -0.631126
O3    O     O_R   0.355360 0.513470 0.630110 -0.613559
O4    O     O_R   0.644510 0.486530 0.615610 -0.622018
O5    O     O_R   0.321600 0.288370 0.508950 -0.631143
O6    O     O_R   0.610760 0.261430 0.494450 -0.612995
O7    O     O_R   0.355490 0.513470 0.384390 -0.622010
O8    O     O_R   0.644640 0.486530 0.369890 -0.613572
Zn1   Zn    Zn3+2 0.306930 0.517990 0.509680 0.942140
Zn2   Zn    Zn3+2 0.693070 0.482010 0.490320 0.942124

loop_
_geom_bond_atom_site_label_1
_geom_bond_atom_site_label_2
_ccdc_geom_bond_type
C14   H5    S    
C6    C10   S    
C7    C10   S    
C2    C4    S    
C11   C12   S    
C6    H15   S    
C13   H10   S    
C5    C9    S    
C1    O1    A    
C8    C12   S    
C2    C18   D    
C8    H8    S    
N1    N2    D    
C12   C15   S    
C11   H9    S    
O3    Zn1   S    
C14   H4    S    
C8    H3    S    
C5    O7    A    
C3    O3    A    
N2    Zn1   S    
C18   H11   S    
C10   C16   S    
C13   C14   S    
O4    Zn2   S    
C6    H1    S    
O7    Zn1   S    
C1    C18   S    
C4    O6    A    
C1    O2    A    
H14   N2    S    
C5    O8    A    
O8    Zn2   S    
C3    O4    A    
C3    C17   S    
C10   C14   S    
C7    H16   S    
H13   N1    S    
O2    Zn2   S    
C4    O5    A    
C11   H7    S    
O1    Zn1   S    
C7    C8    S    
C2    H12   S    
C12   C13   S    
C7    H2    S    
O6    Zn2   S    
C6    C11   S    
O5    Zn1   S    
C9    C15   T    
N1    Zn2   S    
C13   H6    S    
C16   C17   T    
