data_mof_unit_12635.cif
_audit_creation_date              2012-12-10T18:54:30-0500
_audit_creation_method            fapswitch 2.2
_symmetry_space_group_name_H-M    P1
_symmetry_Int_Tables_number       1
_space_group_crystal_system       triclinic
_cell_length_a                    19.414356
_cell_length_b                    18.270392
_cell_length_c                    9.073338
_cell_angle_alpha                 89.991515
_cell_angle_beta                  92.005546
_cell_angle_gamma                 89.994744
_cell_volume                      3216.41312796

loop_
_atom_site_label
_atom_site_type_symbol
_atom_type_description
_atom_site_fract_x
_atom_site_fract_y
_atom_site_fract_z
_atom_type_partial_charge
C1    C     C_R   0.367556 0.500006 0.500043 0.838770
C2    C     C_R   0.632477 0.499999 0.500125 0.837162
C3    C     C_R   0.456305 0.722331 0.405564 0.420897
C4    C     C_R   0.543692 0.277673 0.594464 0.420407
C5    C     C_R   0.543758 0.722304 0.594323 0.420205
C6    C     C_R   0.456374 0.277684 0.405418 0.421337
C7    C     C_R   0.455974 0.799331 0.404559 -0.289500
C8    C     C_R   0.544121 0.200675 0.595299 -0.289950
C9    C     C_R   0.544180 0.799301 0.595167 -0.290150
C10   C     C_R   0.456039 0.200684 0.404436 -0.289314
C11   C     C_R   0.500093 0.839217 0.499838 0.015394
C12   C     C_R   0.500098 0.160776 0.499845 0.015511
C13   C     C_R   0.510017 0.961509 0.631871 -0.171372
C14   C     C_R   0.490237 0.038478 0.367766 -0.171416
C15   C     C_R   0.490231 0.961531 0.367766 -0.171389
C16   C     C_R   0.510016 0.038455 0.631874 -0.171371
C17   C     C_R   0.500123 0.078316 0.499823 0.147177
C18   C     C_R   0.500118 0.921674 0.499820 0.147264
C19   C     C_R   0.499919 0.500003 0.220610 0.874665
C20   C     C_R   0.500082 0.499997 0.779390 0.874651
C21   C     C_1   0.499971 0.500005 0.065539 -0.112468
C22   C     C_1   0.500030 0.499996 0.934461 -0.112353
C23   C     C_R   0.744542 0.433738 0.502612 -0.151507
C24   C     C_R   0.255583 0.566219 0.504799 -0.181094
C25   C     C_R   0.255443 0.433841 0.496542 -0.182899
C26   C     C_R   0.744458 0.566283 0.498804 -0.150920
C27   C     C_R   0.816836 0.432509 0.503758 0.145777
C28   C     C_R   0.183553 0.567174 0.504580 0.146295
C29   C     C_R   0.183425 0.432886 0.496585 0.144604
C30   C     C_R   0.816748 0.567536 0.499576 0.145779
C31   C     C_R   0.852653 0.500025 0.501819 -0.029732
C32   C     C_R   0.147150 0.500031 0.500610 0.017244
C33   C     C_R   0.708330 0.500004 0.500456 -0.130279
C34   C     C_R   0.291811 0.500025 0.500426 -0.104654
C35   C     C_R   0.961831 0.496850 0.367606 -0.196309
C36   C     C_R   0.038170 0.503212 0.634916 -0.180648
C37   C     C_R   0.033541 0.496808 0.367280 -0.178230
C38   C     C_R   0.966458 0.503173 0.635242 -0.194154
C39   C     C_R   0.071703 0.500035 0.500934 0.099654
C40   C     C_R   0.928277 0.500024 0.501581 0.086065
Cu1   Cu    Cu3+1 0.500000 0.573360 0.500000 1.030137
Cu2   Cu    Cu3+1 0.500000 0.426640 0.500000 1.030366
H1    H     H_    0.715677 0.383252 0.503275 0.197049
H2    H     H_    0.283302 0.617706 0.508142 0.189111
H3    H     H_    0.283050 0.382341 0.493928 0.191189
H4    H     H_    0.715522 0.616755 0.496607 0.195998
H5    H     H_    0.932418 0.494425 0.264052 0.138824
H6    H     H_    0.067570 0.505515 0.738490 0.135981
H7    H     H_    0.059352 0.494456 0.263468 0.136640
H8    H     H_    0.940632 0.505576 0.739037 0.139425
H9    H     H_    0.420239 0.827767 0.330304 0.170813
H10   H     H_    0.579855 0.172255 0.669582 0.170661
H11   H     H_    0.579957 0.827709 0.669344 0.170661
H12   H     H_    0.420350 0.172267 0.330079 0.170659
H13   H     H_    0.516603 0.933203 0.736228 0.139422
H14   H     H_    0.483651 0.066782 0.263408 0.139384
H15   H     H_    0.483637 0.933241 0.263412 0.139358
H16   H     H_    0.516598 0.066738 0.736237 0.139435
N1    N     N_R   0.500000 0.683620 0.500000 -0.216842
N2    N     N_R   0.500000 0.316380 0.500000 -0.216253
O1    O     O_R   0.400190 0.561980 0.499980 -0.563647
O2    O     O_R   0.599810 0.438020 0.500020 -0.564114
O3    O     O_R   0.599810 0.561980 0.500020 -0.563959
O4    O     O_R   0.400190 0.438020 0.499980 -0.563782
O5    O     O_R   0.500000 0.561940 0.288400 -0.548542
O6    O     O_R   0.500000 0.438060 0.711600 -0.547868
O7    O     O_R   0.500000 0.561940 0.711600 -0.548312
O8    O     O_R   0.500000 0.438060 0.288400 -0.547857
C41   C     C_3   0.857345 0.360832 0.507177 -0.391651
C42   C     C_3   0.814704 0.290511 0.512399 -0.828997
H17   H     H_    0.783723 0.289336 0.613020 0.272312
H18   H     H_    0.780482 0.285651 0.412185 0.255653
H19   H     H_    0.849864 0.242551 0.515959 0.245725
H20   H     H_    0.889048 0.358184 0.407685 0.210964
H21   H     H_    0.893030 0.361061 0.605670 0.212042
C43   C     C_3   0.147592 0.640767 0.508030 -0.410822
C44   C     C_3   0.151132 0.673115 0.663126 -0.806967
H22   H     H_    0.125751 0.635933 0.741421 0.249980
H23   H     H_    0.205580 0.681775 0.700760 0.257558
H24   H     H_    0.124138 0.726694 0.663019 0.243780
H25   H     H_    0.172506 0.679036 0.430897 0.212499
H26   H     H_    0.092744 0.636987 0.470198 0.213492
C45   C     C_3   0.147388 0.359277 0.492705 -0.417077
C46   C     C_3   0.146865 0.326635 0.337886 -0.791128
H27   H     H_    0.119443 0.363715 0.258545 0.247497
H28   H     H_    0.200343 0.317844 0.301910 0.271226
H29   H     H_    0.119830 0.273083 0.337571 0.240018
H30   H     H_    0.174378 0.321182 0.570894 0.204989
H31   H     H_    0.093502 0.363074 0.528841 0.213893
C47   C     C_3   0.857158 0.639230 0.497871 -0.390643
C48   C     C_3   0.814381 0.709587 0.495787 -0.829958
H32   H     H_    0.780365 0.712032 0.394891 0.255853
H33   H     H_    0.783175 0.713168 0.595852 0.271264
H34   H     H_    0.849459 0.757581 0.495041 0.246045
H35   H     H_    0.892319 0.641111 0.597113 0.213150
H36   H     H_    0.889409 0.639760 0.399056 0.210122
Br1   Br    Br    0.392600 0.676238 0.268832 -0.519531
Br2   Br    Br    0.607278 0.323741 0.731480 -0.524737
Br3   Br    Br    0.607454 0.676200 0.731108 -0.523159
Br4   Br    Br    0.392779 0.323771 0.268383 -0.526473

loop_
_geom_bond_atom_site_label_1
_geom_bond_atom_site_label_2
_ccdc_geom_bond_type
C15   C18   A    
C14   H14   S    
C11   C18   S    
C4    Br2   S    
Cu1   Cu2   S    
C20   O7    A    
C46   H29   S    
Cu1   O1    S    
C30   C47   S    
C35   H5    S    
C47   H35   S    
Cu1   O7    S    
C44   H22   S    
C7    C11   A    
C13   C18   A    
C20   O6    A    
C35   C37   A    
C46   H28   S    
C29   C45   S    
C29   C32   A    
C3    C7    A    
C30   C31   A    
C25   H3    S    
C23   H1    S    
C31   C40   S    
C32   C39   S    
C5    Br3   S    
C16   C17   A    
C23   C33   A    
C12   C17   S    
C36   H6    S    
C42   H17   S    
C23   C27   A    
Cu2   O2    S    
C27   C41   S    
C4    C8    A    
C25   C34   A    
C45   H30   S    
C21   C22   T    
Cu2   O8    S    
C15   H15   S    
C14   C17   A    
C1    C34   S    
C44   H23   S    
C25   C29   A    
C45   H31   S    
C5    N1    A    
C27   C31   A    
C6    N2    A    
C28   C32   A    
C43   C44   S    
Cu1   N1    S    
C43   H26   S    
C48   H32   S    
Cu1   O5    S    
C24   C34   A    
C19   O8    A    
C6    Br4   S    
C5    C9    A    
C48   H33   S    
C37   H7    S    
C3    Br1   S    
C26   C33   A    
C45   C46   S    
C8    C12   A    
C4    N2    A    
C42   H19   S    
C41   H20   S    
C16   H16   S    
C46   H27   S    
C9    C11   A    
C10   C12   A    
C2    C33   S    
C20   C22   S    
C26   C30   A    
C24   H2    S    
C9    H11   S    
Cu1   O3    S    
C41   H21   S    
Cu2   N2    S    
C28   C43   S    
C1    O4    A    
Cu2   O4    S    
C2    O3    A    
C44   H24   S    
C8    H10   S    
C19   C21   S    
C36   C39   A    
C24   C28   A    
C1    O1    A    
C43   H25   S    
C6    C10   A    
C47   H36   S    
C38   H8    S    
C36   C38   A    
C35   C40   A    
C7    H9    S    
C37   C39   A    
C48   H34   S    
C38   C40   A    
C47   C48   S    
C19   O5    A    
C41   C42   S    
C10   H12   S    
C26   H4    S    
C13   C16   A    
Cu2   O6    S    
C14   C15   A    
C42   H18   S    
C2    O2    A    
C13   H13   S    
C3    N1    A    
