data_mof_unit_45431.cif
_audit_creation_date              2012-12-10T17:42:17-0500
_audit_creation_method            fapswitch 2.2
_symmetry_space_group_name_H-M    P1
_symmetry_Int_Tables_number       1
_space_group_crystal_system       triclinic
_cell_length_a                    15.026336
_cell_length_b                    13.699987
_cell_length_c                    10.729445
_cell_angle_alpha                 90.096403
_cell_angle_beta                  89.712296
_cell_angle_gamma                 89.355005
_cell_volume                      2208.59893152

loop_
_atom_site_label
_atom_site_type_symbol
_atom_type_description
_atom_site_fract_x
_atom_site_fract_y
_atom_site_fract_z
_atom_type_partial_charge
C1    C     C_R   0.328848 0.500562 0.500171 0.808289
C2    C     C_R   0.049447 0.409646 0.698205 -0.224584
C3    C     C_R   0.094937 0.454819 0.600729 0.128372
C4    C     C_R   0.500216 0.499792 0.259648 0.749990
C5    C     C_R   0.047122 0.504186 0.506521 0.085448
C6    C     C_R   0.093144 0.554741 0.412017 0.093008
C7    C     C_R   0.045916 0.604459 0.319377 -0.258264
C8    C     C_R   0.952979 0.604236 0.318897 0.000179
C9    C     C_R   0.187666 0.452624 0.596734 -0.257052
C10   C     C_R   0.232665 0.502135 0.502381 -0.056639
C11   C     C_R   0.186027 0.554450 0.411581 -0.240952
C12   C     C_3   0.584220 0.551475 0.927607 -0.360422
C13   C     C_R   0.452615 0.794066 0.588958 0.011881
C14   C     C_R   0.453334 0.207333 0.589690 0.007390
C15   C     C_R   0.547225 0.792675 0.410915 0.014466
C16   C     C_R   0.545294 0.205918 0.408974 -0.020906
C17   C     C_R   0.547805 0.895712 0.408237 -0.005719
C18   C     C_R   0.546679 0.102884 0.407111 0.005415
C19   C     C_R   0.671257 0.499368 0.502924 0.873970
C20   C     C_R   0.499555 0.948207 0.499568 0.084286
C21   C     C_R   0.499237 0.051821 0.499248 0.079269
C22   C     C_R   0.451691 0.897136 0.591286 -0.004433
C23   C     C_R   0.813127 0.551751 0.415402 -0.325069
C24   C     C_R   0.451846 0.104321 0.591441 -0.005013
C25   C     C_R   0.595278 0.947289 0.316798 -0.199375
C26   C     C_R   0.594579 0.049922 0.316105 -0.201730
C27   C     C_R   0.404498 0.052761 0.682999 -0.203542
C28   C     C_R   0.404248 0.950131 0.682752 -0.200714
C29   C     C_R   0.500221 0.499879 0.740370 0.770054
C30   C     C_3   0.416126 0.552693 0.072620 -0.374894
C31   C     C_3   0.500843 0.392854 0.071108 -0.368875
C32   C     C_3   0.416132 0.552737 0.928801 -0.387784
C33   C     C_3   0.500894 0.392907 0.928426 -0.371861
C34   C     C_R   0.767918 0.498026 0.505561 -0.143921
C35   C     C_3   0.584206 0.551449 0.071489 -0.385773
C36   C     C_3   0.500362 0.499202 0.121776 0.159227
C37   C     C_3   0.500375 0.499307 0.878239 0.152417
C38   C     C_1   0.907718 0.656586 0.220463 0.217912
C39   C     C_3   0.784448 0.292579 0.684046 0.022039
C40   C     C_3   0.699907 0.236072 0.655995 -0.290874
C41   C     C_3   0.712639 0.126973 0.679619 -0.935444
C42   C     C_R   0.814083 0.444280 0.596827 0.389925
C43   C     C_R   0.907821 0.451406 0.601910 0.012748
C44   C     C_R   0.953550 0.502743 0.506803 -0.010531
C45   C     C_R   0.906104 0.553121 0.412612 0.061807
C46   C     C_R   0.956907 0.409737 0.700247 -0.201154
Cu1   Cu    Cu3+1 0.499990 0.597420 0.500010 0.936208
Cu2   Cu    Cu3+1 0.499990 0.402580 0.500010 0.925973
H1    H     H_    0.414030 0.629358 0.107129 0.171600
H2    H     H_    0.581716 0.246138 0.338959 0.123598
H3    H     H_    0.632835 0.908276 0.245697 0.142525
H4    H     H_    0.631663 0.087849 0.244544 0.135331
H5    H     H_    0.367619 0.091783 0.754773 0.134297
H6    H     H_    0.367102 0.912227 0.754270 0.136082
H7    H     H_    0.355210 0.516090 0.107801 0.148890
H8    H     H_    0.441185 0.353392 0.105495 0.172141
H9    H     H_    0.355245 0.516094 0.894278 0.148095
H10   H     H_    0.441326 0.353349 0.894555 0.158356
H11   H     H_    0.414015 0.629415 0.894683 0.166517
H12   H     H_    0.560813 0.352532 0.104789 0.162011
H13   H     H_    0.560951 0.352706 0.893883 0.173483
H14   H     H_    0.585693 0.628086 0.105994 0.170141
H15   H     H_    0.645412 0.513928 0.105841 0.155004
H16   H     H_    0.585727 0.628116 0.893462 0.174565
H17   H     H_    0.645398 0.513887 0.892225 0.182796
H18   H     H_    0.774733 0.591065 0.346044 0.163237
H19   H     H_    0.924579 0.376874 0.779571 0.160689
H20   H     H_    0.808056 0.270860 0.778075 0.157935
H21   H     H_    0.836709 0.270015 0.615047 0.129573
H22   H     H_    0.644049 0.264026 0.714746 0.234229
H23   H     H_    0.085488 0.374493 0.773336 0.140925
H24   H     H_    0.683171 0.246788 0.556628 0.232164
H25   H     H_    0.766679 0.097024 0.619229 0.260520
H26   H     H_    0.650163 0.088157 0.658132 0.267473
H27   H     H_    0.729386 0.113636 0.778896 0.254717
H28   H     H_    0.225054 0.414040 0.667942 0.126955
H29   H     H_    0.222228 0.592995 0.339442 0.134657
H30   H     H_    0.081577 0.643365 0.247008 0.148296
H31   H     H_    0.415563 0.753809 0.658301 0.124266
H32   H     H_    0.417099 0.248650 0.659883 0.121611
H33   H     H_    0.584488 0.751338 0.341768 0.125827
N1    N     N_R   0.499930 0.743810 0.499950 -0.182922
N2    N     N_R   0.499930 0.256190 0.499950 -0.186699
N3    N     N_1   0.871474 0.698447 0.141669 -0.300832
O1    O     O_R   0.370250 0.582280 0.500040 -0.579358
O2    O     O_R   0.370250 0.417720 0.500040 -0.575960
O3    O     O_R   0.499970 0.582270 0.317700 -0.595613
O4    O     O_R   0.499970 0.417730 0.317700 -0.593772
O5    O     O_R   0.629730 0.582260 0.499980 -0.581780
O6    O     O_R   0.629730 0.417740 0.499980 -0.579532
O7    O     O_R   0.500000 0.582270 0.682320 -0.592622
O8    O     O_R   0.500000 0.417730 0.682320 -0.598693
O9    O     O_3   0.765497 0.394415 0.686781 -0.625472

loop_
_geom_bond_atom_site_label_1
_geom_bond_atom_site_label_2
_ccdc_geom_bond_type
C13   H31   S    
C33   H10   S    
C23   C45   A    
C18   C21   A    
C39   H20   S    
C35   C36   S    
C18   C26   A    
C24   C27   A    
C4    C36   S    
C7    C8    A    
C15   H33   S    
C4    O3    A    
C2    C46   A    
C40   H22   S    
C3    C9    A    
C14   N2    A    
C23   H18   S    
C16   H2    S    
C5    C6    A    
C12   H16   S    
C42   O9    S    
C17   C20   A    
Cu1   N1    S    
C14   C24   A    
C12   C37   S    
C8    C45   A    
C39   O9    S    
C11   H29   S    
C41   H26   S    
C34   C42   A    
Cu2   O4    S    
C9    H28   S    
C14   H32   S    
C31   H8    S    
C9    C10   A    
Cu2   O6    S    
Cu1   O5    S    
C8    C38   S    
C32   H9    S    
C15   N1    A    
C1    O1    A    
C6    C11   A    
C28   H6    S    
C25   C26   A    
C13   N1    A    
C16   N2    A    
C33   C37   S    
Cu1   O3    S    
C31   H12   S    
C43   C44   A    
C25   H3    S    
C19   O5    A    
C26   H4    S    
C41   H27   S    
Cu1   Cu2   S    
C23   C34   A    
C31   C33   S    
C39   H21   S    
C32   C37   S    
C12   C35   S    
C7    H30   S    
C33   H13   S    
C40   C41   S    
C5    C44   A    
C20   C22   A    
Cu2   O2    S    
C42   C43   A    
C2    H23   S    
Cu1   O1    S    
C29   O7    A    
C44   C45   A    
C12   H17   S    
C1    O2    A    
C15   C17   A    
C40   H24   S    
C38   N3    T    
Cu1   O7    S    
C30   H1    S    
C1    C10   S    
C3    C5    A    
C19   C34   S    
C35   H15   S    
C27   H5    S    
C6    C7    A    
C4    O4    A    
C30   H7    S    
Cu2   N2    S    
C30   C36   S    
C17   C25   A    
C2    C3    A    
C46   H19   S    
C19   O6    A    
C30   C32   S    
C13   C22   A    
C35   H14   S    
C43   C46   A    
C10   C11   A    
C41   H25   S    
C39   C40   S    
C20   C21   A    
C16   C18   A    
Cu2   O8    S    
C21   C24   A    
C29   C37   S    
C27   C28   A    
C31   C36   S    
C22   C28   A    
C32   H11   S    
C29   O8    A    
