data_mof_unit_56842.cif
_audit_creation_date              2012-12-11T16:48:32-0500
_audit_creation_method            fapswitch 2.2
_symmetry_space_group_name_H-M    P1
_symmetry_Int_Tables_number       1
_space_group_crystal_system       triclinic
_cell_length_a                    17.349376
_cell_length_b                    24.364975
_cell_length_c                    15.061628
_cell_angle_alpha                 89.912129
_cell_angle_beta                  125.790293
_cell_angle_gamma                 90.251806
_cell_volume                      5164.46433207

loop_
_atom_site_label
_atom_site_type_symbol
_atom_type_description
_atom_site_fract_x
_atom_site_fract_y
_atom_site_fract_z
_atom_type_partial_charge
C1    C     C_R   0.310468 0.376956 0.907495 -0.139024
C2    C     C_R   0.526681 0.500611 0.701550 0.002326
C3    C     C_R   0.059840 0.847264 0.911605 -0.135910
C4    C     C_R   0.313787 0.359695 0.996090 0.097051
C5    C     C_R   0.621211 0.316757 0.005337 0.089452
C6    C     C_R   0.811676 0.859889 0.995398 0.084862
C7    C     C_R   0.125838 0.818350 0.004966 0.095117
C8    C     C_3   0.094174 0.635861 0.838211 -1.035395
C9    C     C_3   0.697780 0.770944 0.193955 -1.046787
C10   C     C_3   0.592166 0.132952 0.842846 -1.031132
C11   C     C_3   0.163849 0.277656 0.161571 -1.039181
C12   C     C_3   0.836754 0.341507 0.097570 -0.915370
C13   C     C_R   0.072874 0.000835 0.369871 0.016467
C14   C     C_3   0.187095 0.280415 0.721612 -0.973852
C15   C     C_3   0.347735 0.837836 0.117340 -0.931773
C16   C     C_3   0.551963 0.887826 0.812529 -0.915828
C17   C     C_3   0.887976 0.296355 0.278433 -1.026730
C18   C     C_3   0.319808 0.237344 0.904191 -0.981923
C19   C     C_3   0.382241 0.792169 0.290658 -1.035216
C20   C     C_3   0.571423 0.827681 0.687870 -1.032451
C21   C     C_1   0.425923 0.742908 0.089058 0.114917
C22   C     C_1   0.447692 0.796828 0.815638 0.120049
C23   C     C_1   0.910067 0.248089 0.057623 0.117298
C24   C     C_R   0.038244 0.001294 0.711390 -0.002889
C25   C     C_1   0.059342 0.204438 0.714170 0.063101
C26   C     C_1   0.594831 0.399889 0.345042 0.005162
C27   C     C_1   0.501891 0.398432 0.701835 -0.004456
C28   C     C_1   0.091201 0.900336 0.345740 -0.004446
C29   C     C_1   0.991621 0.901303 0.688799 -0.004490
C30   C     C_3   0.238196 0.600079 0.649569 -1.086395
C31   C     C_3   0.810333 0.598697 0.307155 -1.083760
C32   C     C_3   0.746516 0.099517 0.648116 -1.075259
C33   C     C_3   0.300271 0.099226 0.331448 -1.081974
C34   C     C_R   0.195205 0.498833 0.636257 0.105502
C35   C     C_R   0.824306 0.498037 0.272271 0.096749
C36   C     C_R   0.704690 0.997628 0.630113 0.110900
C37   C     C_R   0.326653 0.997820 0.311193 0.094234
C38   C     C_2   0.977718 0.452305 0.364928 -0.116304
C39   C     C_2   0.077629 0.455348 0.459465 -0.121565
C40   C     C_2   0.478277 0.955347 0.379720 -0.128475
C41   C     C_R   0.647660 0.348469 0.093058 -0.141777
C42   C     C_2   0.580238 0.951065 0.464257 -0.118121
C43   C     C_2   0.925441 0.497683 0.319536 -0.183431
C44   C     C_2   0.110795 0.499824 0.524223 -0.174540
C45   C     C_2   0.429102 0.996379 0.383945 -0.175436
C46   C     C_2   0.631478 0.996588 0.512681 -0.186372
C47   C     C_R   0.297416 0.706636 0.099085 -0.072747
C48   C     C_R   0.611784 0.762278 0.895610 -0.079332
C49   C     C_R   0.798100 0.209158 0.092152 -0.073233
C50   C     C_R   0.131804 0.251017 0.891010 -0.040764
C51   C     C_R   0.251194 0.670344 0.010254 0.026881
C52   C     C_R   0.811999 0.873155 0.906518 -0.135603
C53   C     C_R   0.630432 0.744305 0.994839 0.038034
C54   C     C_R   0.750460 0.170808 0.007617 0.027282
C55   C     C_R   0.134287 0.239913 0.984183 0.011559
C56   C     C_R   0.152547 0.676665 0.929192 0.301319
C57   C     C_R   0.689252 0.777680 0.089232 0.309264
C58   C     C_R   0.650772 0.175151 0.930677 0.301338
C59   C     C_R   0.173489 0.279911 0.068648 0.315029
C60   C     C_R   0.605486 0.222366 0.933372 -0.232213
C61   C     C_R   0.228045 0.322618 0.068701 -0.240979
C62   C     C_R   0.108403 0.724613 0.930653 -0.235428
C63   C     C_R   0.150106 0.849307 0.093044 -0.135401
C64   C     C_R   0.742570 0.819886 0.085911 -0.234109
C65   C     C_R   0.658521 0.262926 0.013932 -0.013877
C66   C     C_R   0.241566 0.325438 0.985779 -0.009234
C67   C     C_R   0.161193 0.763945 0.013900 -0.015489
C68   C     C_R   0.734810 0.831197 0.989725 -0.003292
C69   C     C_R   0.399077 0.618020 0.090829 -0.121318
C70   C     C_R   0.554807 0.652030 0.909390 -0.130400
C71   C     C_R   0.898838 0.118572 0.090303 -0.123483
C72   C     C_R   0.051389 0.151366 0.907759 -0.152354
C73   C     C_R   0.753292 0.252830 0.099588 0.075511
C74   C     C_R   0.311264 0.633465 0.000856 0.077263
C75   C     C_R   0.188016 0.291655 0.893695 0.055976
C76   C     C_R   0.253040 0.751355 0.104157 0.071095
C77   C     C_R   0.663442 0.805088 0.892153 0.056950
C78   C     C_3   0.843262 0.287657 0.156095 0.482414
C79   C     C_3   0.215742 0.256946 0.832543 0.495320
C80   C     C_3   0.345365 0.784050 0.170458 0.493411
C81   C     C_3   0.574450 0.829873 0.792099 0.494357
C82   C     C_3   0.393081 0.734347 0.159120 -0.221094
C83   C     C_3   0.518998 0.781989 0.795986 -0.224460
C84   C     C_3   0.890188 0.239271 0.139736 -0.218841
C85   C     C_R   0.611156 0.685658 0.999259 0.077394
C86   C     C_3   0.148130 0.213223 0.824521 -0.214681
C87   C     C_R   0.500814 0.462151 0.540216 0.169477
C88   C     C_R   0.517145 0.459288 0.463024 0.155009
C89   C     C_R   0.105554 0.955629 0.624071 0.156286
C90   C     C_R   0.119994 0.955426 0.542062 0.143141
C91   C     C_R   0.548020 0.500447 0.623756 0.038045
C92   C     C_R   0.579160 0.496177 0.464746 0.044331
C93   C     C_R   0.078391 0.003731 0.649031 0.044398
C94   C     C_R   0.107334 0.003819 0.484857 0.042077
C95   C     C_R   0.617444 0.534956 0.633138 -0.197004
C96   C     C_R   0.810354 0.133158 0.999524 0.079118
C97   C     C_R   0.632493 0.533250 0.551667 -0.200051
C98   C     C_R   0.081176 0.053479 0.604092 -0.189702
C99   C     C_R   0.096847 0.053611 0.523842 -0.184198
C100  C     C_3   0.414450 0.448589 0.373315 -0.505530
C101  C     C_3   0.396273 0.452478 0.459721 -0.487833
C102  C     C_3   0.212607 0.925875 0.615918 -0.474540
C103  C     C_3   0.195167 0.925259 0.702596 -0.480961
C104  C     C_R   0.556043 0.453797 0.304218 0.058088
C105  C     C_R   0.504828 0.454135 0.735838 0.083409
C106  C     C_R   0.054801 0.954663 0.305988 0.061276
C107  C     C_R   0.112147 0.183904 0.995520 0.077565
C108  C     C_R   0.008466 0.954662 0.738010 0.082530
C109  C     C_R   0.245029 0.544634 0.696938 0.307481
C110  C     C_R   0.770045 0.544366 0.252642 0.328622
C111  C     C_R   0.750154 0.043874 0.692920 0.301634
C112  C     C_R   0.270041 0.044302 0.276946 0.329349
C113  C     C_R   0.552803 0.544780 0.304408 -0.178068
C114  C     C_R   0.507551 0.546404 0.738863 -0.150164
C115  C     C_R   0.052454 0.045607 0.303382 -0.161873
C116  C     C_R   0.014995 0.046426 0.747047 -0.140533
C117  C     C_R   0.244465 0.453457 0.698658 -0.217646
C118  C     C_R   0.573815 0.498916 0.367429 0.023165
C119  C     C_R   0.766274 0.452877 0.245182 -0.192735
C120  C     C_R   0.749084 0.952862 0.696753 -0.216332
C121  C     C_R   0.267834 0.952512 0.267291 -0.200830
C122  C     C_R   0.309002 0.623543 0.908510 -0.139088
C123  C     C_R   0.642714 0.653186 0.089758 -0.124321
C124  C     C_R   0.808365 0.122809 0.907597 -0.140669
C125  C     C_R   0.146602 0.152651 0.088430 -0.129502
C126  C     C_R   0.402486 0.372512 0.090219 -0.137141
C127  C     C_R   0.555990 0.345914 0.912441 -0.123945
C128  C     C_R   0.900700 0.874117 0.089382 -0.128743
H1    H     H_    0.249556 0.376622 0.823666 0.126483
H2    H     H_    0.264796 0.351196 0.136747 0.142944
H3    H     H_    0.332251 0.123787 0.298484 0.258449
H4    H     H_    0.034823 0.732376 0.864251 0.142563
H5    H     H_    0.792932 0.842453 0.160213 0.142948
H6    H     H_    0.447161 0.713546 0.237466 0.123570
H7    H     H_    0.489664 0.752287 0.727247 0.126293
H8    H     H_    0.950809 0.220283 0.216462 0.125199
H9    H     H_    0.183036 0.173953 0.866640 0.136528
H10   H     H_    0.656516 0.563965 0.700016 0.137180
H11   H     H_    0.681236 0.561932 0.553418 0.135707
H12   H     H_    0.064302 0.092085 0.623877 0.135101
H13   H     H_    0.683894 0.334802 0.176669 0.112063
H14   H     H_    0.089600 0.092378 0.484833 0.125502
H15   H     H_    0.380945 0.482260 0.312001 0.203237
H16   H     H_    0.372356 0.412916 0.472970 0.201934
H17   H     H_    0.211638 0.884051 0.586159 0.205059
H18   H     H_    0.247948 0.949823 0.776317 0.200670
H19   H     H_    0.402597 0.406684 0.338234 0.191988
H20   H     H_    0.353256 0.488790 0.449847 0.199068
H21   H     H_    0.275101 0.951258 0.638376 0.197761
H22   H     H_    0.181365 0.883454 0.720143 0.202249
H23   H     H_    0.424794 0.620748 0.175451 0.102254
H24   H     H_    0.756086 0.867034 0.821503 0.118948
H25   H     H_    0.508267 0.665181 0.825122 0.096655
H26   H     H_    0.924742 0.122381 0.174934 0.103772
H27   H     H_    0.999377 0.164776 0.824810 0.119827
H28   H     H_    0.565953 0.586987 0.331960 0.107288
H29   H     H_    0.512242 0.589003 0.722273 0.111773
H30   H     H_    0.071703 0.087834 0.329029 0.098568
H31   H     H_    0.026268 0.089223 0.739789 0.112478
H32   H     H_    0.233198 0.411419 0.670679 0.113606
H33   H     H_    0.785391 0.410536 0.251917 0.114885
H34   H     H_    0.742388 0.910793 0.670415 0.112909
H35   H     H_    0.185340 0.835266 0.176159 0.111010
H36   H     H_    0.287724 0.909976 0.283454 0.117103
H37   H     H_    0.251604 0.632798 0.825159 0.142393
H38   H     H_    0.675153 0.667491 0.171281 0.132754
H39   H     H_    0.750650 0.131067 0.823626 0.140102
H40   H     H_    0.187135 0.168039 0.170619 0.131139
H41   H     H_    0.427991 0.364519 0.173685 0.109470
H42   H     H_    0.506212 0.327742 0.833322 0.112739
H43   H     H_    0.924888 0.869197 0.173027 0.109729
H44   H     H_    0.013749 0.830038 0.830781 0.113587
H45   H     H_    0.944412 0.412348 0.348116 0.138753
H46   H     H_    0.958994 0.537126 0.329963 0.145933
H47   H     H_    0.117844 0.417468 0.486134 0.125332
H48   H     H_    0.442341 0.921363 0.323031 0.144032
H49   H     H_    0.606285 0.910815 0.500247 0.129152
H50   H     H_    0.074910 0.653566 0.759731 0.251845
H51   H     H_    0.132381 0.596647 0.853803 0.255811
H52   H     H_    0.028044 0.626125 0.830820 0.257401
H53   H     H_    0.633727 0.751333 0.179483 0.253633
H54   H     H_    0.762558 0.747118 0.253904 0.254496
H55   H     H_    0.703704 0.811771 0.230307 0.258624
H56   H     H_    0.566796 0.150316 0.761864 0.252490
H57   H     H_    0.070425 0.537482 0.500715 0.143326
H58   H     H_    0.632658 0.094892 0.856833 0.254687
H59   H     H_    0.529742 0.121340 0.841945 0.257577
H60   H     H_    0.109341 0.247705 0.146551 0.253770
H61   H     H_    0.233291 0.267000 0.238664 0.250301
H62   H     H_    0.141357 0.318403 0.171618 0.259596
H63   H     H_    0.792385 0.335952 0.007310 0.238355
H64   H     H_    0.806135 0.375059 0.117079 0.246766
H65   H     H_    0.909059 0.354910 0.125832 0.243751
H66   H     H_    0.121984 0.305874 0.682723 0.238080
H67   H     H_    0.245202 0.305340 0.731339 0.235444
H68   H     H_    0.464278 0.029479 0.442943 0.145732
H69   H     H_    0.173875 0.246365 0.665268 0.251413
H70   H     H_    0.309153 0.833036 0.027433 0.239445
H71   H     H_    0.315534 0.872176 0.133019 0.244732
H72   H     H_    0.422541 0.849618 0.153515 0.243772
H73   H     H_    0.556723 0.889287 0.889350 0.236716
H74   H     H_    0.603513 0.918087 0.819898 0.241222
H75   H     H_    0.479231 0.900090 0.743102 0.246564
H76   H     H_    0.845713 0.325176 0.290117 0.239539
H77   H     H_    0.892178 0.257071 0.318710 0.246506
H78   H     H_    0.961095 0.313090 0.320354 0.253248
H79   H     H_    0.605659 0.035922 0.471513 0.152323
H80   H     H_    0.368957 0.270713 0.916648 0.256877
H81   H     H_    0.340639 0.223392 0.985762 0.238883
H82   H     H_    0.328694 0.202549 0.863385 0.249736
H83   H     H_    0.458194 0.804746 0.340110 0.255643
H84   H     H_    0.342238 0.824360 0.298714 0.241579
H85   H     H_    0.376067 0.753636 0.325758 0.243714
H86   H     H_    0.605013 0.864542 0.680561 0.251650
H87   H     H_    0.607483 0.790389 0.686672 0.238255
H88   H     H_    0.496347 0.826921 0.614485 0.259297
H89   H     H_    0.301523 0.625459 0.708508 0.257772
H90   H     H_    0.530534 0.228593 0.870032 0.144664
H91   H     H_    0.235148 0.595580 0.574215 0.262266
H92   H     H_    0.172959 0.621123 0.628748 0.250509
H93   H     H_    0.761490 0.619247 0.321310 0.252499
H94   H     H_    0.878200 0.592660 0.389128 0.253714
H95   H     H_    0.824956 0.624397 0.257676 0.259296
H96   H     H_    0.806114 0.125629 0.711943 0.258632
H97   H     H_    0.753244 0.095650 0.579477 0.261508
H98   H     H_    0.677970 0.119486 0.618187 0.251071
H99   H     H_    0.238723 0.120558 0.320042 0.250394
H100  H     H_    0.353623 0.094286 0.421020 0.252737
N1    N     N_R   0.395410 0.396350 0.944340 -0.044972
N2    N     N_R   0.474920 0.471030 0.794350 -0.061946
N3    N     N_R   0.025080 0.971030 0.205650 -0.059148
N4    N     N_R   0.974920 0.971030 0.794350 -0.061119
N5    N     N_R   0.320260 0.527820 0.794570 -0.055866
N6    N     N_R   0.679740 0.527820 0.205430 -0.060363
N7    N     N_R   0.820260 0.027820 0.794570 -0.056803
N8    N     N_R   0.179740 0.027820 0.205430 -0.060205
N9    N     N_R   0.524590 0.527840 0.205200 -0.048727
N10   N     N_R   0.475410 0.527840 0.794800 -0.046111
N11   N     N_R   0.024590 0.027840 0.205200 -0.048974
N12   N     N_R   0.604590 0.396350 0.055660 -0.042434
N13   N     N_R   0.975410 0.027840 0.794800 -0.046010
N14   N     N_R   0.320750 0.471000 0.795020 -0.056909
N15   N     N_R   0.679250 0.471000 0.204980 -0.057994
N16   N     N_R   0.820750 0.971000 0.795020 -0.056863
N17   N     N_R   0.179250 0.971000 0.204980 -0.057776
N18   N     N_R   0.393620 0.602490 0.942710 -0.041019
N19   N     N_R   0.606380 0.602490 0.057290 -0.041923
N20   N     N_R   0.893620 0.102490 0.942710 -0.040842
N21   N     N_R   0.106380 0.102490 0.057290 -0.039845
N22   N     N_R   0.451720 0.396350 0.057510 -0.040232
N23   N     N_R   0.895410 0.896350 0.944340 -0.042256
N24   N     N_R   0.548280 0.396350 0.942490 -0.044386
N25   N     N_R   0.951720 0.896350 0.057510 -0.041036
N26   N     N_R   0.048280 0.896350 0.942490 -0.044505
N27   N     N_1   0.450854 0.749327 0.033428 -0.083202
N28   N     N_1   0.391239 0.808766 0.829904 -0.083490
N29   N     N_1   0.924496 0.254912 0.992475 -0.082097
N30   N     N_1   0.989769 0.197622 0.627770 -0.096727
N31   N     N_1   0.626037 0.356621 0.377790 -0.086370
N32   N     N_1   0.499467 0.354352 0.671624 -0.098411
N33   N     N_1   0.120071 0.856466 0.376371 -0.098671
N34   N     N_R   0.104590 0.896350 0.055660 -0.042330
N35   N     N_1   0.977559 0.858864 0.647346 -0.098606
N36   N     N_R   0.449930 0.602500 0.055880 -0.042230
N37   N     N_R   0.550070 0.602500 0.944120 -0.042200
N38   N     N_R   0.949930 0.102500 0.055880 -0.042705
N39   N     N_R   0.050070 0.102500 0.944120 -0.042249
N40   N     N_R   0.525080 0.471030 0.205650 -0.059288
Ni1   Ni    Ni4+2 0.435420 0.434270 0.870230 0.205009
Ni2   Ni    Ni4+2 0.564580 0.434270 0.129770 0.218420
Ni3   Ni    Ni4+2 0.935420 0.934270 0.870230 0.210532
Ni4   Ni    Ni4+2 0.064580 0.934270 0.129770 0.219129
Ni5   Ni    Ni4+2 0.563430 0.564580 0.128740 0.204728
Ni6   Ni    Ni4+2 0.436570 0.564580 0.871260 0.209037
Ni7   Ni    Ni4+2 0.063430 0.064580 0.128740 0.204083
Ni8   Ni    Ni4+2 0.936570 0.064580 0.871260 0.210779

loop_
_geom_bond_atom_site_label_1
_geom_bond_atom_site_label_2
_ccdc_geom_bond_type
C115  N11   A    
C87   C88   A    
C101  H20   S    
C82   H6    S    
C114  N10   A    
C32   C111  S    
C55   C59   A    
N16   Ni3   S    
C10   H56   S    
C12   H65   S    
C99   H14   S    
C35   C119  A    
C10   H58   S    
C51   C74   S    
C125  H40   S    
C14   H67   S    
C33   H100  S    
C124  H39   S    
C119  H33   S    
C11   H62   S    
C116  N13   A    
C127  H42   S    
C63   H35   S    
C27   N32   T    
N6    Ni5   S    
C62   C67   A    
C57   C64   A    
N9    N40   A    
C19   H83   S    
C20   H88   S    
C49   C84   S    
N3    N11   A    
C17   H78   S    
C10   C58   S    
C47   C76   A    
N20   Ni8   S    
C3    C7    A    
C102  H17   S    
C42   C46   D    
C38   C39   S    
C43   H46   S    
C16   H74   S    
C3    H44   S    
N23   N25   A    
N20   N38   A    
C66   C75   A    
C100  H19   S    
C58   C60   A    
C49   C54   A    
C70   H25   S    
N26   Ni3   S    
C65   C73   A    
C106  N3    A    
C18   H80   S    
C127  N24   A    
C120  N16   A    
C47   C82   S    
N12   Ni2   S    
C9    C57   S    
C92   C118  S    
C90   C102  S    
C37   C112  A    
C9    H54   S    
C86   H9    S    
C26   C104  S    
C87   C101  S    
C123  H38   S    
N1    Ni1   S    
C61   C66   A    
C21   C82   S    
C26   N31   T    
C88   C92   A    
C28   C106  S    
C18   C79   S    
C12   C78   S    
C111  N7    A    
C73   C78   S    
N21   Ni7   S    
C29   C108  S    
C36   C46   S    
C24   C108  A    
N19   Ni5   S    
C16   H75   S    
C35   C43   S    
C22   N28   T    
N1    N22   A    
C103  H22   S    
C120  H34   S    
C44   H57   S    
C122  N18   A    
C117  N14   A    
C33   H3    S    
C34   C117  A    
C6    C68   S    
C14   H66   S    
C50   C75   A    
C122  H37   S    
C31   H93   S    
C20   C81   S    
C89   C103  S    
C117  H32   S    
N7    Ni8   S    
C8    C56   S    
C19   C80   S    
C78   C84   S    
C11   C59   S    
C32   H96   S    
C92   C97   A    
C90   C94   A    
C69   N36   A    
C104  C118  A    
C48   C53   A    
C12   H64   S    
C14   H69   S    
N26   N34   A    
N39   Ni8   S    
C59   C61   A    
C87   C91   A    
C96   C124  A    
C115  H30   S    
N4    N13   A    
C69   H23   S    
N14   Ni1   S    
C62   H4    S    
N18   Ni6   S    
N17   Ni4   S    
C34   C44   S    
C107  C125  A    
C116  H31   S    
C80   C82   S    
N11   Ni7   S    
C23   C84   S    
N23   Ni3   S    
C19   H84   S    
C40   H48   S    
C15   H70   S    
C53   C57   A    
C38   H45   S    
C47   C51   A    
C71   C96   A    
C30   C109  S    
C28   N33   T    
C112  N8    A    
C121  H36   S    
N34   Ni4   S    
N5    N14   A    
C100  H15   S    
C72   N39   A    
C11   H60   S    
C55   C107  S    
C11   H61   S    
C19   H85   S    
C20   H86   S    
C48   C77   A    
C124  N20   A    
C17   H76   S    
C20   H87   S    
C114  H29   S    
C41   H13   S    
C9    H55   S    
C1    N1    A    
C21   N27   T    
C31   H94   S    
C15   H71   S    
C8    H52   S    
C40   C42   S    
C15   C80   S    
C72   C107  A    
C77   C81   S    
N38   Ni7   S    
C52   H24   S    
N3    Ni4   S    
C18   H81   S    
C36   C111  A    
C2    C91   S    
C10   H59   S    
N4    Ni3   S    
C69   C74   A    
C104  N40   A    
C33   C112  S    
C13   C115  A    
C14   C79   S    
C32   H97   S    
C7    C63   A    
C88   C100  S    
C35   C110  A    
C61   H2    S    
C128  H43   S    
C30   H89   S    
C37   C121  A    
C25   N30   T    
C5    C65   S    
C74   C122  A    
C32   H98   S    
C60   C65   A    
C24   C116  A    
C71   N38   A    
C53   C85   S    
N36   Ni5   S    
C31   H95   S    
N2    N10   A    
C76   C80   S    
N22   Ni2   S    
C113  H28   S    
C37   C45   S    
C16   H73   S    
C128  N25   A    
C63   N34   A    
C64   C68   A    
N18   N36   A    
N13   Ni8   S    
C70   N37   A    
C30   H92   S    
C54   C58   A    
C68   C77   A    
C12   H63   S    
C5    C41   A    
C60   H90   S    
C84   H8    S    
C95   H10   S    
C5    C127  A    
C18   H82   S    
C4    C66   S    
C83   H7    S    
N8    N17   A    
N9    Ni5   S    
C51   C56   A    
N40   Ni2   S    
C13   C106  A    
C33   H99   S    
C39   H47   S    
C108  N4    A    
C81   C83   S    
C17   H77   S    
C42   H49   S    
C95   C97   A    
N12   N24   A    
C39   C44   D    
C67   C76   A    
N2    Ni1   S    
C121  N17   A    
N6    N15   A    
C2    C105  A    
C1    H1    S    
C50   C55   A    
C48   C83   S    
C4    C126  A    
C13   C94   S    
C126  N22   A    
C1    C4    A    
C17   C78   S    
C22   C83   S    
N8    Ni7   S    
C125  N21   A    
N15   Ni2   S    
C6    C128  A    
C38   C43   D    
C126  H41   S    
C24   C93   S    
C105  N2    A    
C123  N19   A    
C15   H72   S    
C71   H26   S    
C8    H51   S    
N21   N39   A    
C49   C73   A    
C25   C86   S    
C119  N15   A    
C94   C99   A    
C45   H68   S    
N5    Ni6   S    
C93   C98   A    
C113  N9    A    
C16   C81   S    
C29   N35   T    
C31   C110  S    
C85   C123  A    
C56   C62   A    
C79   C86   S    
C89   C93   A    
C102  C103  S    
N24   Ni1   S    
C52   N23   A    
N7    N16   A    
C3    N26   A    
C9    H53   S    
C50   C86   S    
C2    C114  A    
C7    C67   S    
C113  C118  A    
N19   N37   A    
C8    H50   S    
N37   Ni6   S    
C40   C45   D    
C23   N29   T    
C91   C95   A    
C64   H5    S    
C98   C99   A    
C98   H12   S    
C72   H27   S    
C34   C109  A    
C27   C105  S    
C102  H21   S    
C100  C101  S    
C46   H79   S    
N25   Ni4   S    
C6    C52   A    
C89   C90   A    
N10   Ni6   S    
C70   C85   A    
C75   C79   S    
C54   C96   S    
C97   H11   S    
C36   C120  A    
C101  H16   S    
C110  N6    A    
C103  H18   S    
C30   H91   S    
C41   N12   A    
C109  N5    A    
