data_mof_unit_43075.cif
_audit_creation_date              2012-12-10T16:51:14-0500
_audit_creation_method            fapswitch 2.2
_symmetry_space_group_name_H-M    P1
_symmetry_Int_Tables_number       1
_space_group_crystal_system       triclinic
_cell_length_a                    27.794095
_cell_length_b                    8.725834
_cell_length_c                    7.419701
_cell_angle_alpha                 102.702763
_cell_angle_beta                  93.988386
_cell_angle_gamma                 92.593851
_cell_volume                      1747.78687083

loop_
_atom_site_label
_atom_site_type_symbol
_atom_type_description
_atom_site_fract_x
_atom_site_fract_y
_atom_site_fract_z
_atom_type_partial_charge
C1    C     C_R   0.496907 0.200108 0.454368 0.803367
C2    C     C_R   0.503094 0.799892 0.545632 0.803324
C3    C     C_R   0.101855 0.501962 0.493932 -0.048225
C4    C     C_R   0.898153 0.498242 0.506149 -0.048228
C5    C     C_R   0.124264 0.361475 0.426143 -0.010925
C6    C     C_R   0.875745 0.638724 0.573972 -0.010939
C7    C     C_R   0.095796 0.224978 0.344875 -0.201448
C8    C     C_R   0.904214 0.775214 0.655260 -0.201418
C9    C     C_R   0.130729 0.642552 0.557315 -0.069516
C10   C     C_R   0.869278 0.357660 0.442730 -0.069521
C11   C     C_R   0.354515 0.499348 0.507991 -0.066408
C12   C     C_R   0.645489 0.500707 0.492023 -0.066411
C13   C     C_R   0.971357 0.353955 0.442664 0.003172
C14   C     C_R   0.028650 0.646245 0.557410 0.003169
C15   C     C_R   0.977721 0.642085 0.571305 0.075178
C16   C     C_R   0.022287 0.358113 0.428786 0.075178
C17   C     C_R   0.949284 0.498170 0.504835 -0.013384
C18   C     C_R   0.050724 0.502031 0.495247 -0.013383
C19   C     C_R   0.941623 0.210647 0.406061 0.382664
C20   C     C_R   0.058382 0.789556 0.593990 0.382657
C21   C     C_R   0.891186 0.215485 0.395967 -0.241224
C22   C     C_R   0.108819 0.784726 0.604058 -0.241235
C23   C     C_R   0.407459 0.499121 0.502767 0.831387
C24   C     C_R   0.592542 0.500885 0.497233 0.831352
C25   C     C_R   0.045837 0.225093 0.339604 -0.114381
C26   C     C_R   0.954173 0.775099 0.660511 -0.114360
C27   C     C_2   0.490066 0.032755 0.433413 0.178760
C28   C     C_2   0.509936 0.967245 0.566586 0.178765
C29   C     C_R   0.174856 0.362752 0.433089 0.547419
C30   C     C_R   0.825153 0.637447 0.567036 0.547421
C31   C     C_R   0.181251 0.638855 0.562256 0.572508
C32   C     C_R   0.818756 0.361362 0.437776 0.572529
C33   C     C_R   0.276716 0.532460 0.355399 -0.109843
C34   C     C_R   0.723300 0.467967 0.644801 -0.109845
C35   C     C_R   0.326749 0.532283 0.356778 -0.283116
C36   C     C_R   0.673265 0.468050 0.643373 -0.283091
C37   C     C_R   0.331214 0.465742 0.659715 0.391562
C38   C     C_R   0.668784 0.534102 0.340191 0.391592
C39   C     C_R   0.280537 0.466432 0.656318 -0.199945
C40   C     C_R   0.719463 0.533470 0.343615 -0.199935
C41   C     C_R   0.253588 0.499557 0.504797 0.323482
C42   C     C_R   0.746421 0.500645 0.495288 0.323544
Cu1   Cu    Cu3+1 0.505380 0.517380 0.684380 1.033441
Cu2   Cu    Cu3+1 0.494620 0.482620 0.315620 1.033441
H1    H     H_    0.462386 0.378094 0.948389 0.252144
H2    H     H_    0.537614 0.621905 0.051611 0.252126
H3    H     H_    0.261885 0.440818 0.770768 0.133074
H4    H     H_    0.738108 0.558895 0.229065 0.133017
H5    H     H_    0.111968 0.118064 0.280075 0.194723
H6    H     H_    0.888043 0.882123 0.720082 0.194722
H7    H     H_    0.656233 0.441185 0.760618 0.195570
H8    H     H_    0.343788 0.559292 0.239605 0.195625
H9    H     H_    0.744209 0.442379 0.762202 0.150500
H10   H     H_    0.255815 0.558274 0.238114 0.150573
H11   H     H_    0.869047 0.105985 0.360325 0.191108
H12   H     H_    0.130956 0.894230 0.639673 0.191107
H13   H     H_    0.026696 0.120596 0.256617 0.212645
H14   H     H_    0.973317 0.879590 0.743503 0.212626
N1    N     N_R   0.202111 0.499972 0.502364 -0.463972
N2    N     N_R   0.797897 0.500237 0.497716 -0.463976
N3    N     N_2   0.486510 0.456430 0.038510 -0.183806
N4    N     N_2   0.513490 0.543570 0.961490 -0.183796
O1    O     O_R   0.503500 0.286120 0.619780 -0.538028
O2    O     O_R   0.496500 0.713880 0.380220 -0.538058
O3    O     O_R   0.494410 0.256780 0.308360 -0.600598
O4    O     O_R   0.505590 0.743220 0.691640 -0.600620
O5    O     O_R   0.434810 0.514700 0.655690 -0.537840
O6    O     O_R   0.565190 0.485300 0.344310 -0.537786
O7    O     O_R   0.425720 0.485350 0.344280 -0.588867
O8    O     O_R   0.574280 0.514650 0.655720 -0.588854
O9    O     O_2   0.196671 0.228402 0.370494 -0.518310
O10   O     O_2   0.803339 0.771789 0.629674 -0.518297
O11   O     O_2   0.790662 0.227370 0.374524 -0.512835
O12   O     O_2   0.209345 0.772857 0.625456 -0.512848
O13   O     O_3   0.358147 0.429801 0.806866 -0.723737
H15   H     H_    0.336109 0.407350 0.898682 0.321108
O14   O     O_3   0.641842 0.569766 0.192889 -0.723670
H16   H     H_    0.663878 0.592100 0.101012 0.321016
O15   O     O_3   0.961754 0.067579 0.397769 -0.719162
H17   H     H_    0.936050 0.981272 0.373416 0.335047
O16   O     O_3   0.038247 0.932619 0.602282 -0.719158
H18   H     H_    0.063949 0.018932 0.626637 0.335043
O17   O     O_3   0.461249 0.943112 0.283364 -0.723840
H19   H     H_    0.446528 0.013014 0.209104 0.340471
O18   O     O_3   0.538751 0.056891 0.716646 -0.723811
H20   H     H_    0.553456 0.987003 0.790960 0.340494

loop_
_geom_bond_atom_site_label_1
_geom_bond_atom_site_label_2
_ccdc_geom_bond_type
C8    C26   A    
C14   C18   A    
C34   C42   A    
Cu1   Cu2   S    
O16   H18   S    
Cu1   O1    S    
C39   C41   A    
O14   H16   S    
Cu2   O2    S    
H2    N4    S    
C19   C21   A    
C9    C22   A    
C23   O5    A    
C33   H10   S    
C3    C18   A    
C40   H4    S    
C11   C23   S    
C11   C37   A    
C23   O7    A    
C11   C35   A    
C29   N1    A    
C30   N2    A    
C1    O3    A    
C12   C36   A    
C40   C42   A    
C37   O13   S    
C20   O16   S    
Cu2   O3    S    
C25   H13   S    
C1    O1    A    
C2    O2    A    
C5    C29   A    
C10   C21   A    
C13   C19   A    
C24   O8    A    
C14   C20   A    
C7    H5    S    
C4    C6    A    
C42   N2    S    
C32   O11   S    
C5    C7    A    
C9    C31   A    
C15   C26   A    
C6    C8    A    
C3    C5    A    
O18   H20   S    
O13   H15   S    
C3    C9    A    
O17   H19   S    
Cu2   O7    S    
C19   O15   S    
C26   H14   S    
C41   N1    S    
C36   H7    S    
C4    C17   A    
Cu1   O5    S    
C6    C30   A    
C20   C22   A    
Cu1   O8    S    
Cu2   O6    S    
C32   N2    A    
C4    C10   A    
C8    H6    S    
C35   H8    S    
C39   H3    S    
C31   N1    A    
C16   C25   A    
C15   C17   A    
C21   H11   S    
C2    O4    A    
C30   O10   S    
C38   O14   S    
Cu2   N3    S    
C12   C24   S    
C22   H12   S    
C7    C25   A    
C13   C17   A    
C33   C41   A    
C27   O17   S    
C37   C39   A    
C38   C40   A    
Cu1   O4    S    
H1    N3    S    
C33   C35   A    
C34   C36   A    
C12   C38   A    
N3    N4    D    
C31   O12   S    
C28   O18   S    
C24   O6    A    
O15   H17   S    
C10   C32   A    
C34   H9    S    
C16   C18   A    
C13   C16   A    
C27   C28   D    
C1    C27   S    
C14   C15   A    
C2    C28   S    
Cu1   N4    S    
C29   O9    S    
