data_mof_unit_43824.cif
_audit_creation_date              2012-12-10T19:43:25-0500
_audit_creation_method            fapswitch 2.2
_symmetry_space_group_name_H-M    P1
_symmetry_Int_Tables_number       1
_space_group_crystal_system       triclinic
_cell_length_a                    10.950006
_cell_length_b                    10.838779
_cell_length_c                    9.847223
_cell_angle_alpha                 87.613163
_cell_angle_beta                  92.14309
_cell_angle_gamma                 93.557128
_cell_volume                      1164.74071401

loop_
_atom_site_label
_atom_site_type_symbol
_atom_type_description
_atom_site_fract_x
_atom_site_fract_y
_atom_site_fract_z
_atom_type_partial_charge
C1    C     C_R   0.497140 0.262803 0.502564 0.767834
C2    C     C_R   0.162402 0.417444 0.993053 0.193291
C3    C     C_R   0.930901 0.532055 0.382712 -0.186323
C4    C     C_R   0.872178 0.509778 0.505115 -0.152805
C5    C     C_R   0.943057 0.475633 0.621356 -0.017498
C6    C     C_R   0.059506 0.435131 0.601529 0.435584
C7    C     C_R   0.125604 0.489137 0.493316 -0.129873
C8    C     C_R   0.056906 0.523417 0.375832 0.097985
C9    C     C_R   0.954989 0.660666 0.759147 -0.300514
C10   C     C_R   0.936930 0.723286 0.878370 0.431938
C11   C     C_R   0.894778 0.655267 0.994261 0.362479
C12   C     C_R   0.262022 0.492144 0.497870 0.871612
C13   C     C_R   0.865035 0.527962 0.986576 -0.325882
C14   C     C_R   0.878459 0.465747 0.866765 0.375080
C15   C     C_R   0.924899 0.533066 0.751580 -0.020398
C16   C     C_R   0.336171 0.101336 0.683991 -0.210623
C17   C     C_R   0.258188 0.022867 0.763165 0.430705
C18   C     C_R   0.232902 0.902508 0.725609 -0.057675
C19   C     C_R   0.295807 0.854312 0.622655 0.349269
C20   C     C_R   0.396849 0.924153 0.565684 -0.014180
C21   C     C_R   0.409066 0.052939 0.585950 -0.000470
C22   C     C_R   0.493203 0.127529 0.506962 -0.030161
C23   C     C_R   0.498047 0.736583 0.497171 0.822914
C24   C     C_R   0.572132 0.071852 0.422591 -0.152819
C25   C     C_R   0.571612 0.944190 0.418824 -0.146333
C26   C     C_R   0.485476 0.869845 0.490355 -0.033564
C27   C     C_R   0.601487 0.704725 0.138044 -0.104242
C28   C     C_R   0.618949 0.819098 0.071028 -0.324212
C29   C     C_R   0.610404 0.826499 0.929887 0.460288
C30   C     C_R   0.597479 0.715956 0.861809 0.437997
C31   C     C_R   0.541923 0.605920 0.924964 -0.020852
C32   C     C_R   0.543770 0.603463 0.072386 0.157288
C33   C     C_R   0.472437 0.396989 0.077290 -0.068831
C34   C     C_R   0.737293 0.505115 0.502300 0.818611
C35   C     C_R   0.483002 0.394610 0.933194 0.562084
C36   C     C_R   0.187128 0.541117 0.027713 0.252768
C37   C     C_R   0.153268 0.579590 0.153859 0.365947
C38   C     C_R   0.097488 0.492180 0.244006 -0.106961
C39   C     C_R   0.071350 0.369825 0.207558 -0.268218
C40   C     C_R   0.099303 0.332548 0.080912 0.382188
Cu1   Cu    Cu3+1 0.499990 0.499990 0.640660 1.063758
Cu2   Cu    Cu3+1 0.500010 0.500010 0.359340 0.975751
H1    H     H_    0.828615 0.476593 0.074113 0.195068
H2    H     H_    0.638140 0.127610 0.363418 0.156061
H3    H     H_    0.338602 0.198131 0.702031 0.259365
H4    H     H_    0.162975 0.845922 0.776135 0.218846
H5    H     H_    0.640626 0.903099 0.362581 0.134973
H6    H     H_    0.449001 0.311122 0.132634 0.173307
H7    H     H_    0.645745 0.693818 0.236301 0.213966
H8    H     H_    0.655094 0.898048 0.126645 0.165516
H9    H     H_    0.024651 0.303948 0.276838 0.229254
H10   H     H_    0.877599 0.546999 0.290061 0.217826
H11   H     H_    0.988614 0.712188 0.670049 0.190455
N1    N     N_R   0.501190 0.501210 0.147910 -0.221875
N2    N     N_R   0.501230 0.501290 0.852040 -0.185762
O1    O     O_R   0.499990 0.319640 0.618810 -0.569927
O2    O     O_R   0.500000 0.319660 0.381240 -0.591745
O3    O     O_R   0.319640 0.500000 0.618780 -0.453823
O4    O     O_R   0.319650 0.500020 0.381210 -0.583625
O5    O     O_R   0.500000 0.680340 0.618760 -0.500305
O6    O     O_R   0.500010 0.680360 0.381190 -0.603252
O7    O     O_R   0.680350 0.499980 0.618790 -0.592357
O8    O     O_R   0.680360 0.500000 0.381220 -0.604627
Cl1   Cl    Cl    0.219365 0.366364 0.846378 -0.584898
O9    O     O_3   0.877671 0.710488 0.115241 -0.744907
H12   H     H_    0.905482 0.799087 0.108208 0.403486
O10   O     O_3   0.842592 0.341321 0.866772 -0.709616
H13   H     H_    0.848052 0.310422 0.774279 0.364431
O11   O     O_3   0.203150 0.061857 0.875362 -0.628874
H14   H     H_    0.256139 0.130713 0.912287 0.384342
O12   O     O_3   0.250430 0.743164 0.574609 -0.709848
H15   H     H_    0.264818 0.744997 0.475905 0.336053
Cl2   Cl    Cl    0.257509 0.647975 0.912216 -0.543230
O13   O     O_3   0.644497 0.934293 0.857644 -0.665257
H16   H     H_    0.652884 0.003401 0.920958 0.337464
O14   O     O_3   0.678005 0.710679 0.760138 -0.685226
H17   H     H_    0.718224 0.633740 0.780662 0.315995
O15   O     O_3   0.482059 0.280605 0.879324 -0.733065
H18   H     H_    0.565904 0.274718 0.846439 0.345679
Cl3   Cl    Cl    0.180978 0.735019 0.198808 -0.524903
O16   O     O_3   0.062179 0.213726 0.046712 -0.628600
H19   H     H_    0.050903 0.212148 0.946643 0.416125
Cl4   Cl    Cl    0.060990 0.272240 0.607511 -0.622839
O17   O     O_3   0.952906 0.850525 0.881541 -0.662083
H20   H     H_    0.960721 0.885091 0.787225 0.349494

loop_
_geom_bond_atom_site_label_1
_geom_bond_atom_site_label_2
_ccdc_geom_bond_type
C39   H9    S    
C17   O11   S    
C16   C21   A    
Cu1   Cu2   S    
C19   O12   S    
C19   C20   A    
O16   H19   S    
C7    C8    A    
C37   C38   A    
C28   C29   A    
C1    O1    A    
Cu1   O3    S    
C5    C6    A    
C34   O7    A    
C18   C19   A    
C23   C26   S    
Cu1   N2    S    
C12   O4    A    
C28   H8    S    
O17   H20   S    
C16   C17   A    
C14   O10   S    
C9    C10   A    
C25   H5    S    
C12   O3    A    
C1    C22   S    
C21   C22   A    
C7    C12   S    
C8    C38   S    
Cu1   O7    S    
C18   H4    S    
Cu2   O2    S    
C32   N1    A    
C2    Cl1   S    
C23   O5    A    
C37   Cl3   S    
C4    C34   S    
O13   H16   S    
C35   N2    A    
O10   H13   S    
C38   C39   A    
C24   C25   A    
C3    C8    A    
C36   Cl2   S    
C39   C40   A    
O15   H18   S    
C29   O13   S    
C25   C26   A    
C16   H3    S    
Cu1   O1    S    
C29   C30   A    
C1    O2    A    
C30   O14   S    
C31   C32   A    
C17   C18   A    
O14   H17   S    
Cu2   O6    S    
C24   H2    S    
C22   C24   A    
C9    H11   S    
C3    C4    A    
C13   H1    S    
C2    C36   A    
C33   N1    A    
C36   C37   A    
C6    Cl4   S    
C27   C32   A    
C11   O9    S    
C40   O16   S    
Cu1   O5    S    
C4    C5    A    
Cu2   O4    S    
C3    H10   S    
C6    C7    A    
C35   O15   S    
C9    C15   A    
O12   H15   S    
Cu2   N1    S    
C11   C13   A    
C30   C31   A    
C20   C26   A    
C10   O17   S    
C34   O8    A    
C33   C35   A    
O11   H14   S    
C5    C15   S    
C10   C11   A    
C2    C40   A    
C23   O6    A    
C20   C21   A    
O9    H12   S    
C27   C28   A    
C33   H6    S    
C14   C15   A    
C31   N2    A    
C13   C14   A    
Cu2   O8    S    
C27   H7    S    
