data_mof_unit_22230.cif
_audit_creation_date              2013-03-05T16:12:47-0500
_audit_creation_method            fapswitch 2.2
_symmetry_space_group_name_H-M    P1
_symmetry_Int_Tables_number       1
_space_group_crystal_system       triclinic
_cell_length_a                    10.770954
_cell_length_b                    9.800879
_cell_length_c                    27.64889
_cell_angle_alpha                 91.147027
_cell_angle_beta                  90.084205
_cell_angle_gamma                 89.829985
_cell_volume                      2918.14939587

loop_
_atom_site_label
_atom_site_type_symbol
_atom_site_description
_atom_site_fract_x
_atom_site_fract_y
_atom_site_fract_z
_atom_type_partial_charge
O1    O     O_R   0.316770 0.614620 0.500000 -0.610334
O2    O     O_R   0.683230 0.385380 0.500000 -0.605782
O3    O     O_R   0.683230 0.614620 0.500000 -0.606621
O4    O     O_R   0.316770 0.385380 0.500000 -0.610149
C1    C     C_R   0.260177 0.500449 0.494698 0.903286
C2    C     C_R   0.739957 0.500366 0.495002 0.909363
O5    O     O_R   0.500030 0.614650 0.428760 -0.583385
O6    O     O_R   0.499970 0.385350 0.571240 -0.629843
O7    O     O_R   0.499970 0.614650 0.571240 -0.576034
O8    O     O_R   0.500030 0.385350 0.428760 -0.628536
C3    C     C_R   0.499828 0.498443 0.405732 0.953580
C4    C     C_R   0.503657 0.501612 0.594150 0.949218
Zn1   Zn    Zn3+2 0.500000 0.653120 0.500000 1.052095
Zn2   Zn    Zn3+2 0.500000 0.346880 0.500000 1.015307
C5    C     C_R   0.420162 0.426529 0.174401 0.642324
C6    C     C_R   0.651316 0.503905 0.822260 0.632248
O9    O     O_2   0.311855 0.409578 0.197899 -0.430927
O10   O     O_2   0.754594 0.484044 0.795529 -0.441707
N1    N     N_R   0.525252 0.451845 0.200487 -0.350023
N2    N     N_R   0.539385 0.512661 0.799415 -0.347739
C7    C     C_R   0.638172 0.469177 0.179254 0.634984
C8    C     C_R   0.431598 0.536529 0.823982 0.633928
C9    C     C_R   0.548952 0.349213 0.280784 -0.007096
C10   C     C_R   0.488641 0.387221 0.723270 0.005166
C11   C     C_R   0.542952 0.366393 0.330984 -0.233273
C12   C     C_R   0.477835 0.390235 0.672813 -0.273541
C13   C     C_R   0.472176 0.600942 0.323141 0.398465
C14   C     C_R   0.565028 0.619191 0.672199 0.385414
C15   C     C_R   0.478813 0.584816 0.273121 -0.118968
C16   C     C_R   0.573453 0.617646 0.722221 -0.117057
C17   C     C_R   0.516759 0.460858 0.251929 0.143852
C18   C     C_R   0.535398 0.503963 0.747828 0.145113
C19   C     C_R   0.539724 0.448644 0.100841 -0.156427
C20   C     C_R   0.545086 0.520921 0.899249 -0.148512
C21   C     C_R   0.424827 0.422601 0.123710 -0.114888
C22   C     C_R   0.657512 0.511887 0.873049 -0.109497
C23   C     C_R   0.320062 0.392681 0.094774 0.453230
C24   C     C_R   0.770639 0.515422 0.898804 0.434477
C25   C     C_R   0.649484 0.461462 0.128492 -0.170915
C26   C     C_R   0.432078 0.544648 0.874787 -0.177684
C27   C     C_R   0.504931 0.490761 0.352652 -0.145837
C28   C     C_R   0.514701 0.505220 0.647019 -0.162822
H1    H     H_    0.454283 0.669239 0.250231 0.188841
H2    H     H_    0.609921 0.705837 0.741713 0.191133
C29   C     C_R   0.432166 0.508155 0.975337 -0.076104
C30   C     C_R   0.660021 0.470615 0.026007 -0.068928
C31   C     C_R   0.660086 0.493306 0.975202 0.051289
C32   C     C_R   0.431951 0.467388 0.023849 0.052298
C33   C     C_R   0.545828 0.506794 0.950035 0.046741
C34   C     C_R   0.544314 0.463211 0.050131 0.046106
C35   C     C_R   0.324920 0.560641 0.952120 0.290103
C36   C     C_R   0.769176 0.446489 0.053737 0.290266
C37   C     C_R   0.325426 0.579567 0.901990 0.408702
C38   C     C_R   0.765272 0.458991 0.104383 0.406144
O11   O     O_2   0.324588 0.547070 0.798932 -0.450118
O12   O     O_2   0.737454 0.495135 0.207663 -0.450341
C39   C     C_R   0.324104 0.417263 0.045580 -0.156757
C40   C     C_R   0.769765 0.515790 0.949057 -0.165527
H3    H     H_    0.441068 0.302058 0.653393 0.207913
H4    H     H_    0.567750 0.281207 0.353431 0.211658
H5    H     H_    0.243334 0.391602 0.023952 0.233351
H6    H     H_    0.856339 0.538092 0.966923 0.242165
C41   C     C_R   0.064703 0.380947 0.471572 -0.087237
C42   C     C_R   0.935779 0.630047 0.483001 -0.091900
C43   C     C_R   0.935216 0.381635 0.470766 -0.080019
C44   C     C_R   0.064535 0.629576 0.481278 -0.080528
C45   C     C_R   0.871801 0.503661 0.483302 -0.185912
C46   C     C_R   0.128328 0.503317 0.482699 -0.183444
C47   C     C_R   0.455898 0.074302 0.538893 -0.030944
C48   C     C_R   0.543279 0.925709 0.461007 -0.020178
C49   C     C_R   0.542314 0.069661 0.460874 -0.037589
C50   C     C_R   0.455546 0.930222 0.538825 0.006529
H7    H     H_    0.420206 0.130638 0.569910 0.162727
H8    H     H_    0.578390 0.869469 0.429896 0.208295
H9    H     H_    0.574539 0.122286 0.429426 0.152603
H10   H     H_    0.419590 0.877382 0.569749 0.182481
N3    N     N_R   0.500000 0.857200 0.500000 -0.110889
N4    N     N_R   0.500000 0.142800 0.500000 -0.104379
Cl1   Cl    Cl    0.418450 0.759240 0.346188 -0.523353
Cl2   Cl    Cl    0.624492 0.764424 0.643553 -0.528264
Cl3   Cl    Cl    0.184660 0.314748 0.116613 -0.336405
Cl4   Cl    Cl    0.917332 0.527085 0.871195 -0.352560
C51   C     C_2   0.451821 0.261744 0.749164 0.998537
O13   O     O_2   0.386795 0.175968 0.728816 -0.574540
O14   O     O_R   0.492796 0.239446 0.796375 -0.789092
H11   H     H_    0.461415 0.150354 0.809727 0.369891
C52   C     C_2   0.588373 0.214461 0.259777 1.009658
O15   O     O_2   0.639222 0.130657 0.285444 -0.579447
O16   O     O_R   0.566383 0.181424 0.211093 -0.785573
H12   H     H_    0.597533 0.086926 0.201596 0.371727
Cl5   Cl    Cl    0.197970 0.664900 0.875484 -0.328148
Cl6   Cl    Cl    0.908348 0.459689 0.135967 -0.308197
Cl7   Cl    Cl    0.198084 0.629106 0.985848 -0.447821
Cl8   Cl    Cl    0.903086 0.365674 0.028814 -0.446868
C53   C     C_2   0.132936 0.255411 0.456981 0.988251
O17   O     O_2   0.179456 0.246137 0.416733 -0.585577
O18   O     O_R   0.148786 0.151480 0.490208 -0.712086
H13   H     H_    0.207415 0.078098 0.477693 0.347890
C54   C     C_2   0.870872 0.764030 0.482045 1.009732
O19   O     O_2   0.834783 0.808895 0.443536 -0.598543
O20   O     O_R   0.851163 0.837423 0.525232 -0.695559
H14   H     H_    0.803472 0.925316 0.520165 0.374897
C55   C     C_2   0.868239 0.260449 0.451087 0.968946
O21   O     O_2   0.880366 0.149331 0.469876 -0.577643
O22   O     O_R   0.794259 0.274033 0.409909 -0.786609
H15   H     H_    0.762925 0.183043 0.396964 0.353415
C56   C     C_2   0.130218 0.761403 0.475401 0.969192
O23   O     O_2   0.124316 0.849611 0.507201 -0.575348
O24   O     O_R   0.200577 0.782027 0.433745 -0.716661
H16   H     H_    0.244348 0.873359 0.434162 0.353153

loop_
_geom_bond_atom_site_label_1
_geom_bond_atom_site_label_2
_geom_bond_distance
_ccdc_geom_bond_type
C40   H6    1.075575 S    
C44   C46   1.414836 A    
C52   O15   1.223818 D    
C41   C43   1.394846 A    
O20   H14   1.013678 S    
C30   C36   1.424424 A    
C13   C15   1.390774 A    
C53   O17   1.222709 D    
C44   C56   1.486741 S    
C50   H10   1.081242 S    
O3    C2    1.279193 A    
N1    C17   1.426340 S    
O18   H13   1.011809 S    
C32   C39   1.403187 A    
C31   C33   1.419996 A    
O14   H11   1.013891 S    
O5    C3    1.293646 A    
C19   C25   1.411475 A    
O1    C1    1.281550 A    
N1    C7    1.363865 A    
C10   C51   1.490365 S    
C10   C12   1.400644 A    
C13   Cl1   1.761845 S    
C25   C38   1.414892 A    
C29   C35   1.420751 A    
C41   C53   1.480642 S    
Zn2   N4    2.000163 S    
C14   C28   1.413382 A    
O7    Zn1   2.012866 S    
C4    C28   1.466142 S    
C24   C40   1.389412 A    
C42   C54   1.486510 S    
C54   O19   1.222537 D    
C43   C45   1.412893 A    
C48   H8    1.080510 S    
C56   O23   1.222260 D    
C36   Cl8   1.776752 S    
C48   C49   1.410933 A    
C11   H4    1.082827 S    
C23   Cl3   1.761432 S    
C12   H3    1.083898 S    
O3    Zn1   2.008210 S    
O6    C4    1.293257 A    
C32   C34   1.411653 A    
C9    C52   1.492833 S    
C24   Cl4   1.760792 S    
C48   N3    1.364844 A    
C56   O24   1.398024 S    
C16   H2    1.083777 S    
C47   N4    1.365660 A    
O2    C2    1.293460 A    
C1    C46   1.458211 S    
O2    Zn2   2.010410 S    
C5    C21   1.402273 A    
C36   C38   1.403897 A    
Zn1   N3    2.000163 S    
C16   C18   1.394939 A    
C42   C45   1.419432 A    
O8    Zn2   2.012871 S    
C11   C27   1.407444 A    
C19   C34   1.413120 A    
C35   C37   1.402105 A    
C9    C17   1.409245 A    
C47   C50   1.412095 A    
C5    N1    1.362019 A    
C10   C18   1.412484 A    
C38   Cl6   1.770132 S    
C50   N3    1.364749 A    
C13   C27   1.410148 A    
C51   O13   1.223616 D    
C7    C25   1.409463 A    
C29   C33   1.410813 A    
C6    N2    1.363506 A    
C8    C26   1.405346 A    
C55   O22   1.397014 S    
C47   H7    1.081130 S    
C35   Cl7   1.777492 S    
C37   Cl5   1.770861 S    
C15   H1    1.083585 S    
C2    C45   1.457524 S    
C51   O14   1.398417 S    
N2    C8    1.363196 A    
C52   O16   1.398173 S    
C20   C26   1.412558 A    
O1    Zn1   2.010410 S    
C43   C55   1.485011 S    
C12   C28   1.404288 A    
N2    C18   1.427755 S    
C29   C32   1.407223 A    
C5    O9    1.348430 S    
C30   C34   1.417136 A    
C30   C31   1.426596 A    
C20   C33   1.413746 A    
O6    Zn2   1.998039 S    
C21   C23   1.410438 A    
O4    C1    1.291211 A    
C7    O12   1.347741 S    
C53   O18   1.395224 S    
C39   H5    1.082319 S    
C8    O11   1.348580 S    
O22   H15   1.012886 S    
C41   C46   1.411452 A    
C22   C24   1.410572 A    
C15   C17   1.398431 A    
O24   H16   1.012784 S    
C6    C22   1.406351 A    
C31   C40   1.406101 A    
C49   H9    1.078161 S    
C14   C16   1.386276 A    
C19   C21   1.416730 A    
C3    C27   1.469137 S    
C20   C22   1.413637 A    
C9    C11   1.396349 A    
O4    Zn2   2.008210 S    
C14   Cl2   1.765130 S    
O7    C4    1.287616 A    
O8    C3    1.289267 A    
O5    Zn1   1.998045 S    
C6    O10   1.347941 S    
C26   C37   1.411504 A    
C55   O21   1.222528 D    
O16   H12   1.013892 S    
C54   O20   1.397771 S    
C49   N4    1.363925 A    
C23   C39   1.386852 A    
C42   C44   1.387709 A    
