data_mof_unit_9079.cif
_audit_creation_date              2012-12-11T15:34:43-0500
_audit_creation_method            fapswitch 2.2
_symmetry_space_group_name_H-M    P1
_symmetry_Int_Tables_number       1
_space_group_crystal_system       triclinic
_cell_length_a                    17.164258
_cell_length_b                    17.555147
_cell_length_c                    17.297743
_cell_angle_alpha                 90.032678
_cell_angle_beta                  89.995562
_cell_angle_gamma                 89.977515
_cell_volume                      5212.17320495

loop_
_atom_site_label
_atom_site_type_symbol
_atom_type_description
_atom_site_fract_x
_atom_site_fract_y
_atom_site_fract_z
_atom_type_partial_charge
C1    C     C_R   0.799266 0.108011 0.411134 0.670380
C2    C     C_R   0.166439 0.078894 0.352723 0.530611
C3    C     C_3   0.068289 0.254275 0.710683 -0.153422
C4    C     C_3   0.302628 0.886058 0.499450 -0.220478
C5    C     C_3   0.849711 0.986409 0.737748 -0.304005
C6    C     C_3   0.144665 0.291516 0.407661 -0.161679
C7    C     C_3   0.931908 0.746537 0.711034 -0.153628
C8    C     C_3   0.693755 0.897949 0.507812 -0.288500
C9    C     C_3   0.155204 0.984978 0.262467 -0.315868
C10   C     C_3   0.854170 0.291739 0.590945 -0.169026
C11   C     C_3   0.069694 0.744583 0.290012 -0.147987
C12   C     C_3   0.306102 0.102133 0.507317 -0.278939
C13   C     C_R   0.909318 0.181351 0.632933 0.547390
C14   C     C_3   0.848246 0.014568 0.262007 -0.303497
C15   C     C_3   0.145160 0.707402 0.590594 -0.169292
C16   C     C_3   0.930727 0.253254 0.288854 -0.152075
C17   C     C_3   0.197255 0.614091 0.999461 -0.219441
C18   C     C_3   0.652914 0.514103 0.237555 -0.316025
C19   C     C_3   0.355734 0.208642 0.906900 -0.161846
C20   C     C_3   0.568495 0.754404 0.210497 -0.150485
C21   C     C_3   0.802640 0.386011 0.999528 -0.218176
C22   C     C_3   0.348495 0.486600 0.237333 -0.316218
C23   C     C_3   0.644218 0.791385 0.907187 -0.160087
C24   C     C_R   0.110428 0.804631 0.398188 0.538668
C25   C     C_3   0.430775 0.247154 0.211315 -0.150174
C26   C     C_3   0.193581 0.398199 0.007390 -0.277545
C27   C     C_3   0.655267 0.484655 0.762399 -0.316179
C28   C     C_3   0.355093 0.792486 0.091098 -0.169065
C29   C     C_3   0.569847 0.244295 0.790225 -0.144700
C30   C     C_3   0.806159 0.602561 0.006862 -0.276726
C31   C     C_3   0.345055 0.515318 0.762416 -0.316162
C32   C     C_3   0.644241 0.207665 0.092387 -0.163974
C33   C     C_3   0.430202 0.754761 0.789785 -0.147194
C34   C     C_R   0.200681 0.107832 0.589369 0.671983
C35   C     C_R   0.834183 0.921156 0.352334 0.534772
C36   C     C_R   0.091222 0.818443 0.632532 0.544819
C37   C     C_R   0.889722 0.195428 0.398186 0.540594
C38   C     C_R   0.299111 0.607922 0.912189 0.674077
C39   C     C_R   0.666859 0.420720 0.147054 0.567196
C40   C     C_R   0.410056 0.319647 0.865843 0.542266
C41   C     C_R   0.167212 0.920110 0.646874 0.568548
C42   C     C_R   0.610229 0.695368 0.102050 0.538371
C43   C     C_R   0.700897 0.392104 0.912135 0.673822
C44   C     C_R   0.333015 0.579763 0.147017 0.569097
C45   C     C_R   0.590033 0.680350 0.865930 0.542600
C46   C     C_R   0.389698 0.304605 0.101789 0.539549
C47   C     C_R   0.299254 0.392180 0.089051 0.671847
C48   C     C_R   0.666217 0.578670 0.852610 0.530904
C49   C     C_R   0.409021 0.681416 0.132795 0.543746
C50   C     C_R   0.610487 0.304599 0.898283 0.537161
C51   C     C_R   0.700718 0.607877 0.089013 0.672977
C52   C     C_R   0.910030 0.819405 0.366094 0.544103
C53   C     C_R   0.333912 0.421328 0.852530 0.530676
C54   C     C_R   0.590670 0.319132 0.133426 0.543372
C55   C     C_R   0.389564 0.695387 0.898331 0.539164
C56   C     C_R   0.249492 0.237745 0.633192 0.203704
C57   C     C_R   0.829215 0.822311 0.242401 0.213839
C58   C     C_R   0.828876 0.179354 0.756908 0.212996
C59   C     C_R   0.250014 0.763288 0.367527 0.208175
C60   C     C_R   0.750739 0.762187 0.633478 0.202386
C61   C     C_R   0.171587 0.177749 0.242807 0.214031
C62   C     C_R   0.172086 0.820272 0.756201 0.216084
C63   C     C_R   0.110117 0.195334 0.602203 0.538144
C64   C     C_R   0.750357 0.237695 0.367126 0.202119
C65   C     C_R   0.749679 0.737546 0.133130 0.204070
C66   C     C_R   0.328921 0.322705 0.742359 0.214122
C67   C     C_R   0.328310 0.679456 0.256568 0.216123
C68   C     C_R   0.750128 0.263349 0.867513 0.208119
C69   C     C_R   0.250392 0.262344 0.132936 0.203157
C70   C     C_R   0.671338 0.677249 0.742578 0.214350
C71   C     C_R   0.671770 0.321964 0.256920 0.216770
C72   C     C_R   0.250054 0.736671 0.867496 0.207916
C73   C     C_R   0.809744 0.183828 0.393701 -0.414551
C74   C     C_R   0.200883 0.892114 0.412045 0.673503
C75   C     C_R   0.144808 0.852039 0.682402 -0.378621
C76   C     C_R   0.857072 0.853687 0.316108 -0.359346
C77   C     C_R   0.190112 0.183690 0.606956 -0.417309
C78   C     C_R   0.190328 0.816359 0.394410 -0.417403
C79   C     C_R   0.856241 0.147524 0.683103 -0.361792
C80   C     C_R   0.143618 0.146326 0.316420 -0.357054
C81   C     C_R   0.809988 0.816245 0.607026 -0.413120
C82   C     C_R   0.309664 0.683676 0.894618 -0.417903
C83   C     C_R   0.644127 0.353176 0.183122 -0.376853
C84   C     C_R   0.356952 0.354062 0.815996 -0.355595
C85   C     C_R   0.833778 0.079503 0.647471 0.536316
C86   C     C_R   0.690219 0.683702 0.106658 -0.418509
C87   C     C_R   0.690389 0.316339 0.894514 -0.417172
C88   C     C_R   0.355562 0.647738 0.182704 -0.378152
C89   C     C_R   0.643222 0.645925 0.816133 -0.356273
C90   C     C_R   0.309706 0.316283 0.106353 -0.418134
C91   C     C_R   0.265037 0.354439 0.703096 -0.215286
C92   C     C_R   0.820055 0.710313 0.163319 -0.188585
C93   C     C_R   0.732198 0.186241 0.858122 -0.192193
C94   C     C_R   0.359766 0.748299 0.283011 -0.206531
C95   C     C_R   0.735331 0.645569 0.703412 -0.214859
C96   C     C_R   0.090334 0.180600 0.366231 0.544585
C97   C     C_R   0.179985 0.289407 0.163210 -0.188642
C98   C     C_R   0.268275 0.813665 0.857833 -0.191067
C99   C     C_R   0.639017 0.254420 0.284935 -0.208883
C100  C     C_R   0.266439 0.646501 0.297987 -0.214296
C101  C     C_R   0.818345 0.292286 0.834481 -0.204105
C102  C     C_R   0.730363 0.814243 0.143574 -0.194289
C103  C     C_R   0.361677 0.255167 0.714154 -0.208114
C104  C     C_R   0.735084 0.354087 0.296784 -0.214797
C105  C     C_R   0.181876 0.707758 0.834363 -0.205426
C106  C     C_R   0.270079 0.185773 0.143643 -0.192607
C107  C     C_R   0.889961 0.804662 0.602209 0.538554
C108  C     C_R   0.638518 0.744707 0.714364 -0.208922
C109  C     C_R   0.765760 0.854392 0.202717 -0.213698
C110  C     C_R   0.320157 0.210849 0.663023 -0.188071
C111  C     C_R   0.231837 0.686267 0.357933 -0.191820
C112  C     C_R   0.859966 0.248467 0.783044 -0.208856
C113  C     C_R   0.235216 0.145866 0.203219 -0.214828
C114  C     C_R   0.680028 0.789029 0.663302 -0.187383
C115  C     C_R   0.769876 0.314286 0.356483 -0.193500
C116  C     C_R   0.140633 0.751415 0.782553 -0.207232
C117  C     C_R   0.767130 0.146306 0.798450 -0.212409
C118  C     C_R   0.799348 0.892062 0.589444 0.669595
C119  C     C_R   0.318340 0.792096 0.334611 -0.205128
C120  C     C_R   0.229844 0.314338 0.643824 -0.194320
C121  C     C_R   0.861599 0.754456 0.214576 -0.209325
C122  C     C_R   0.233842 0.853305 0.797750 -0.214141
C123  C     C_R   0.680089 0.210498 0.336694 -0.188709
C124  C     C_R   0.770526 0.685647 0.644176 -0.194263
C125  C     C_R   0.138812 0.245321 0.214768 -0.209659
C126  C     C_3   0.693563 0.102444 0.492820 -0.289068
C127  C     C_3   0.151781 0.013210 0.737348 -0.316539
C128  C     C_3   0.855566 0.708590 0.407479 -0.161857
H1    H     H_    0.699161 0.165352 0.498120 0.108775
H2    H     H_    0.126961 0.250387 0.737483 0.111633
H3    H     H_    0.410983 0.773347 0.258032 0.171355
H4    H     H_    0.762663 0.593087 0.720674 0.191586
H5    H     H_    0.159564 0.346741 0.154423 0.189744
H6    H     H_    0.316610 0.839688 0.887958 0.176579
H7    H     H_    0.586692 0.230435 0.261120 0.168473
H8    H     H_    0.240145 0.593128 0.282036 0.191341
H9    H     H_    0.835979 0.350926 0.841167 0.184504
H10   H     H_    0.681057 0.839794 0.114676 0.179742
H11   H     H_    0.414405 0.231504 0.737471 0.166179
H12   H     H_    0.762227 0.406720 0.279755 0.191629
H13   H     H_    0.033122 0.204755 0.730358 0.099073
H14   H     H_    0.164016 0.649216 0.841256 0.184563
H15   H     H_    0.319401 0.160275 0.114681 0.179546
H16   H     H_    0.585721 0.768310 0.737623 0.166521
H17   H     H_    0.738936 0.907281 0.219548 0.191929
H18   H     H_    0.340577 0.153506 0.654248 0.189565
H19   H     H_    0.183425 0.660301 0.387959 0.176812
H20   H     H_    0.911017 0.273671 0.757896 0.171471
H21   H     H_    0.262518 0.093332 0.220370 0.191497
H22   H     H_    0.659488 0.846313 0.654530 0.191062
H23   H     H_    0.819092 0.339836 0.385543 0.179566
H24   H     H_    0.041055 0.307174 0.732974 0.165894
H25   H     H_    0.089539 0.726267 0.757421 0.172035
H26   H     H_    0.741160 0.092708 0.782756 0.191532
H27   H     H_    0.336198 0.850647 0.341471 0.184534
H28   H     H_    0.180382 0.339759 0.615083 0.180222
H29   H     H_    0.914007 0.730460 0.238246 0.167066
H30   H     H_    0.260148 0.906667 0.781839 0.191345
H31   H     H_    0.659765 0.153141 0.345412 0.191306
H32   H     H_    0.820024 0.660237 0.615452 0.180380
H33   H     H_    0.086323 0.269169 0.238420 0.167710
H34   H     H_    0.260756 0.850018 0.532304 0.089642
H35   H     H_    0.327574 0.927737 0.540759 0.209280
H36   H     H_    0.351273 0.849864 0.478745 0.132365
H37   H     H_    0.857974 0.022944 0.789395 0.145378
H38   H     H_    0.907857 0.974178 0.711975 0.117689
H39   H     H_    0.824981 0.931486 0.757828 0.165767
H40   H     H_    0.195059 0.289604 0.367304 0.113734
H41   H     H_    0.716712 0.075007 0.545441 0.210027
H42   H     H_    0.160410 0.264114 0.463420 0.112253
H43   H     H_    0.131835 0.352280 0.419793 0.171179
H44   H     H_    0.873248 0.750719 0.737844 0.111289
H45   H     H_    0.967225 0.796110 0.730358 0.099642
H46   H     H_    0.959035 0.693741 0.733636 0.165595
H47   H     H_    0.698606 0.834954 0.502803 0.109042
H48   H     H_    0.717719 0.924933 0.455320 0.209602
H49   H     H_    0.630769 0.911941 0.509806 0.174457
H50   H     H_    0.148013 0.020993 0.210347 0.149595
H51   H     H_    0.096437 0.971978 0.286350 0.120150
H52   H     H_    0.630424 0.089272 0.490244 0.173368
H53   H     H_    0.181553 0.930338 0.243532 0.166002
H54   H     H_    0.804683 0.291031 0.632408 0.115076
H55   H     H_    0.836994 0.263142 0.536221 0.111778
H56   H     H_    0.866988 0.352132 0.577132 0.171922
H57   H     H_    0.128548 0.747508 0.263532 0.110650
H58   H     H_    0.035317 0.794417 0.269693 0.096831
H59   H     H_    0.041895 0.691861 0.268020 0.166515
H60   H     H_    0.299151 0.164846 0.501123 0.104614
H61   H     H_    0.283864 0.073532 0.454914 0.211247
H62   H     H_    0.369501 0.090291 0.510417 0.169365
H63   H     H_    0.143714 0.976772 0.789048 0.147397
H64   H     H_    0.855545 0.978343 0.209994 0.146210
H65   H     H_    0.906825 0.026739 0.286805 0.117632
H66   H     H_    0.823055 0.069579 0.242700 0.165596
H67   H     H_    0.195348 0.709174 0.631191 0.113467
H68   H     H_    0.161280 0.734630 0.534914 0.114960
H69   H     H_    0.132215 0.646668 0.578484 0.171923
H70   H     H_    0.871853 0.249489 0.262502 0.111134
H71   H     H_    0.965416 0.203290 0.269365 0.097745
H72   H     H_    0.958078 0.305776 0.265906 0.165818
H73   H     H_    0.239207 0.649770 0.032653 0.089775
H74   H     H_    0.093511 0.025415 0.711868 0.117937
H75   H     H_    0.171768 0.572515 0.040510 0.208655
H76   H     H_    0.148996 0.650652 0.978582 0.131996
H77   H     H_    0.645769 0.477964 0.289597 0.148433
H78   H     H_    0.594244 0.526183 0.212915 0.117593
H79   H     H_    0.678061 0.569155 0.256804 0.167995
H80   H     H_    0.305204 0.210881 0.866737 0.113904
H81   H     H_    0.340241 0.235749 0.962906 0.112395
H82   H     H_    0.368483 0.147784 0.918553 0.170974
H83   H     H_    0.627167 0.750623 0.237312 0.110926
H84   H     H_    0.533377 0.704838 0.230153 0.099143
H85   H     H_    0.176624 0.068150 0.757303 0.168155
H86   H     H_    0.541143 0.807254 0.232768 0.165823
H87   H     H_    0.760688 0.350214 0.032563 0.089534
H88   H     H_    0.827911 0.427638 0.040699 0.209059
H89   H     H_    0.851048 0.349573 0.978715 0.131906
H90   H     H_    0.356440 0.522936 0.289165 0.147431
H91   H     H_    0.406814 0.474553 0.211857 0.117872
H92   H     H_    0.323738 0.431570 0.257078 0.168047
H93   H     H_    0.694847 0.789115 0.867135 0.113381
H94   H     H_    0.659574 0.764321 0.963220 0.112765
H95   H     H_    0.631438 0.852251 0.918832 0.170972
H96   H     H_    0.805153 0.710636 0.367161 0.113689
H97   H     H_    0.371916 0.251163 0.237691 0.111050
H98   H     H_    0.465604 0.297086 0.230572 0.098485
H99   H     H_    0.458035 0.194646 0.234443 0.165456
H100  H     H_    0.199300 0.335313 0.001826 0.104994
H101  H     H_    0.216603 0.425873 0.954835 0.209601
H102  H     H_    0.130416 0.411269 0.010123 0.170673
H103  H     H_    0.648243 0.520593 0.710203 0.149859
H104  H     H_    0.596432 0.471675 0.786130 0.120333
H105  H     H_    0.681681 0.429993 0.743620 0.166022
H106  H     H_    0.304814 0.790529 0.131585 0.113412
H107  H     H_    0.839907 0.735975 0.463304 0.112379
H108  H     H_    0.339137 0.765403 0.035269 0.115000
H109  H     H_    0.367984 0.853272 0.079275 0.171812
H110  H     H_    0.628720 0.246867 0.763765 0.110402
H111  H     H_    0.535742 0.294257 0.769770 0.096181
H112  H     H_    0.541773 0.191665 0.768346 0.166873
H113  H     H_    0.798840 0.665238 0.000720 0.104052
H114  H     H_    0.784310 0.573919 0.954311 0.210955
H115  H     H_    0.869618 0.591098 0.010195 0.169582
H116  H     H_    0.352130 0.479381 0.710184 0.149786
H117  H     H_    0.403869 0.528248 0.786231 0.120350
H118  H     H_    0.868279 0.647790 0.419477 0.171049
H119  H     H_    0.318713 0.570003 0.743672 0.166000
H120  H     H_    0.694937 0.210282 0.132327 0.112935
H121  H     H_    0.659505 0.234015 0.036013 0.114706
H122  H     H_    0.631361 0.146692 0.081505 0.171339
H123  H     H_    0.371314 0.751760 0.763398 0.110564
H124  H     H_    0.464487 0.704761 0.769671 0.096478
H125  H     H_    0.458040 0.807319 0.767497 0.166459
H126  H     H_    0.237753 0.406974 0.720329 0.191588
H127  H     H_    0.840140 0.652819 0.154760 0.189659
H128  H     H_    0.683814 0.160241 0.888165 0.176560
N1    N     N_R   0.868470 0.074730 0.422590 -0.128995
N2    N     N_R   0.131530 0.074730 0.422590 -0.143034
N3    N     N_R   0.925270 0.131530 0.577410 -0.136754
N4    N     N_R   0.074730 0.868470 0.422590 -0.145101
N5    N     N_R   0.131530 0.074730 0.577410 -0.129385
N6    N     N_R   0.868470 0.925270 0.422590 -0.144075
N7    N     N_R   0.074730 0.868470 0.577410 -0.138625
N8    N     N_R   0.925270 0.131530 0.422590 -0.144631
N9    N     N_R   0.368470 0.574730 0.922590 -0.128061
N10   N     N_R   0.631530 0.425270 0.077410 -0.136631
N11   N     N_R   0.425270 0.368470 0.922590 -0.137110
N12   N     N_R   0.131530 0.925270 0.577410 -0.136625
N13   N     N_R   0.574730 0.631530 0.077410 -0.145376
N14   N     N_R   0.631530 0.425270 0.922590 -0.127972
N15   N     N_R   0.368470 0.574730 0.077410 -0.136722
N16   N     N_R   0.574730 0.631530 0.922590 -0.136994
N17   N     N_R   0.425270 0.368470 0.077410 -0.145449
N18   N     N_R   0.368470 0.425270 0.077410 -0.129337
N19   N     N_R   0.631530 0.574730 0.922590 -0.142873
N20   N     N_R   0.425270 0.631530 0.077410 -0.138955
N21   N     N_R   0.574730 0.368470 0.922590 -0.145229
N22   N     N_R   0.631530 0.574730 0.077410 -0.129244
N23   N     N_R   0.925270 0.868470 0.422590 -0.136732
N24   N     N_R   0.368470 0.425270 0.922590 -0.143304
N25   N     N_R   0.574730 0.368470 0.077410 -0.139189
N26   N     N_R   0.425270 0.631530 0.922590 -0.145325
N27   N     N_R   0.074730 0.131530 0.577410 -0.145201
N28   N     N_R   0.131530 0.925270 0.422590 -0.128208
N29   N     N_R   0.868470 0.074730 0.577410 -0.143985
N30   N     N_R   0.074730 0.131530 0.422590 -0.136743
N31   N     N_R   0.925270 0.868470 0.577410 -0.144336
N32   N     N_R   0.868470 0.925270 0.577410 -0.129163
Ni1   Ni    Ni4+2 0.869670 1.000000 0.500000 0.212679
Ni2   Ni    Ni4+2 0.130330 1.000000 0.500000 0.224675
Ni3   Ni    Ni4+2 1.000000 0.869670 0.500000 0.237252
Ni4   Ni    Ni4+2 0.000000 0.130330 0.500000 0.236549
Ni5   Ni    Ni4+2 0.369670 0.500000 0.000000 0.224182
Ni6   Ni    Ni4+2 0.630330 0.500000 0.000000 0.224693
Ni7   Ni    Ni4+2 0.500000 0.369670 0.000000 0.235486
Ni8   Ni    Ni4+2 0.500000 0.630330 0.000000 0.236364
O1    O     O_3   0.729618 0.071256 0.426521 -0.595237
O2    O     O_3   0.205133 0.019099 0.317950 -0.597634
O3    O     O_3   0.921469 0.258579 0.623521 -0.567904
O4    O     O_3   0.071685 0.741212 0.371796 -0.563379
O5    O     O_3   0.270318 0.071049 0.573774 -0.589779
O6    O     O_3   0.796944 0.981274 0.316717 -0.589013
O7    O     O_3   0.078309 0.741307 0.623294 -0.566511
O8    O     O_3   0.928865 0.258080 0.370583 -0.563649
O9    O     O_3   0.230806 0.573506 0.936957 -0.602403
O10   O     O_3   0.704162 0.480760 0.182744 -0.587546
O11   O     O_3   0.422396 0.242282 0.873626 -0.569488
O12   O     O_3   0.203912 0.980127 0.683196 -0.587028
O13   O     O_3   0.571042 0.758428 0.128755 -0.564069
O14   O     O_3   0.769176 0.426532 0.936986 -0.602443
O15   O     O_3   0.296347 0.519711 0.183257 -0.586864
O16   O     O_3   0.577640 0.757713 0.873756 -0.569032
O17   O     O_3   0.428846 0.242023 0.129609 -0.564026
O18   O     O_3   0.229670 0.429170 0.073758 -0.589521
O19   O     O_3   0.705019 0.518852 0.817993 -0.597965
O20   O     O_3   0.421913 0.758568 0.123793 -0.567116
O21   O     O_3   0.571801 0.241095 0.872018 -0.563932
O22   O     O_3   0.770297 0.571098 0.073101 -0.589630
O23   O     O_3   0.922323 0.742066 0.374221 -0.568933
O24   O     O_3   0.295193 0.481153 0.817905 -0.597755
O25   O     O_3   0.577709 0.241889 0.125367 -0.566691
O26   O     O_3   0.428307 0.758625 0.871556 -0.563380
O27   O     O_3   0.070782 0.258298 0.628937 -0.564333
O28   O     O_3   0.269193 0.926512 0.436845 -0.602752
O29   O     O_3   0.797337 0.019379 0.683817 -0.588586
O30   O     O_3   0.077958 0.257940 0.374377 -0.568006
O31   O     O_3   0.929359 0.741929 0.629317 -0.564078
O32   O     O_3   0.729591 0.928765 0.574373 -0.595649

loop_
_geom_bond_atom_site_label_1
_geom_bond_atom_site_label_2
_ccdc_geom_bond_type
C95   C124  A    
C71   C104  A    
C13   C79   A    
C10   H56   S    
C105  C116  A    
C108  H16   S    
C128  H96   S    
C8    H47   S    
C26   H102  S    
C26   O18   S    
C50   N21   A    
C32   H120  S    
C58   C112  A    
C57   C76   S    
C15   H69   S    
C61   C80   S    
C18   O10   S    
C48   O19   S    
N8    Ni4   S    
C85   O29   S    
C57   C109  A    
C30   H113  S    
C67   C94   A    
C59   C111  A    
C126  H52   S    
C42   C86   A    
C40   O11   S    
C14   H66   S    
N28   Ni2   S    
C64   C115  A    
C7    H44   S    
C96   O30   S    
C54   C83   A    
N4    N28   A    
C31   H116  S    
C106  H15   S    
C68   C101  A    
C101  H9    S    
C126  H1    S    
C35   O6    S    
C71   C99   A    
C104  H12   S    
N19   Ni6   S    
C28   H109  S    
N21   Ni7   S    
C23   H94   S    
C128  O23   S    
N5    Ni2   S    
C16   O8    S    
C122  H30   S    
C21   H88   S    
C14   O6    S    
C38   O9    S    
C17   H73   S    
C9    O2    S    
C67   C100  A    
C15   H68   S    
C95   H4    S    
C10   H54   S    
C62   C75   S    
C114  H22   S    
C79   C85   A    
C16   H70   S    
C5    O29   S    
N7    Ni3   S    
C66   C103  A    
C109  H17   S    
N27   Ni4   S    
C24   N4    A    
C128  H118  S    
C46   O17   S    
C123  H31   S    
N16   N19   A    
C24   O4    S    
C127  O12   S    
C124  H32   S    
C25   H97   S    
C20   H84   S    
C92   H127  S    
C100  C111  A    
C115  H23   S    
C102  C109  A    
C28   H106  S    
C53   N24   A    
C22   H91   S    
C19   H82   S    
C60   C114  A    
C3    H13   S    
C97   H5    S    
C93   H128  S    
N1    Ni1   S    
C34   O5    S    
C101  C112  A    
C103  C110  A    
N14   N21   A    
N18   Ni5   S    
C30   O22   S    
N20   Ni8   S    
C74   O28   S    
N6    N23   A    
N22   Ni6   S    
N29   Ni1   S    
N11   N24   A    
C13   O3    S    
C55   O26   S    
C17   H75   S    
C10   O3    S    
C3    O27   S    
C20   O13   S    
C64   C73   S    
C22   O15   S    
C16   H72   S    
C14   H64   S    
C27   O19   S    
C93   C117  A    
C8    H49   S    
C59   C78   S    
N17   N18   A    
C71   C83   S    
N15   N20   A    
C6    H40   S    
C35   C76   A    
C106  C113  A    
C36   N7    A    
C19   O11   S    
C105  H14   S    
C127  H85   S    
C32   H121  S    
C25   H99   S    
C58   C117  A    
C127  H63   S    
C18   H79   S    
C20   H86   S    
C33   H124  S    
C107  N31   A    
C40   N11   A    
C36   C75   A    
N14   Ni6   S    
C60   C81   S    
C15   O7    S    
N9    Ni5   S    
C4    H35   S    
C23   O16   S    
C5    H38   S    
N11   Ni7   S    
C50   C87   A    
C28   H108  S    
C52   N23   A    
C23   H95   S    
C7    O31   S    
C19   H80   S    
C53   O24   S    
C70   C89   S    
C29   H110  S    
C62   C122  A    
C36   O7    S    
C6    H42   S    
C98   C122  A    
C34   N5    A    
C45   O16   S    
C52   C76   A    
C8    H48   S    
C67   C88   S    
C41   O12   S    
N6    Ni1   S    
N30   Ni4   S    
C48   C89   A    
C13   N3    A    
C37   N8    A    
C70   C108  A    
N25   Ni7   S    
N26   Ni8   S    
N3    Ni4   S    
C128  H107  S    
C47   C90   A    
C127  H74   S    
C63   O27   S    
C9    H53   S    
C27   H104  S    
C30   H114  S    
C68   C87   S    
C110  H18   S    
C100  H8    S    
C69   C97   A    
C45   N16   A    
C81   C107  A    
C11   H58   S    
C40   C84   A    
C43   O14   S    
C44   O15   S    
C47   N18   A    
C65   C86   S    
C126  O1    S    
C37   O8    S    
C12   H61   S    
C3    H24   S    
C18   H77   S    
C1    O1    S    
C38   N9    A    
C34   C77   A    
C3    H2    S    
C7    H46   S    
C120  H28   S    
N17   Ni7   S    
C108  C114  A    
N15   Ni5   S    
N5    N27   A    
C31   O24   S    
C23   H93   S    
C26   H100  S    
C12   O5    S    
C52   O23   S    
C96   N30   A    
C21   H87   S    
C45   C89   A    
C29   H112  S    
C118  N32   A    
C15   H67   S    
N2    Ni2   S    
C54   N25   A    
C74   N28   A    
C38   C82   A    
C47   O18   S    
C10   H55   S    
C49   C88   A    
C51   C86   A    
N9    N26   A    
C1    N1    A    
C26   H101  S    
N7    N12   A    
C46   N17   A    
C33   H123  S    
C39   O10   S    
C97   C125  A    
C21   H89   S    
C81   C118  A    
C111  H19   S    
C41   C75   A    
C104  C115  A    
N31   N32   A    
C99   H7    S    
C54   O25   S    
C116  H25   S    
C49   O20   S    
N16   Ni8   S    
C44   N15   A    
C24   C78   A    
C14   H65   S    
C53   C84   A    
C42   O13   S    
C4    H34   S    
C35   N6    A    
C22   H92   S    
C59   C119  A    
C19   H81   S    
C125  H33   S    
C69   C106  A    
C46   C90   A    
C64   C123  A    
C94   H3    S    
N2    N30   A    
N10   Ni6   S    
C1    C73   A    
C39   C83   A    
C51   O22   S    
C25   O17   S    
C33   O26   S    
C28   O20   S    
C72   C105  A    
C74   C78   A    
C17   O9    S    
C117  H26   S    
C41   N12   A    
C9    H50   S    
C65   C92   A    
N1    N8    A    
C39   N10   A    
C63   N27   A    
C11   O4    S    
C72   C98   A    
C85   N29   A    
C11   H59   S    
C12   H60   S    
C32   H122  S    
C25   H98   S    
C6    O30   S    
C102  H10   S    
C20   H83   S    
N3    N29   A    
C43   N14   A    
C49   N20   A    
N13   Ni8   S    
C55   N26   A    
C4    H36   S    
C5    H37   S    
C80   C96   A    
C118  O32   S    
C22   H90   S    
N4    Ni3   S    
C121  H29   S    
C56   C120  A    
C31   H119  S    
C65   C102  A    
C2    O2    S    
C56   C110  A    
C6    H43   S    
C113  H21   S    
C50   O21   S    
C66   C84   S    
C56   C77   S    
C112  H20   S    
C51   N22   A    
C32   O25   S    
C17   H76   S    
C62   C116  A    
C103  H11   S    
C94   C119  A    
N24   Ni5   S    
C55   C82   A    
C107  O31   S    
C16   H71   S    
C58   C79   S    
N10   N25   A    
C27   H103  S    
C2    N2    A    
N23   Ni3   S    
C30   H115  S    
C61   C113  A    
N31   Ni3   S    
C60   C124  A    
N12   Ni2   S    
C69   C90   S    
C99   C123  A    
C63   C77   A    
C37   C73   A    
C119  H27   S    
C11   H57   S    
C9    H51   S    
C66   C91   A    
C91   H126  S    
C12   H62   S    
C98   H6    S    
C68   C93   A    
C18   H78   S    
C43   C87   A    
N32   Ni1   S    
C42   N13   A    
C33   H125  S    
C70   C95   A    
C126  H41   S    
C92   C121  A    
C21   O14   S    
C7    H45   S    
N13   N22   A    
C5    H39   S    
C29   O21   S    
C8    O32   S    
C2    C80   A    
C27   H105  S    
C57   C121  A    
C48   N19   A    
C4    O28   S    
C91   C120  A    
C31   H117  S    
C61   C125  A    
C44   C88   A    
C29   H111  S    
C72   C82   S    
