data_mof_unit_6677.cif
_audit_creation_date              2012-12-10T20:29:31-0500
_audit_creation_method            fapswitch 2.2
_symmetry_space_group_name_H-M    P1
_symmetry_Int_Tables_number       1
_space_group_crystal_system       triclinic
_cell_length_a                    18.774053
_cell_length_b                    18.615093
_cell_length_c                    18.945427
_cell_angle_alpha                 109.699663
_cell_angle_beta                  109.98025
_cell_angle_gamma                 109.193208
_cell_volume                      5067.60498193

loop_
_atom_site_label
_atom_site_type_symbol
_atom_type_description
_atom_site_fract_x
_atom_site_fract_y
_atom_site_fract_z
_atom_type_partial_charge
C1    C     C_R   0.380804 0.501745 0.380072 0.887360
C2    C     C_R   0.807362 0.167351 0.782694 -0.130923
C3    C     C_R   0.997321 0.734414 0.322714 -0.009863
C4    C     C_R   0.098091 0.827030 0.134395 -0.146675
C5    C     C_R   0.867353 0.800199 0.808906 -0.148472
C6    C     C_R   0.112097 0.824943 0.066307 -0.148901
C7    C     C_R   0.041744 0.773391 0.980358 0.007264
C8    C     C_R   0.956027 0.730986 0.964524 -0.239442
C9    C     C_R   0.940600 0.733428 0.032654 -0.015083
C10   C     C_R   0.013541 0.777890 0.117875 0.036938
C11   C     C_R   0.291661 0.284864 0.769589 -0.181706
C12   C     C_R   0.214351 0.260022 0.772613 -0.065991
C13   C     C_R   0.732668 0.156205 0.788093 -0.159989
C14   C     C_R   0.159414 0.292778 0.745137 0.098663
C15   C     C_R   0.183425 0.351896 0.716304 -0.193313
C16   C     C_R   0.261052 0.377546 0.714298 -0.187895
C17   C     C_2   0.443286 0.725302 0.339628 0.958716
C18   C     C_2   0.542704 0.903821 0.499956 1.016672
C19   C     C_2   0.248728 0.380694 0.033410 0.896598
C20   C     C_2   0.147536 0.266580 0.295943 0.877698
C21   C     C_2   0.662484 0.830612 0.657634 0.948099
C22   C     C_2   0.412305 0.246353 0.522352 0.945536
C23   C     C_2   0.904768 0.756229 0.694211 0.923515
C24   C     C_R   0.681781 0.188584 0.751446 0.042893
C25   C     C_2   0.149292 0.763045 0.617996 0.880475
C26   C     C_2   0.156768 0.815573 0.487980 0.996698
C27   C     C_2   0.827670 0.603312 0.294536 0.924236
C28   C     C_2   0.017268 0.603174 0.270789 0.957802
C29   C     C_2   0.058499 0.760609 0.907380 0.921852
C30   C     C_2   0.848348 0.688549 0.012039 0.859877
C31   C     C_2   0.398077 0.372248 0.738044 0.900592
C32   C     C_2   0.606115 0.182921 0.762662 0.892436
C33   C     C_2   0.795597 0.276204 0.643090 0.872641
C34   C     C_2   0.510545 0.652712 0.116881 0.911457
C35   C     C_R   0.821515 0.824836 0.575993 -0.147275
C36   C     C_R   0.704308 0.228036 0.705164 -0.170433
C37   C     C_R   0.778678 0.238497 0.697633 -0.043210
C38   C     C_R   0.832913 0.210955 0.740622 0.046437
C39   C     C_R   0.810883 0.812145 0.495478 -0.074650
C40   C     C_R   0.733578 0.741051 0.416401 0.033913
C41   C     C_R   0.673776 0.678463 0.422021 -0.169995
C42   C     C_R   0.817265 0.823878 0.841031 -0.091373
C43   C     C_R   0.686359 0.689526 0.502815 -0.053449
C44   C     C_R   0.758849 0.765335 0.581051 0.079384
C45   C     C_R   0.625625 0.701666 0.266846 -0.197143
C46   C     C_R   0.602247 0.685724 0.181829 -0.005877
C47   C     C_R   0.666860 0.700198 0.158596 -0.162884
C48   C     C_R   0.621927 0.621083 0.502483 0.858143
C49   C     C_R   0.752407 0.728475 0.218541 -0.084820
C50   C     C_R   0.774246 0.741858 0.301872 -0.053713
C51   C     C_R   0.711693 0.729297 0.327779 0.092149
C52   C     C_R   0.389125 0.766392 0.548213 -0.070205
C53   C     C_R   0.315820 0.344122 0.740484 0.032822
C54   C     C_R   0.348806 0.681733 0.478324 -0.091700
C55   C     C_R   0.367722 0.666979 0.411073 0.040307
C56   C     C_R   0.429597 0.739498 0.414845 -0.101362
C57   C     C_R   0.472400 0.825671 0.487755 -0.045257
C58   C     C_R   0.449738 0.837860 0.552619 -0.098633
C59   C     C_R   0.243931 0.576040 0.262017 -0.179535
C60   C     C_R   0.622961 0.502634 0.619869 0.890721
C61   C     C_R   0.185977 0.497776 0.182855 -0.051374
C62   C     C_R   0.192093 0.421573 0.166977 0.027851
C63   C     C_R   0.256568 0.424657 0.233405 -0.176036
C64   C     C_R   0.074758 0.329988 0.810884 -0.213920
C65   C     C_R   0.314336 0.502847 0.314388 -0.061203
C66   C     C_R   0.308080 0.579842 0.329203 0.034110
C67   C     C_R   0.052372 0.280766 0.060037 -0.076096
C68   C     C_R   0.997469 0.201455 0.980790 -0.130899
C69   C     C_R   0.024848 0.180279 0.920825 -0.144023
C70   C     C_R   0.106900 0.238676 0.939510 -0.159201
C71   C     C_R   0.163167 0.319699 0.018645 -0.036346
C72   C     C_R   0.379659 0.379494 0.499183 0.919261
C73   C     C_R   0.135404 0.340093 0.080269 -0.003894
C74   C     C_R   0.198149 0.501827 0.502247 -0.145209
C75   C     C_R   0.996402 0.311484 0.811113 -0.059062
C76   C     C_R   0.227838 0.448375 0.523439 -0.114360
C77   C     C_R   0.211979 0.370784 0.457976 0.018900
C78   C     C_R   0.166859 0.347652 0.369287 -0.021033
C79   C     C_R   0.137726 0.402827 0.349526 -0.175138
C80   C     C_R   0.152539 0.478683 0.415453 -0.141272
C81   C     C_R   0.173102 0.246722 0.484163 -0.209089
C82   C     C_R   0.186966 0.181411 0.495700 -0.093113
C83   C     C_R   0.263139 0.177687 0.504468 -0.078256
C84   C     C_R   0.748852 0.830303 0.789786 -0.231127
C85   C     C_R   0.329002 0.245485 0.508724 -0.069212
C86   C     C_R   0.918602 0.230224 0.746738 0.063507
C87   C     C_R   0.314578 0.312124 0.498969 -0.072300
C88   C     C_R   0.235298 0.310896 0.483220 0.039797
C89   C     C_R   0.337115 0.110947 0.575385 -0.116439
C90   C     C_R   0.359844 0.045469 0.567689 -0.044644
C91   C     C_R   0.317286 0.969189 0.486873 0.037626
C92   C     C_R   0.249202 0.956416 0.414449 -0.094387
C93   C     C_R   0.226685 0.022013 0.421730 -0.120083
C94   C     C_R   0.272219 0.100731 0.501841 0.133656
C95   C     C_R   0.780619 0.519635 0.613329 -0.132265
C96   C     C_R   0.729018 0.812276 0.705104 -0.046645
C97   C     C_R   0.921829 0.167687 0.684607 -0.192037
C98   C     C_R   0.851131 0.517529 0.605403 -0.091875
C99   C     C_R   0.908191 0.503717 0.661490 -0.086731
C100  C     C_R   0.896237 0.494073 0.727101 -0.078291
C101  C     C_R   0.826440 0.498414 0.737878 0.115880
C102  C     C_R   0.765811 0.507414 0.677873 0.079688
C103  C     C_R   0.692499 0.504703 0.684899 -0.118731
C104  C     C_R   0.681107 0.496522 0.751220 -0.108365
C105  C     C_R   0.741051 0.489471 0.810784 -0.141519
C106  C     C_R   0.814142 0.492271 0.805786 -0.150270
C107  C     C_R   0.996620 0.875994 0.380467 0.848065
C108  C     C_R   0.000599 0.186442 0.685682 -0.077963
C109  C     C_R   0.776057 0.782145 0.669608 -0.055800
C110  C     C_R   0.879226 0.878444 0.497949 0.846033
C111  C     C_R   0.000465 0.120517 0.619834 0.881789
C112  C     C_R   0.120362 0.117845 0.497965 0.892837
C113  C     C_R   0.998103 0.379015 0.878406 0.846893
C114  C     C_R   0.119934 0.497904 0.117628 0.912259
C115  C     C_R   0.002162 0.620664 0.121728 0.922332
C116  C     C_R   0.879880 0.496352 0.876491 0.849616
C117  C     C_R   0.068846 0.735812 0.538705 -0.077336
C118  C     C_R   0.071393 0.756119 0.473486 -0.131873
C119  C     C_R   0.077686 0.267835 0.748315 -0.006449
C120  C     C_R   0.992534 0.718880 0.394242 -0.044256
C121  C     C_R   0.847200 0.778179 0.723495 -0.023735
C122  C     C_R   0.911597 0.658678 0.380319 -0.014157
C123  C     C_R   0.910634 0.645833 0.448894 -0.146964
C124  C     C_R   0.987738 0.683308 0.526283 -0.139885
C125  C     C_R   0.005204 0.675214 0.260859 0.018670
C126  C     C_R   0.006596 0.687885 0.191866 -0.127792
C127  C     C_R   0.006404 0.761634 0.187055 0.045581
C128  C     C_R   0.001214 0.820939 0.249219 -0.228676
C129  C     C_R   0.996292 0.807804 0.315937 -0.097493
H1    H     H_    0.801723 0.738652 0.199909 0.199863
H2    H     H_    0.112862 0.247089 0.474598 0.163759
H3    H     H_    0.372675 0.171342 0.637369 0.161284
H4    H     H_    0.411282 0.054294 0.623956 0.164673
H5    H     H_    0.215131 0.896427 0.352364 0.142389
H6    H     H_    0.176907 0.013369 0.364225 0.127550
H7    H     H_    0.738879 0.531996 0.569132 0.163503
H8    H     H_    0.961983 0.500506 0.654215 0.148538
H9    H     H_    0.940891 0.480945 0.767320 0.154314
H10   H     H_    0.731768 0.484732 0.862807 0.191385
H11   H     H_    0.984113 0.666698 0.574941 0.196755
H12   H     H_    0.840070 0.760829 0.345916 0.083452
H13   H     H_    0.850107 0.602308 0.441302 0.204103
H14   H     H_    0.002429 0.878560 0.246322 0.155878
H15   H     H_    0.154172 0.861853 0.199408 0.141941
H16   H     H_    0.332735 0.258254 0.790572 0.172634
H17   H     H_    0.879034 0.882217 0.635740 0.140145
H18   H     H_    0.862788 0.104745 0.634739 0.152894
H19   H     H_    0.847037 0.144188 0.813792 0.135361
H20   H     H_    0.616176 0.620636 0.362877 0.173485
H21   H     H_    0.576773 0.692446 0.285765 0.215454
H22   H     H_    0.833286 0.839958 0.906958 0.167872
H23   H     H_    0.372883 0.776780 0.599042 0.178263
H24   H     H_    0.651244 0.688881 0.093901 0.195249
H25   H     H_    0.480929 0.902894 0.608417 0.178817
H26   H     H_    0.458172 0.768185 0.258193 0.372700
H27   H     H_    0.645136 0.952699 0.483440 0.350978
H28   H     H_    0.238717 0.634594 0.271667 0.184468
H29   H     H_    0.713825 0.853301 0.818015 0.144339
H30   H     H_    0.030147 0.296131 0.105998 0.171413
H31   H     H_    0.933625 0.156201 0.965949 0.135769
H32   H     H_    0.336746 0.397807 0.993377 0.362180
H33   H     H_    0.129398 0.520268 0.399398 0.160946
H34   H     H_    0.299988 0.627775 0.474874 0.146765
H35   H     H_    0.210227 0.561208 0.553226 0.153523
H36   H     H_    0.075930 0.179376 0.166647 0.352287
H37   H     H_    0.576209 0.773054 0.689664 0.297459
H38   H     H_    0.543890 0.311348 0.596565 0.363985
H39   H     H_    0.336038 0.919260 0.480782 0.160715
H40   H     H_    0.624897 0.494435 0.756317 0.172288
H41   H     H_    0.861207 0.526157 0.555211 0.152731
H42   H     H_    0.027653 0.782553 0.724793 0.378942
H43   H     H_    0.203835 0.785855 0.741017 0.354296
H44   H     H_    0.184019 0.916949 0.596640 0.304644
H45   H     H_    0.261556 0.365785 0.221661 0.170214
H46   H     H_    0.696793 0.520840 0.228571 0.359874
H47   H     H_    0.088957 0.543103 0.276060 0.326776
H48   H     H_    0.922629 0.799695 0.851234 0.169222
H49   H     H_    0.178663 0.859499 0.080545 0.183758
H50   H     H_    0.144655 0.798592 0.868471 0.367888
H51   H     H_    0.901194 0.692855 0.898328 0.194011
H52   H     H_    0.721333 0.643803 0.930463 0.350010
H53   H     H_    0.477578 0.445620 0.709920 0.362667
H54   H     H_    0.197403 0.215357 0.796396 0.162156
H55   H     H_    0.142051 0.378364 0.695597 0.159043
H56   H     H_    0.982163 0.118636 0.859346 0.142755
H57   H     H_    0.278410 0.423990 0.692721 0.173499
H58   H     H_    0.134085 0.392973 0.859791 0.176549
H59   H     H_    0.716186 0.124415 0.823168 0.169595
H60   H     H_    0.517068 0.222495 0.753305 0.362830
H61   H     H_    0.663676 0.251079 0.675101 0.217971
H62   H     H_    0.751044 0.315440 0.558354 0.356280
H63   H     H_    0.424695 0.617149 0.995288 0.352578
H64   H     H_    0.125721 0.220585 0.891094 0.176173
H65   H     H_    0.262357 0.467026 0.591071 0.143979
H66   H     H_    0.103307 0.387418 0.282813 0.172458
O1    O     O_R   0.408360 0.551710 0.460090 -0.621713
O2    O     O_R   0.948270 0.356620 0.908410 -0.621949
O3    O     O_R   0.143330 0.551680 0.091590 -0.594190
O4    O     O_R   0.408390 0.448280 0.356670 -0.611823
O5    O     O_R   0.039890 0.448260 0.091620 -0.631068
O6    O     O_R   0.051700 0.643310 0.091570 -0.618141
O7    O     O_R   0.948260 0.539890 0.091600 -0.588029
O8    O     O_R   0.960080 0.551670 0.908360 -0.623989
O9    O     O_R   0.856640 0.448250 0.908390 -0.609778
O10   O     O_R   0.591600 0.643340 0.551710 -0.628764
O11   O     O_R   0.591630 0.539900 0.448290 -0.618830
O12   O     O_R   0.948280 0.908380 0.356650 -0.627304
O13   O     O_R   0.591610 0.551720 0.643330 -0.617052
O14   O     O_R   0.591640 0.448290 0.539910 -0.614316
O15   O     O_R   0.408370 0.460100 0.551710 -0.607559
O16   O     O_R   0.408400 0.356660 0.448290 -0.596527
O17   O     O_R   0.051730 0.908360 0.460070 -0.623458
O18   O     O_2   0.446342 0.659648 0.301849 -0.597401
O19   O     O_R   0.449241 0.785171 0.309917 -0.780048
O20   O     O_2   0.553325 0.977237 0.539501 -0.642709
O21   O     O_R   0.599176 0.894418 0.469578 -0.750642
O22   O     O_2   0.292641 0.457486 0.092675 -0.553237
O23   O     O_R   0.960110 0.908350 0.551690 -0.618697
O24   O     O_R   0.278690 0.350308 0.977857 -0.825799
O25   O     O_2   0.188341 0.228490 0.308640 -0.621722
O26   O     O_R   0.082593 0.234051 0.211152 -0.831392
O27   O     O_2   0.675445 0.866138 0.616180 -0.589022
O28   O     O_R   0.585289 0.809276 0.660608 -0.786683
O29   O     O_2   0.410875 0.183741 0.471330 -0.586212
O30   O     O_R   0.492084 0.318967 0.593613 -0.813976
O31   O     O_2   0.873929 0.698723 0.619589 -0.679958
O32   O     O_R   0.995033 0.802858 0.752145 -0.772380
O33   O     O_2   0.217877 0.778120 0.618173 -0.623959
O34   O     O_R   0.856660 0.908370 0.448270 -0.612923
O35   O     O_R   0.145626 0.767887 0.691834 -0.832456
O36   O     O_2   0.181003 0.789157 0.437564 -0.618273
O37   O     O_R   0.211352 0.900843 0.560433 -0.759217
O38   O     O_2   0.825988 0.599294 0.228215 -0.592724
O39   O     O_R   0.749409 0.554794 0.289588 -0.814150
O40   O     O_2   0.965164 0.550888 0.278520 -0.613448
O41   O     O_R   0.088356 0.595081 0.270241 -0.828720
O42   O     O_2   0.000789 0.701367 0.833197 -0.628066
O43   O     O_R   0.141063 0.814773 0.923393 -0.792153
O44   O     O_2   0.830440 0.664860 0.059540 -0.617596
O45   O     O_R   0.051720 0.091580 0.643310 -0.637620
O46   O     O_R   0.781246 0.674306 0.937729 -0.822353
O47   O     O_2   0.446355 0.343641 0.760768 -0.630638
O48   O     O_R   0.420792 0.432195 0.709910 -0.809386
O49   O     O_2   0.579987 0.139631 0.793806 -0.626720
O50   O     O_R   0.565343 0.228539 0.739088 -0.792696
O51   O     O_2   0.862589 0.293241 0.639666 -0.638380
O52   O     O_R   0.733213 0.291009 0.593758 -0.798617
O53   O     O_2   0.453005 0.635118 0.135218 -0.576676
O54   O     O_R   0.489350 0.640620 0.033874 -0.806749
O55   O     O_R   0.948270 0.091600 0.539890 -0.601846
O56   O     O_R   0.143340 0.091590 0.551680 -0.612066
O57   O     O_R   0.039890 0.091610 0.448270 -0.619346
O58   O     O_R   0.051710 0.460040 0.908380 -0.630502
Zn1   Zn    Zn3+2 0.499980 0.569070 0.569050 0.991038
Zn2   Zn    Zn3+2 0.500020 0.430930 0.430950 1.039155
Zn3   Zn    Zn3+2 0.069080 0.999960 0.569030 0.968749
Zn4   Zn    Zn3+2 0.930920 0.999990 0.430930 0.996698
Zn5   Zn    Zn3+2 0.069060 0.569020 0.999970 1.008017
Zn6   Zn    Zn3+2 0.930920 0.430910 0.000010 1.018055

loop_
_geom_bond_atom_site_label_1
_geom_bond_atom_site_label_2
_ccdc_geom_bond_type
C74   H35   S    
C55   C56   A    
C63   C65   A    
C93   C94   A    
C7    C29   S    
C5    C121  A    
H62   O52   S    
C92   C93   A    
C31   O47   D    
C19   C71   S    
C18   O20   D    
O10   Zn1   S    
C30   O44   D    
C107  C129  S    
O4    Zn2   S    
H53   O48   S    
C55   C66   S    
C81   C82   A    
C57   C58   A    
C95   C98   A    
H36   O26   S    
C7    C8    A    
C47   C49   A    
C22   O30   S    
C77   C78   A    
C111  O55   A    
C101  C102  A    
C115  C126  S    
C74   C76   A    
C105  C106  A    
C38   C86   S    
C36   H61   S    
C31   O48   S    
C36   C37   A    
H44   O37   S    
C117  C124  A    
H50   O43   S    
C69   C70   A    
C59   C66   A    
C18   C57   S    
C81   H2    S    
C12   H54   S    
C41   H20   S    
C45   C51   A    
C2    H19   S    
C15   C16   A    
O12   Zn4   S    
C115  O7    A    
O1    Zn1   S    
C98   H41   S    
C79   H66   S    
C56   C57   A    
C61   C114  S    
C45   H21   S    
C84   C96   A    
C22   C85   S    
C89   C94   A    
C86   C97   A    
C2    C13   A    
C8    H51   S    
C16   C53   A    
O15   Zn1   S    
C116  O8    A    
C58   H25   S    
C27   O39   S    
O6    Zn5   S    
C97   C108  A    
O58   Zn5   S    
C39   C110  S    
C72   O15   A    
C77   C88   S    
C52   C54   A    
C8    C9    A    
C30   O46   S    
C48   O10   A    
H27   O21   S    
C1    C65   S    
C20   O26   S    
C62   C73   S    
C112  O57   A    
C70   C71   A    
C75   C113  S    
C54   H34   S    
C60   C103  S    
C9    C10   A    
C41   C43   A    
O55   Zn4   S    
C107  O12   A    
C11   C53   A    
C95   C102  A    
O2    Zn6   S    
C44   C109  S    
C50   H12   S    
C112  O56   A    
C13   H59   S    
C74   C80   A    
C34   C46   S    
C6    H49   S    
C97   H18   S    
C108  C119  A    
C68   H31   S    
C1    O4    A    
O13   Zn1   S    
C63   H45   S    
C17   O18   D    
O11   Zn2   S    
C29   O42   D    
C104  C105  A    
C116  O9    A    
C27   C122  S    
C120  C122  A    
O57   Zn4   S    
C20   O25   D    
C85   C87   A    
C18   O21   S    
C25   O35   S    
O45   Zn3   S    
C59   C61   A    
C21   O27   D    
H60   O50   S    
C102  C103  A    
C81   C88   A    
C113  O2    A    
C91   H39   S    
C123  C124  A    
C1    O1    A    
C42   C84   A    
C76   C77   A    
C128  C129  A    
C23   C121  S    
C28   O40   D    
C39   C40   A    
C71   C73   A    
C90   H4    S    
C84   H29   S    
C78   C79   A    
C60   O13   A    
C107  O17   A    
C47   H24   S    
C26   O37   S    
C45   C46   A    
C83   C94   S    
C22   O29   D    
C82   C83   A    
C33   C37   S    
C67   C68   A    
C13   C24   A    
C106  C116  S    
C35   H17   S    
C82   C112  S    
O17   Zn3   S    
H26   O19   S    
C35   C39   A    
C43   C44   A    
C24   C32   S    
C46   C47   A    
C37   C38   A    
C42   H22   S    
C110  O34   A    
C105  H10   S    
C2    C38   A    
C75   C86   A    
C99   C100  A    
C17   C56   S    
C52   H23   S    
H46   O39   S    
C5    H48   S    
C15   H55   S    
C62   C63   A    
C50   C51   A    
C33   O51   D    
C24   C36   A    
C31   C53   S    
C35   C44   A    
C64   C119  A    
C113  O58   A    
C80   H33   S    
C6    C7    A    
C96   C109  A    
C52   C58   A    
C9    C30   S    
C28   O41   S    
C19   O22   D    
C67   C73   A    
C4    C6    A    
C40   C41   A    
H52   O46   S    
C12   C14   A    
C98   C99   A    
H32   O24   S    
C34   O53   D    
C125  C126  A    
C49   C50   A    
C19   O24   S    
C4    C10   A    
C10   C127  S    
C69   H56   S    
C29   O43   S    
O3    Zn5   S    
C72   C87   S    
C5    C42   A    
C28   C125  S    
O5    Zn6   S    
C60   O14   A    
C101  C106  A    
C54   C55   A    
H43   O35   S    
C21   O28   S    
C83   C85   A    
C3    C129  A    
C23   O31   D    
C124  H11   S    
C92   H5    S    
C26   C118  S    
O16   Zn2   S    
C93   H6    S    
C25   C117  S    
H37   O28   S    
C4    H15   S    
C23   O32   S    
C11   C12   A    
C3    C125  A    
C127  C128  A    
C21   C96   S    
C26   O36   D    
C40   C51   S    
C49   H1    S    
H42   O32   S    
C25   O33   D    
C89   H3    S    
C111  O45   A    
C100  H9    S    
C108  C111  S    
C20   C78   S    
C32   O50   S    
C43   C48   S    
C11   H16   S    
C17   O19   S    
C89   C90   A    
C16   H57   S    
O7    Zn6   S    
O14   Zn2   S    
C95   H7    S    
C59   H28   S    
C109  C121  A    
C90   C91   A    
H47   O41   S    
C70   H64   S    
C115  O6    A    
C123  H13   S    
C100  C101  A    
O9    Zn6   S    
C64   C75   A    
O56   Zn3   S    
C33   O52   S    
C34   O54   S    
C65   C66   A    
C61   C62   A    
C68   C69   A    
C128  H14   S    
C118  C120  A    
O8    Zn5   S    
C64   H58   S    
H38   O30   S    
C3    C120  S    
C27   O38   D    
C110  O23   A    
C79   C80   A    
C72   O16   A    
C76   H65   S    
C87   C88   A    
C14   C119  S    
C114  O3    A    
C48   O11   A    
C103  C104  A    
O23   Zn3   S    
C14   C15   A    
C99   H8    S    
C67   H30   S    
C114  O5    A    
C122  C123  A    
C117  C118  A    
C32   O49   D    
C91   C92   A    
H63   O54   S    
C126  C127  A    
C104  H40   S    
O34   Zn4   S    
