data_mof_unit_29100.cif
_audit_creation_date              2012-10-26T18:32:02-0400
_audit_creation_method            fapswitch 2.2
_symmetry_space_group_name_H-M    P1
_symmetry_Int_Tables_number       1
_space_group_crystal_system       triclinic
_cell_length_a                    12.353485
_cell_length_b                    13.267929
_cell_length_c                    14.273039
_cell_angle_alpha                 93.286888
_cell_angle_beta                  107.637883
_cell_angle_gamma                 117.021964
_cell_volume                      1932.96531053

loop_
_atom_site_label
_atom_site_type_symbol
_atom_type_description
_atom_site_fract_x
_atom_site_fract_y
_atom_site_fract_z
_atom_type_partial_charge
C1    C     C_R   0.650825 0.714044 0.508590 0.532075
C2    C     C_R   0.220060 0.510970 0.012697 0.051150
C3    C     C_R   0.164515 0.519598 0.084286 0.031991
C4    C     C_R   0.619737 0.518586 0.686835 0.545299
C5    C     C_R   0.327608 0.492498 0.039877 -0.135000
C6    C     C_R   0.380295 0.481711 0.137424 -0.141087
C7    C     C_R   0.215324 0.502635 0.180318 -0.132528
C8    C     C_R   0.139559 0.966662 0.362671 -0.129654
C9    C     C_R   0.248916 0.162354 0.463104 -0.001881
C10   C     C_R   0.730546 0.921039 0.574062 -0.131379
C11   C     C_R   0.820770 0.037932 0.592872 -0.138745
C12   C     C_R   0.881391 0.547485 0.924665 0.031313
C13   C     C_R   0.921612 0.072584 0.556596 -0.120327
C14   C     C_R   0.931427 0.990175 0.496940 0.032541
C15   C     C_R   0.829860 0.872743 0.467615 0.024162
C16   C     C_R   0.345225 0.285289 0.484952 0.550816
C17   C     C_R   0.038023 0.020651 0.464593 0.028851
C18   C     C_R   0.034851 0.937230 0.395267 0.052017
C19   C     C_R   0.926124 0.826243 0.357627 -0.138452
C20   C     C_R   0.824343 0.794746 0.392216 -0.122147
C21   C     C_R   0.148804 0.131463 0.500222 -0.135087
C22   C     C_R   0.245905 0.079186 0.395899 -0.135116
C23   C     C_R   0.835528 0.570262 0.998725 0.053167
C24   C     C_R   0.735767 0.837215 0.513799 -0.001642
C25   C     C_R   0.253840 0.685133 0.661604 -0.152378
C26   C     C_R   0.654790 0.342247 0.363732 0.045439
C27   C     C_R   0.732552 0.307930 0.333528 -0.159786
C28   C     C_R   0.382603 0.484691 0.313484 0.543284
C29   C     C_R   0.867884 0.367301 0.384583 -0.138420
C30   C     C_R   0.927867 0.462586 0.467153 -0.006821
C31   C     C_R   0.843812 0.494847 0.495301 0.180217
C32   C     C_R   0.067455 0.526832 0.522823 -0.014214
C33   C     C_R   0.119018 0.621137 0.605163 0.034759
C34   C     C_R   0.998247 0.540663 0.954483 0.030804
C35   C     C_R   0.036028 0.651443 0.630956 -0.182987
C36   C     C_R   0.902049 0.590081 0.577361 -0.105748
C37   C     C_R   0.159327 0.502263 0.501087 0.036973
C38   C     C_R   0.338293 0.656482 0.636518 0.036880
C39   C     C_R   0.691994 0.536027 0.794482 -0.003956
C40   C     C_R   0.324227 0.486968 0.208118 -0.003383
C41   C     C_R   0.721698 0.579240 0.970359 -0.135255
C42   C     C_R   0.650751 0.562991 0.868800 -0.138094
C43   C     C_R   0.805797 0.527750 0.822766 -0.140914
C44   C     C_R   0.058197 0.542001 0.056995 0.031854
C45   C     C_R   0.011465 0.567815 0.129045 -0.141459
C46   C     C_R   0.902982 0.582871 0.100201 -0.135968
C47   C     C_R   0.058089 0.534172 0.885659 -0.142562
C48   C     C_R   0.167816 0.520879 0.914855 -0.135466
Cu1   Cu    Cu3+1 0.416420 0.526630 0.522910 0.923766
Cu2   Cu    Cu3+1 0.583580 0.473370 0.477090 0.912094
H1    H     H_    0.870126 0.602181 0.157669 0.100776
H2    H     H_    0.170183 0.499263 0.234683 0.119191
H3    H     H_    0.075152 0.723727 0.693842 0.112372
H4    H     H_    0.128596 0.432164 0.439742 0.116790
H5    H     H_    0.549981 0.295459 0.323462 0.123506
H6    H     H_    0.923097 0.336838 0.357986 0.100178
H7    H     H_    0.687649 0.234850 0.270196 0.105738
H8    H     H_    0.847757 0.620646 0.603467 0.182860
H9    H     H_    0.465202 0.470251 0.157633 0.124504
H10   H     H_    0.210863 0.516628 0.859902 0.110548
H11   H     H_    0.687012 0.597921 0.026744 0.101247
H12   H     H_    0.322850 0.102240 0.366120 0.122948
H13   H     H_    0.563126 0.570269 0.848511 0.124128
H14   H     H_    0.831546 0.502183 0.763601 0.124209
H15   H     H_    0.058990 0.580517 0.209141 0.106218
H16   H     H_    0.024935 0.542775 0.809102 0.110608
H17   H     H_    0.371531 0.487276 0.985858 0.102654
H18   H     H_    0.988202 0.164782 0.574603 0.104738
H19   H     H_    0.293759 0.757130 0.724894 0.094675
H20   H     H_    0.919843 0.763244 0.301419 0.100384
H21   H     H_    0.137476 0.903510 0.309462 0.110556
H22   H     H_    0.159737 0.196494 0.556639 0.118297
H23   H     H_    0.658088 0.896085 0.608732 0.128756
H24   H     H_    0.814936 0.101976 0.638539 0.122204
H25   H     H_    0.740070 0.709376 0.356787 0.148665
H26   H     H_    0.442306 0.705782 0.679978 0.117414
N1    N     N_R   0.290690 0.566960 0.557640 -0.231487
N2    N     N_R   0.709100 0.433710 0.442970 -0.234598
O1    O     O_R   0.545970 0.684450 0.528810 -0.499952
O2    O     O_R   0.687130 0.639470 0.490120 -0.527054
O3    O     O_R   0.519670 0.535100 0.660030 -0.501964
O4    O     O_R   0.660830 0.490120 0.621340 -0.520378
O5    O     O_R   0.312870 0.360530 0.509880 -0.506824
O6    O     O_R   0.454030 0.315550 0.471190 -0.500581
O7    O     O_R   0.339170 0.509880 0.378660 -0.506566
O8    O     O_R   0.480330 0.464900 0.339970 -0.513757

loop_
_geom_bond_atom_site_label_1
_geom_bond_atom_site_label_2
_ccdc_geom_bond_type
C30   C32   A    
C27   C29   A    
C41   C42   A    
C19   C20   A    
C41   H11   S    
C5    H17   S    
C26   H5    S    
Cu2   O6    S    
C38   H26   S    
C45   C46   A    
C12   C23   A    
C26   C27   A    
C26   N2    A    
C9    C16   S    
C7    H2    S    
C12   C43   A    
C3    C7    A    
C30   C31   A    
C10   H23   S    
C9    C22   A    
C35   H3    S    
C28   C40   S    
C16   O6    A    
C18   C19   A    
Cu1   O3    S    
C4    O3    A    
C35   C36   A    
C8    C22   A    
C7    C40   A    
C47   H16   S    
C23   C46   A    
C13   C14   A    
C14   C17   A    
Cu2   N2    S    
C43   H14   S    
C48   H10   S    
C39   C42   A    
C15   C20   A    
C3    C44   A    
C21   H22   S    
Cu1   O7    S    
C34   C44   A    
C27   H7    S    
C39   C43   A    
C2    C48   A    
C37   N1    A    
C46   H1    S    
C16   O5    A    
C8    C18   A    
Cu1   O1    S    
C20   H25   S    
C29   C30   A    
C25   C38   A    
C22   H12   S    
C47   C48   A    
C4    C39   S    
C17   C18   A    
C32   C37   A    
C37   H4    S    
C15   C24   A    
C29   H6    S    
C28   O8    A    
C1    O1    A    
C6    C40   A    
C2    C5    A    
C25   H19   S    
C12   C34   A    
C44   C45   A    
Cu2   O4    S    
C31   N2    A    
C8    H21   S    
C14   C15   A    
C6    H9    S    
C11   H24   S    
Cu2   O2    S    
C38   N1    A    
C36   H8    S    
C23   C41   A    
C10   C24   A    
C32   C33   A    
Cu1   O5    S    
C2    C3    A    
C45   H15   S    
C11   C13   A    
C9    C21   A    
C5    C6    A    
C33   C35   A    
Cu1   N1    S    
C17   C21   A    
C10   C11   A    
Cu2   O8    S    
C4    O4    A    
C1    C24   S    
Cu1   Cu2   S    
C28   O7    A    
C1    O2    A    
C31   C36   A    
C19   H20   S    
C34   C47   A    
C42   H13   S    
C25   C33   A    
C13   H18   S    
