data_mof_unit_37003.cif
_audit_creation_date              2012-10-26T21:14:42-0400
_audit_creation_method            fapswitch 2.2
_symmetry_space_group_name_H-M    P1
_symmetry_Int_Tables_number       1
_space_group_crystal_system       triclinic
_cell_length_a                    15.003226
_cell_length_b                    10.880257
_cell_length_c                    13.681373
_cell_angle_alpha                 90.956822
_cell_angle_beta                  89.789734
_cell_angle_gamma                 89.746024
_cell_volume                      2232.98402673

loop_
_atom_site_label
_atom_site_type_symbol
_atom_type_description
_atom_site_fract_x
_atom_site_fract_y
_atom_site_fract_z
_atom_type_partial_charge
C1    C     C_R   0.498601 0.262015 0.498781 0.549798
C2    C     C_R   0.515924 0.890552 0.690972 0.001821
C3    C     C_R   0.552453 0.092590 0.241015 -0.128701
C4    C     C_R   0.449562 0.914139 0.761302 -0.129542
C5    C     C_R   0.540421 0.127307 0.144319 -0.178886
C6    C     C_R   0.461889 0.878866 0.857814 -0.165286
C7    C     C_R   0.460234 0.180906 0.115454 -0.054343
C8    C     C_R   0.540295 0.819325 0.885333 -0.107135
C9    C     C_R   0.496134 0.930935 0.413837 -0.166387
C10   C     C_R   0.503996 0.069117 0.586364 -0.167194
C11   C     C_R   0.502568 0.871790 0.503597 -0.013065
C12   C     C_R   0.501392 0.737986 0.501259 0.546837
C13   C     C_R   0.497540 0.128201 0.496614 -0.009825
C14   C     C_R   0.506939 0.942092 0.591632 -0.035720
C15   C     C_R   0.493012 0.057903 0.408714 -0.029760
C16   C     C_R   0.328901 0.499506 0.500307 0.572995
C17   C     C_R   0.671130 0.500336 0.499709 0.574682
C18   C     C_R   0.566647 0.440646 0.792294 0.063506
C19   C     C_R   0.433234 0.559066 0.207670 0.034740
C20   C     C_R   0.432812 0.558141 0.794365 0.044308
C21   C     C_R   0.567377 0.442280 0.205617 0.042973
C22   C     C_R   0.430710 0.558411 0.897439 -0.009704
C23   C     C_R   0.045128 0.285979 0.434165 0.269460
C24   C     C_R   0.569352 0.441717 0.102522 -0.020901
C25   C     C_R   0.499606 0.499113 0.948159 0.041572
C26   C     C_R   0.500104 0.500223 0.051794 0.046457
C27   C     C_R   0.568364 0.439492 0.895304 -0.011785
C28   C     C_R   0.431423 0.559971 0.104643 -0.001838
C29   C     C_R   0.362417 0.618039 0.950764 -0.143783
C30   C     C_R   0.637977 0.382800 0.049190 -0.162510
C31   C     C_R   0.362890 0.619058 0.053453 -0.146547
C32   C     C_R   0.637312 0.381291 0.946494 -0.156806
C33   C     C_R   0.812742 0.609305 0.529296 0.267622
C34   C     C_R   0.955662 0.709185 0.570999 0.259420
C35   C     C_R   0.187628 0.388244 0.474515 0.257451
C36   C     C_R   0.767422 0.503014 0.498631 -0.003977
C37   C     C_R   0.232675 0.496260 0.501661 -0.008586
C38   C     C_R   0.813358 0.399201 0.465182 -0.189923
C39   C     C_R   0.186674 0.600457 0.533924 -0.190949
C40   C     C_R   0.906040 0.396990 0.466120 -0.037782
C41   C     C_R   0.094131 0.600885 0.535875 -0.042503
C42   C     C_R   0.953238 0.500117 0.501508 -0.039579
C43   C     C_R   0.046918 0.496366 0.502634 -0.040160
C44   C     C_R   0.906745 0.607444 0.534356 0.031988
C45   C     C_R   0.390930 0.201949 0.182654 0.282950
C46   C     C_R   0.093489 0.388987 0.469879 0.042100
C47   C     C_R   0.951541 0.292702 0.431525 -0.128175
C48   C     C_R   0.048577 0.705502 0.569633 -0.129834
C49   C     C_3   0.748283 0.783641 0.473384 -0.103470
C50   C     C_3   0.252714 0.219007 0.538422 -0.110579
C51   C     C_3   0.057408 0.073012 0.423364 -0.001327
C52   C     C_3   0.125955 0.972921 0.400649 -0.368264
C53   C     C_3   0.904949 0.813530 0.705181 0.020315
C54   C     C_3   0.854776 0.928013 0.739968 -0.343779
C55   C     C_3   0.257512 0.306422 0.219565 0.004983
C56   C     C_R   0.608301 0.793711 0.815383 0.287837
C57   C     C_3   0.186980 0.386484 0.172431 -0.367489
C58   C     C_3   0.706823 0.719220 0.934395 -0.015129
C59   C     C_3   0.798440 0.660887 0.945439 -0.376271
C60   C     C_R   0.402737 0.162571 0.280314 -0.070306
C61   C     C_R   0.594797 0.831032 0.718859 -0.024121
C62   C     C_R   0.483739 0.109781 0.309669 0.020708
Cu1   Cu    Cu3+1 0.500010 0.499980 0.597420 0.952292
Cu2   Cu    Cu3+1 0.499990 0.500020 0.402580 0.927802
H1    H     H_    0.491889 0.878000 0.346124 0.140204
H2    H     H_    0.690931 0.335137 0.907144 0.102310
H3    H     H_    0.776431 0.319433 0.439571 0.107227
H4    H     H_    0.223406 0.681479 0.557234 0.105416
H5    H     H_    0.913541 0.217478 0.400385 0.097722
H6    H     H_    0.085152 0.785552 0.595063 0.110164
H7    H     H_    0.452132 0.207545 0.040068 0.138867
H8    H     H_    0.545773 0.792911 0.960859 0.094158
H9    H     H_    0.349630 0.169532 0.333595 0.137012
H10   H     H_    0.646648 0.814733 0.665234 0.173265
H11   H     H_    0.614611 0.049634 0.262041 0.105357
H12   H     H_    0.508375 0.122215 0.653983 0.140059
H13   H     H_    0.388861 0.961807 0.741576 0.109430
H14   H     H_    0.593300 0.112275 0.091373 0.112255
H15   H     H_    0.410408 0.897796 0.911705 0.122452
H16   H     H_    0.704099 0.734613 0.420820 0.117081
H17   H     H_    0.811468 0.810016 0.436519 0.132704
H18   H     H_    0.713748 0.869720 0.496484 0.127318
H19   H     H_    0.189379 0.188708 0.572848 0.118317
H20   H     H_    0.292077 0.274601 0.591622 0.127284
H21   H     H_    0.292604 0.135661 0.520112 0.124245
H22   H     H_    0.995608 0.048507 0.383157 0.126168
H23   H     H_    0.618699 0.394340 0.750727 0.123616
H24   H     H_    0.044136 0.074068 0.503655 0.129698
H25   H     H_    0.187697 0.989325 0.443190 0.146733
H26   H     H_    0.098616 0.881896 0.420124 0.106202
H27   H     H_    0.142507 0.971865 0.321427 0.157560
H28   H     H_    0.971492 0.812751 0.741029 0.097261
H29   H     H_    0.866414 0.731451 0.728114 0.182564
H30   H     H_    0.788204 0.931788 0.704984 0.178372
H31   H     H_    0.845839 0.926280 0.820518 0.100035
H32   H     H_    0.892797 0.011551 0.720592 0.134814
H33   H     H_    0.296103 0.365653 0.271137 0.178951
H34   H     H_    0.381162 0.605368 0.249216 0.117379
H35   H     H_    0.222631 0.232314 0.259239 0.207380
H36   H     H_    0.146009 0.330362 0.121228 0.160663
H37   H     H_    0.142852 0.427301 0.229844 0.114677
H38   H     H_    0.219185 0.461717 0.131611 0.150428
H39   H     H_    0.657984 0.657773 0.969987 0.148571
H40   H     H_    0.707495 0.810975 0.971734 0.116086
H41   H     H_    0.850281 0.721243 0.914074 0.132428
H42   H     H_    0.812947 0.647544 0.024101 0.096193
H43   H     H_    0.800469 0.570088 0.907108 0.160972
H44   H     H_    0.381125 0.605208 0.754428 0.123932
H45   H     H_    0.619307 0.395709 0.245543 0.126358
H46   H     H_    0.308996 0.664619 0.913060 0.100518
H47   H     H_    0.691826 0.337178 0.086902 0.103314
H48   H     H_    0.309630 0.666005 0.092812 0.095496
N1    N     N_R   0.499960 0.499900 0.743810 -0.239197
N2    N     N_R   0.500040 0.500100 0.256190 -0.243115
O1    O     O_R   0.500000 0.319630 0.582270 -0.522990
O2    O     O_3   0.236480 0.283467 0.451548 -0.566996
O3    O     O_3   0.090632 0.187026 0.391310 -0.537455
O4    O     O_3   0.913871 0.816228 0.602512 -0.544806
O5    O     O_3   0.313069 0.254507 0.146215 -0.579569
O6    O     O_3   0.687532 0.730566 0.834010 -0.562296
O7    O     O_R   0.500000 0.680370 0.417730 -0.519327
O8    O     O_R   0.499990 0.319660 0.417730 -0.489939
O9    O     O_R   0.500010 0.680340 0.582270 -0.488548
O10   O     O_R   0.370260 0.499960 0.582280 -0.521534
O11   O     O_R   0.629740 0.500040 0.417720 -0.525478
O12   O     O_R   0.370250 0.499990 0.417740 -0.506444
O13   O     O_R   0.629750 0.500010 0.582260 -0.479038
O14   O     O_3   0.764384 0.712743 0.557048 -0.545182

loop_
_geom_bond_atom_site_label_1
_geom_bond_atom_site_label_2
_ccdc_geom_bond_type
C34   O4    S    
C40   C47   A    
C38   C40   A    
C45   C60   A    
C22   C29   A    
C56   O6    S    
C39   H4    S    
C52   H26   S    
C8    C56   A    
Cu1   O10   S    
C50   H20   S    
C39   C41   A    
C55   O5    S    
C53   C54   S    
C57   H38   S    
C59   H41   S    
C7    C45   A    
C35   C37   A    
C24   C26   A    
C7    H7    S    
C20   N1    A    
C11   C14   A    
Cu2   O7    S    
C60   H9    S    
C33   C36   A    
C18   N1    A    
C60   C62   A    
C49   H17   S    
C1    O8    A    
C47   H5    S    
C50   H21   S    
C10   H12   S    
C15   C62   S    
C12   O7    A    
C22   C25   A    
C31   H48   S    
C17   C36   S    
C3    H11   S    
C54   H32   S    
C2    C61   A    
C16   C37   S    
Cu1   O1    S    
C45   O5    S    
C40   C42   A    
C58   H40   S    
C23   C46   A    
C41   C43   A    
C52   H25   S    
C42   C44   A    
C51   H22   S    
C19   H34   S    
C50   H19   S    
C9    H1    S    
C8    H8    S    
C59   H42   S    
Cu2   N2    S    
C53   H29   S    
C51   C52   S    
C29   H46   S    
C23   C47   A    
C4    C6    A    
C10   C14   A    
C5    C7    A    
C53   O4    S    
C17   O13   A    
C6    C8    A    
C19   N2    A    
C58   C59   S    
C57   H36   S    
C33   O14   S    
C59   H43   S    
C49   H18   S    
C2    C4    A    
Cu1   O9    S    
C55   H33   S    
C53   H28   S    
C58   O6    S    
C34   C44   A    
C35   O2    S    
C19   C28   A    
C9    C11   A    
C54   H31   S    
C20   C22   A    
Cu2   O12   S    
C55   C57   S    
C1    C13   S    
C42   C43   A    
C32   H2    S    
C3    C62   A    
C49   O14   S    
C27   C32   A    
C9    C15   A    
C33   C44   A    
C28   C31   A    
C18   C27   A    
C48   H6    S    
C21   N2    A    
C3    C5    A    
C10   C13   A    
C51   H24   S    
C23   O3    S    
C21   H45   S    
C11   C12   S    
C61   H10   S    
C25   C27   A    
C57   H37   S    
C26   C28   A    
C18   H23   S    
C49   H16   S    
C30   H47   S    
C13   C15   A    
C25   C26   A    
C4    H13   S    
C37   C39   A    
C30   C32   A    
C17   O11   A    
C6    H15   S    
C12   O9    A    
Cu2   O8    S    
C36   C38   A    
C51   O3    S    
C41   C48   A    
C50   O2    S    
C16   O10   A    
C2    C14   S    
C43   C46   A    
C24   C30   A    
C54   H30   S    
Cu1   Cu2   S    
Cu1   N1    S    
C34   C48   A    
C38   H3    S    
C29   C31   A    
Cu2   O11   S    
C21   C24   A    
C55   H35   S    
C56   C61   A    
C52   H27   S    
C58   H39   S    
C1    O1    A    
C5    H14   S    
C35   C46   A    
C16   O12   A    
Cu1   O13   S    
C20   H44   S    
