data_mof_unit_35514.cif
_audit_creation_date              2012-12-11T17:05:35-0500
_audit_creation_method            fapswitch 2.2
_symmetry_space_group_name_H-M    P1
_symmetry_Int_Tables_number       1
_space_group_crystal_system       triclinic
_cell_length_a                    6.985849
_cell_length_b                    14.61133
_cell_length_c                    15.928143
_cell_angle_alpha                 90.142121
_cell_angle_beta                  89.854358
_cell_angle_gamma                 89.772361
_cell_volume                      1625.80296725

loop_
_atom_site_label
_atom_site_type_symbol
_atom_type_description
_atom_site_fract_x
_atom_site_fract_y
_atom_site_fract_z
_atom_type_partial_charge
O1    O     O_R   0.494380 0.415640 0.412830 -0.536773
O2    O     O_R   0.823960 0.405540 0.586560 -0.541992
O3    O     O_R   0.994270 0.584360 0.587170 -0.540450
C1    C     C_R   0.655225 0.383334 0.614968 0.692557
O4    O     O_R   0.824090 0.404620 0.413450 -0.542538
O5    O     O_R   0.994400 0.583430 0.412820 -0.538200
C2    C     C_R   0.655971 0.384384 0.383145 0.696257
O6    O     O_R   0.494250 0.416570 0.587180 -0.536732
O7    O     O_3   0.660800 0.558670 0.500000 -0.371771
V1    V     V_3+5 0.935650 0.489120 0.500000 1.378321
O8    O     O_R   0.324110 0.594460 0.413440 -0.538634
C3    C     C_R   0.155014 0.615616 0.384017 0.697581
O9    O     O_R   0.323980 0.595380 0.586550 -0.544347
C4    C     C_R   0.154925 0.617651 0.615368 0.647677
V2    V     V_3+5 0.435660 0.510880 0.500000 1.378925
O10   O     O_3   0.160640 0.441330 0.500000 -0.369700
C5    C     C_3   0.047145 0.646000 0.765072 -0.321311
H1    H     H_    0.900329 0.622371 0.749199 0.136097
H2    H     H_    0.129496 0.585011 0.786354 0.118430
C6    C     C_3   0.035020 0.717206 0.837628 -0.321910
H3    H     H_    0.111653 0.690332 0.893605 0.121580
H4    H     H_    0.882519 0.727251 0.855950 0.138662
H5    H     H_    0.879233 0.752379 0.641045 0.140405
H6    H     H_    0.861274 0.857108 0.747942 0.137113
C7    C     C_3   0.026482 0.773157 0.659330 -0.320596
C8    C     C_3   0.347142 0.720877 0.712217 -0.315306
C9    C     C_3   0.144319 0.687765 0.686177 0.120429
H7    H     H_    0.420871 0.752344 0.657441 0.134282
H8    H     H_    0.435744 0.661579 0.732811 0.134081
C10   C     C_3   0.123534 0.809935 0.810696 0.117403
C11   C     C_3   0.014265 0.844337 0.731937 -0.322028
C12   C     C_3   0.335131 0.791619 0.784301 -0.308040
H9    H     H_    0.418186 0.765776 0.838955 0.137848
H10   H     H_    0.403263 0.856550 0.763605 0.132617
H11   H     H_    0.093830 0.805265 0.603339 0.119324
H12   H     H_    0.075645 0.910534 0.710654 0.121439
C13   C     C_R   0.277360 0.749894 0.186535 0.107597
C14   C     C_R   0.116420 0.805656 0.175123 -0.116983
C15   C     C_R   0.958530 0.789897 0.228247 -0.203290
H13   H     H_    0.833015 0.832557 0.223038 0.145935
C16   C     C_R   0.971163 0.727972 0.295778 -0.194939
H14   H     H_    0.852641 0.723004 0.339167 0.138470
C17   C     C_R   0.141308 0.679058 0.311612 -0.115141
C18   C     C_R   0.289467 0.688084 0.252957 0.109185
C19   C     C_3   0.494949 0.709098 0.266979 -0.425175
C20   C     C_3   0.481623 0.776054 0.194382 -0.406623
H15   H     H_    0.588292 0.649068 0.253334 0.176088
H16   H     H_    0.519156 0.743074 0.328579 0.170484
H17   H     H_    0.566920 0.754739 0.138604 0.174072
H18   H     H_    0.498765 0.848718 0.213880 0.178594
C21   C     C_R   0.492215 0.251973 0.687181 0.099809
C22   C     C_R   0.647300 0.312008 0.680629 -0.110189
C23   C     C_R   0.799478 0.300040 0.737391 -0.181863
H19   H     H_    0.922251 0.344645 0.734604 0.129348
C24   C     C_R   0.788168 0.234987 0.802294 -0.180391
H20   H     H_    0.903494 0.230726 0.847269 0.131389
C25   C     C_R   0.623808 0.180508 0.812565 -0.109560
C26   C     C_R   0.480598 0.187907 0.751614 0.093408
C27   C     C_3   0.271013 0.203197 0.762282 -0.414448
C28   C     C_3   0.283605 0.272734 0.691728 -0.394058
H21   H     H_    0.236040 0.234425 0.824166 0.171425
H22   H     H_    0.186290 0.141605 0.745451 0.169082
H23   H     H_    0.255189 0.344201 0.712551 0.164464
H24   H     H_    0.206793 0.251180 0.633971 0.174327
C29   C     C_R   0.482726 0.310019 0.262037 0.082524
C30   C     C_R   0.648812 0.320126 0.310819 -0.115243
C31   C     C_R   0.802154 0.259647 0.294347 -0.197602
H25   H     H_    0.926337 0.260136 0.334374 0.147567
C32   C     C_R   0.788818 0.191968 0.231450 -0.167931
H26   H     H_    0.902312 0.143400 0.223496 0.124078
C33   C     C_R   0.621947 0.180820 0.184164 -0.107218
C34   C     C_R   0.467193 0.236288 0.205752 0.072023
C35   C     C_3   0.284042 0.206077 0.244947 -0.182807
C36   C     C_3   0.284841 0.295092 0.294510 -0.438013
H27   H     H_    0.172913 0.202619 0.195837 0.131678
H28   H     H_    0.273441 0.287712 0.363723 0.177838
H29   H     H_    0.184771 0.347330 0.268842 0.161895
O11   O     O_R   0.771490 0.080820 0.910070 -0.538508
O12   O     O_R   0.441590 0.092730 0.083780 -0.540078
O13   O     O_R   0.271350 0.913900 0.084390 -0.534960
C37   C     C_R   0.610010 0.112580 0.114685 0.694774
O14   O     O_R   0.441780 0.091820 0.910670 -0.538750
O15   O     O_R   0.271540 0.912980 0.910040 -0.541060
C38   C     C_R   0.610787 0.113950 0.882198 0.696615
O16   O     O_R   0.771300 0.081740 0.084420 -0.541150
O17   O     O_3   0.604960 0.938700 0.997240 -0.371655
V3    V     V_3+5 0.330090 0.008230 0.997220 1.387897
O18   O     O_R   0.941820 0.901930 0.910640 -0.543047
C39   C     C_R   0.111299 0.879871 0.881656 0.650776
O19   O     O_R   0.941630 0.902840 0.083750 -0.543871
C40   C     C_R   0.110342 0.879036 0.110919 0.690387
V4    V     V_3+5 0.830090 0.986410 0.997190 1.377257
O20   O     O_3   0.105080 0.055990 0.997200 -0.369329
C41   C     C_R   0.307393 0.120858 0.300642 0.147177
C42   C     C_R   0.425469 0.120885 0.372973 -0.103263
C43   C     C_R   0.441244 0.043626 0.423834 -0.140509
C44   C     C_R   0.339017 0.965019 0.404293 -0.106124
C45   C     C_R   0.223432 0.963454 0.333248 -0.141703
C46   C     C_R   0.210408 0.039753 0.280567 -0.144050
H30   H     H_    0.505031 0.180442 0.391693 0.112126
H31   H     H_    0.531420 0.045175 0.478990 0.107817
H32   H     H_    0.348965 0.905318 0.444196 0.098594
H33   H     H_    0.143411 0.902814 0.319846 0.138057
H34   H     H_    0.124856 0.035046 0.224345 0.096072

loop_
_geom_bond_atom_site_label_1
_geom_bond_atom_site_label_2
_ccdc_geom_bond_type
C7    C11   S    
O15   V3    S    
C24   H20   S    
C8    C12   S    
C16   C17   A    
C35   C36   S    
C42   C43   A    
C1    O6    A    
O12   V3    S    
C44   C45   A    
O19   C40   A    
C15   C16   A    
C6    C10   S    
C19   C20   S    
C18   C19   S    
C20   H17   S    
C8    C9    S    
C36   H28   S    
C1    C22   S    
C28   H23   S    
C3    C17   S    
O5    C3    A    
C10   C11   S    
V2    O10   S    
C5    C6    S    
C16   H14   S    
C32   C33   A    
O8    V2    S    
O18   V4    S    
C36   H29   S    
C45   H33   S    
O1    V2    S    
C4    C9    S    
O7    V1    S    
C44   H32   S    
C19   H15   S    
C46   H34   S    
C27   C28   S    
O9    C4    A    
C35   H27   S    
C32   H26   S    
C35   C41   S    
C10   C39   S    
O16   V4    S    
C23   C24   A    
O15   C39   A    
C27   H21   S    
C31   H25   S    
C5    C9    S    
C42   H30   S    
C15   H13   S    
O4    C2    A    
O17   V3    S    
O11   V4    S    
C26   C27   S    
C23   H19   S    
C14   C40   S    
C29   C36   S    
C21   C22   A    
C31   C32   A    
C12   H10   S    
O2    C1    A    
C17   C18   A    
C13   C14   A    
O19   V4    S    
C43   C44   A    
C5    H1    S    
C25   C38   S    
C21   C26   A    
C6    H3    S    
O3    C4    A    
O13   V3    S    
C7    H11   S    
C6    H4    S    
C45   C46   A    
O6    V2    S    
O14   C38   A    
C24   C25   A    
O2    V1    S    
C22   C23   A    
O12   C37   A    
C19   H16   S    
C27   H22   S    
O1    C2    A    
C34   C35   S    
O5    V1    S    
O8    C3    A    
C7    C9    S    
C29   C34   A    
C20   H18   S    
C8    H7    S    
C28   H24   S    
C12   H9    S    
C13   C18   A    
O9    V2    S    
O7    V2    S    
H6    C11   S    
O4    V1    S    
O3    V1    S    
V1    O10   S    
C2    C30   S    
C10   C12   S    
C25   C26   A    
C14   C15   A    
C41   C46   A    
O13   C40   A    
V3    O20   S    
V4    O20   S    
C5    H2    S    
C30   C31   A    
H5    C7    S    
C41   C42   A    
O11   C38   A    
C33   C34   A    
O18   C39   A    
C8    H8    S    
C29   C30   A    
C11   H12   S    
O17   V4    S    
C21   C28   S    
C13   C20   S    
C43   H31   S    
C37   O16   A    
O14   V3    S    
C33   C37   S    
