data_mof_unit_13951.cif
_audit_creation_date              2012-12-10T17:10:16-0500
_audit_creation_method            fapswitch 2.2
_symmetry_space_group_name_H-M    P1
_symmetry_Int_Tables_number       1
_space_group_crystal_system       triclinic
_cell_length_a                    15.684495
_cell_length_b                    10.706498
_cell_length_c                    10.195438
_cell_angle_alpha                 92.195348
_cell_angle_beta                  87.574744
_cell_angle_gamma                 92.218148
_cell_volume                      1708.11069438

loop_
_atom_site_label
_atom_site_type_symbol
_atom_type_description
_atom_site_fract_x
_atom_site_fract_y
_atom_site_fract_z
_atom_type_partial_charge
C1    C     C_R   0.499303 0.263455 0.497201 0.939056
C2    C     C_2   0.529721 0.872002 0.507709 0.140150
C3    C     C_2   0.550847 0.069984 0.408411 0.461072
C4    C     C_R   0.338406 0.501401 0.502620 0.857111
C5    C     C_2   0.495390 0.131525 0.487229 -0.361516
C6    C     C_2   0.558918 0.554894 0.924883 0.057307
C7    C     C_2   0.549211 0.572959 0.073562 0.124226
C8    C     C_R   0.505543 0.738378 0.502616 0.851803
C9    C     C_R   0.661714 0.499711 0.497498 0.894866
C10   C     C_3   0.965189 0.428511 0.594985 -0.486161
C11   C     C_3   0.029066 0.394807 0.480323 0.441193
C12   C     C_3   0.083480 0.514169 0.511993 -0.148320
C13   C     C_1   0.249622 0.507939 0.509328 -0.165775
C14   C     C_1   0.750910 0.499979 0.491981 -0.179650
C15   C     C_3   0.020123 0.548956 0.625911 0.402203
C16   C     C_3   0.005567 0.181559 0.467641 -0.328071
C17   C     C_3   0.371814 0.396893 0.856376 0.254111
C18   C     C_3   0.277464 0.430258 0.861327 -0.382106
C19   C     C_3   0.221239 0.324614 0.802576 -0.952808
C20   C     C_3   0.411835 0.329069 0.146268 0.261499
C21   C     C_3   0.410844 0.186883 0.121561 -0.433107
C22   C     C_3   0.322167 0.128024 0.150518 -0.945441
C23   C     C_3   0.971616 0.624031 0.529267 0.392062
C24   C     C_3   0.020423 0.385629 0.177699 -0.322999
C25   C     C_3   0.019071 0.726107 0.249689 -0.287993
C26   C     C_3   0.993348 0.831224 0.594057 -0.291980
C27   C     C_3   0.996658 0.551949 0.853955 0.097333
C28   C     C_3   0.908878 0.611927 0.865056 -0.370109
C29   C     C_3   0.849691 0.548926 0.967406 -0.934210
C30   C     C_3   0.552956 0.901882 0.171007 -0.306470
C31   C     C_3   0.523081 0.906686 0.743006 0.140608
C32   C     C_3   0.425527 0.922392 0.750038 -0.404124
C33   C     C_3   0.385251 0.871169 0.876667 -0.905346
C34   C     C_3   0.917346 0.504311 0.496118 -0.134172
C35   C     C_3   0.694989 0.078442 0.355114 0.060061
C36   C     C_3   0.763311 0.138878 0.263797 -0.286095
C37   C     C_3   0.840721 0.056936 0.243138 -0.998969
C38   C     C_3   0.033822 0.588087 0.414637 0.287881
C39   C     C_3   0.980722 0.467974 0.382423 0.388143
C40   C     C_1   0.174370 0.512769 0.513474 0.137866
C41   C     C_1   0.826411 0.501214 0.491019 0.095058
C42   C     C_2   0.534207 0.934802 0.394665 0.316244
H1    H     H_    0.443455 0.083690 0.540568 0.089884
H2    H     H_    0.255431 0.449349 0.964891 0.211565
H3    H     H_    0.269541 0.516760 0.807104 0.259616
H4    H     H_    0.241906 0.303166 0.698907 0.271652
H5    H     H_    0.153849 0.353199 0.805158 0.280424
H6    H     H_    0.224924 0.239036 0.859968 0.252726
H7    H     H_    0.355879 0.372496 0.107294 0.116062
H8    H     H_    0.400373 0.342537 0.249811 0.186750
H9    H     H_    0.432231 0.161767 0.019094 0.221326
H10   H     H_    0.456308 0.146893 0.187323 0.261005
H11   H     H_    0.300335 0.151434 0.253312 0.269229
H12   H     H_    0.617260 0.591420 0.877177 0.053483
H13   H     H_    0.324210 0.024764 0.137859 0.291471
H14   H     H_    0.275829 0.162423 0.082135 0.258696
H15   H     H_    0.045040 0.296953 0.211079 0.212515
H16   H     H_    0.072758 0.458510 0.170827 0.191090
H17   H     H_    0.997475 0.366419 0.077332 0.169039
H18   H     H_    0.973919 0.783460 0.310733 0.198237
H19   H     H_    0.983584 0.656014 0.188248 0.185127
H20   H     H_    0.054935 0.789880 0.182145 0.181952
H21   H     H_    0.052082 0.833120 0.528928 0.194799
H22   H     H_    0.009727 0.817937 0.697268 0.205651
H23   H     H_    0.586928 0.647474 0.119992 0.040851
H24   H     H_    0.964847 0.924148 0.590808 0.162299
H25   H     H_    0.030131 0.576472 0.945789 0.157365
H26   H     H_    0.990744 0.448091 0.849109 0.130205
H27   H     H_    0.917510 0.712965 0.892391 0.217730
H28   H     H_    0.877134 0.603684 0.769860 0.257432
H29   H     H_    0.838560 0.448476 0.939524 0.269505
H30   H     H_    0.787275 0.594825 0.973260 0.255466
H31   H     H_    0.877558 0.556837 0.065533 0.291008
H32   H     H_    0.615725 0.860618 0.184838 0.143136
H33   H     H_    0.561192 0.001502 0.145686 0.191654
H34   H     H_    0.932354 0.362272 0.663245 0.175065
H35   H     H_    0.524820 0.851400 0.085405 0.171742
H36   H     H_    0.550164 0.975419 0.815877 0.143387
H37   H     H_    0.542121 0.815689 0.778503 0.166675
H38   H     H_    0.411953 0.023319 0.748038 0.208926
H39   H     H_    0.394234 0.873077 0.666260 0.222050
H40   H     H_    0.396969 0.769845 0.882093 0.293693
H41   H     H_    0.315252 0.883797 0.879449 0.267363
H42   H     H_    0.412290 0.922306 0.962857 0.259169
H43   H     H_    0.692274 0.976114 0.332408 0.137884
H44   H     H_    0.713992 0.094249 0.458639 0.154874
H45   H     H_    0.946048 0.201198 0.417889 0.194579
H46   H     H_    0.736420 0.153059 0.166509 0.240026
H47   H     H_    0.783694 0.231882 0.306446 0.233907
H48   H     H_    0.863565 0.028748 0.338870 0.261542
H49   H     H_    0.893075 0.109253 0.189830 0.276769
H50   H     H_    0.823481 0.971154 0.183837 0.263731
H51   H     H_    0.991017 0.164473 0.573159 0.165196
H52   H     H_    0.031453 0.094800 0.421254 0.187577
H53   H     H_    0.378195 0.311430 0.909409 0.100836
H54   H     H_    0.392828 0.361936 0.759894 0.185171
N1    N     N_2   0.500900 0.501330 0.852150 0.072704
N2    N     N_2   0.500930 0.501360 0.147810 0.082150
O1    O     O_R   0.499990 0.319060 0.613040 -0.654060
O2    O     O_3   0.421693 0.498021 0.910789 -0.565182
O3    O     O_3   0.489520 0.383877 0.095159 -0.545693
O4    O     O_3   0.951118 0.425061 0.259296 -0.616590
O5    O     O_3   0.077887 0.668995 0.326656 -0.601622
O6    O     O_3   0.932349 0.739630 0.552843 -0.616732
O7    O     O_3   0.048299 0.598304 0.748166 -0.642698
O8    O     O_3   0.496988 0.885536 0.281410 -0.598622
O9    O     O_3   0.563985 0.933283 0.619543 -0.686508
O10   O     O_3   0.615818 0.133143 0.337579 -0.645528
O11   O     O_R   0.500010 0.319100 0.386900 -0.597405
O12   O     O_R   0.376760 0.499970 0.613050 -0.635261
O13   O     O_R   0.376790 0.500010 0.386910 -0.645214
O14   O     O_R   0.499990 0.680900 0.613100 -0.625210
O15   O     O_R   0.500010 0.680940 0.386960 -0.571597
O16   O     O_R   0.623210 0.499990 0.613090 -0.624553
O17   O     O_R   0.623240 0.500030 0.386950 -0.603966
O18   O     O_3   0.067687 0.279102 0.454449 -0.600272
Zn1   Zn    Zn3+2 0.499980 0.499970 0.650990 0.953470
Zn2   Zn    Zn3+2 0.500020 0.500030 0.349010 1.004843

loop_
_geom_bond_atom_site_label_1
_geom_bond_atom_site_label_2
_ccdc_geom_bond_type
C36   H47   S    
C3    C42   S    
C7    N2    D    
C28   H27   S    
C26   H21   S    
C1    O1    A    
C19   H4    S    
C36   H46   S    
C32   H39   S    
C16   H51   S    
C38   O5    S    
C37   H48   S    
C31   H36   S    
O13   Zn2   S    
C1    C5    S    
C9    O16   A    
C28   C29   S    
C10   C15   S    
C8    O14   A    
C38   C39   S    
C30   H32   S    
C35   H44   S    
C19   H5    S    
C32   H38   S    
C27   O7    S    
C2    O9    S    
C18   C19   S    
C4    C13   S    
C26   H22   S    
C13   C40   T    
C20   H8    S    
C27   H26   S    
C26   O6    S    
C30   H35   S    
C10   H34   S    
C31   C32   S    
C24   H15   S    
C16   H45   S    
C17   H53   S    
C25   H18   S    
C33   H40   S    
C29   H30   S    
C1    O11   A    
C23   C34   S    
C15   C23   S    
C5    H1    S    
O1    Zn1   S    
C21   C22   S    
C30   O8    S    
C12   C38   S    
C34   C41   S    
C6    H12   S    
C16   O18   S    
O12   Zn1   S    
C17   O2    S    
O11   Zn2   S    
N2    Zn2   S    
C22   H11   S    
C28   H28   S    
C37   H49   S    
C34   C39   S    
C26   H24   S    
C6    N1    D    
C19   H6    S    
C25   O5    S    
C22   H14   S    
C20   O3    S    
C35   C36   S    
C9    O17   A    
C12   C40   S    
C9    C14   S    
C20   H7    S    
C18   H2    S    
C7    H23   S    
C42   O8    S    
C23   O6    S    
C12   C15   S    
O17   Zn2   S    
C17   C18   S    
C10   C34   S    
C17   H54   S    
C25   H19   S    
C11   C39   S    
C11   O18   S    
C33   H41   S    
C22   H13   S    
C8    O15   A    
C14   C41   T    
C4    O13   A    
C23   C38   S    
C18   H3    S    
C21   H9    S    
N1    O2    S    
C39   O4    S    
C35   O10   S    
C4    O12   A    
C36   C37   S    
C37   H50   S    
C31   O9    S    
C2    C8    S    
C3    C5    D    
C11   C12   S    
C31   H37   S    
C6    C7    S    
C3    O10   S    
N2    O3    S    
C16   H52   S    
C32   C33   S    
C15   O7    S    
C30   H33   S    
C35   H43   S    
O14   Zn1   S    
C2    C42   D    
C24   H17   S    
C24   O4    S    
C25   H20   S    
N1    Zn1   S    
C33   H42   S    
O16   Zn1   S    
C27   H25   S    
C10   C11   S    
O15   Zn2   S    
C29   H31   S    
C20   C21   S    
C24   H16   S    
C27   C28   S    
C21   H10   S    
C29   H29   S    
