data_mof_unit_28544.cif
_audit_creation_date              2012-12-10T20:41:52-0500
_audit_creation_method            fapswitch 2.2
_symmetry_space_group_name_H-M    P1
_symmetry_Int_Tables_number       1
_space_group_crystal_system       triclinic
_cell_length_a                    15.022795
_cell_length_b                    15.424598
_cell_length_c                    9.916038
_cell_angle_alpha                 88.684657
_cell_angle_beta                  89.510638
_cell_angle_gamma                 89.745757
_cell_volume                      2297.04009394

loop_
_atom_site_label
_atom_site_type_symbol
_atom_type_description
_atom_site_fract_x
_atom_site_fract_y
_atom_site_fract_z
_atom_type_partial_charge
C1    C     C_R   0.378700 0.881490 0.500810 0.906323
C2    C     C_R   0.924944 0.522180 0.071631 0.248679
C3    C     C_R   0.575057 0.981840 0.071344 0.012185
C4    C     C_R   0.076716 0.490793 0.071282 -0.038343
C5    C     C_R   0.574734 0.981710 0.927892 0.078053
C6    C     C_R   0.076657 0.490386 0.927637 -0.009536
C7    C     C_R   0.425657 0.024467 0.929092 0.199854
C8    C     C_R   0.924854 0.521445 0.929231 0.235500
C9    C     C_3   0.338829 0.978500 0.930183 -0.496239
C10   C     C_3   0.840324 0.472418 0.929802 -0.528474
C11   C     C_3   0.337832 0.982521 0.082135 -0.471104
C12   C     C_R   0.377259 0.116806 0.499439 0.885623
C13   C     C_3   0.838216 0.476878 0.081812 -0.496337
C14   C     C_R   0.615760 0.123787 0.497405 0.904769
C15   C     C_R   0.615502 0.876211 0.500917 0.935155
C16   C     C_R   0.116068 0.623149 0.498849 0.929469
C17   C     C_R   0.115941 0.375978 0.499798 0.951229
C18   C     C_R   0.256597 0.190800 0.616188 0.059786
C19   C     C_R   0.296871 0.763903 0.611753 0.156051
C20   C     C_R   0.796260 0.730080 0.611246 0.131595
C21   C     C_R   0.746588 0.312124 0.608748 0.144140
C22   C     C_R   0.299371 0.169466 0.497399 -0.083539
C23   C     C_R   0.878114 0.381825 0.501017 0.879935
C24   C     C_R   0.310500 0.817456 0.499896 -0.085837
C25   C     C_R   0.810260 0.681779 0.497464 -0.090809
C26   C     C_R   0.802813 0.325242 0.498431 -0.082276
C27   C     C_R   0.263256 0.197334 0.374654 -0.225921
C28   C     C_R   0.256541 0.810591 0.386392 -0.218201
C29   C     C_R   0.754703 0.691313 0.385992 -0.214422
C30   C     C_R   0.778262 0.290708 0.374937 -0.238743
C31   C     C_R   0.682539 0.747920 0.390844 -0.034046
C32   C     C_R   0.707361 0.233624 0.367127 -0.041511
C33   C     C_R   0.196890 0.260215 0.372604 -0.042033
C34   C     C_R   0.878587 0.618156 0.499281 0.904060
C35   C     C_R   0.186996 0.751577 0.385615 -0.037875
C36   C     C_R   0.674753 0.803352 0.502960 -0.188433
C37   C     C_R   0.668525 0.201648 0.489293 -0.156220
C38   C     C_R   0.168898 0.297433 0.496555 -0.145467
C39   C     C_R   0.177275 0.693840 0.497974 -0.191880
C40   C     C_R   0.731734 0.793328 0.613661 0.065324
C41   C     C_R   0.685328 0.246987 0.605787 0.061385
C42   C     C_R   0.194199 0.255324 0.616638 0.049022
C43   C     C_R   0.231262 0.701925 0.611570 0.056187
C44   C     C_3   0.708846 0.769117 0.759204 -0.120316
C45   C     C_3   0.291156 0.210750 0.752004 -0.491758
C46   C     C_3   0.696288 0.222201 0.750845 -0.148526
C47   C     C_3   0.220715 0.282834 0.755230 -0.116741
C48   C     C_3   0.203302 0.722682 0.754583 -0.112020
C49   C     C_2   0.612294 0.738867 0.287040 0.973783
C50   C     C_2   0.679085 0.212163 0.229897 0.967845
C51   C     C_2   0.168956 0.291353 0.238292 0.983835
C52   C     C_2   0.121291 0.760465 0.274559 0.987865
C53   C     C_2   0.740311 0.834827 0.858953 0.907901
C54   C     C_2   0.744361 0.135957 0.771668 0.964924
C55   C     C_2   0.265266 0.370469 0.762288 0.908166
C56   C     C_3   0.275119 0.791467 0.750984 -0.571369
C57   C     C_2   0.226472 0.652227 0.857563 0.932942
C58   C     C_2   0.613105 0.739541 0.780088 0.940569
C59   C     C_2   0.609852 0.236935 0.828350 0.913492
C60   C     C_2   0.145386 0.266320 0.855353 0.891365
C61   C     C_2   0.108897 0.758945 0.765546 0.936664
C62   C     C_3   0.776652 0.696272 0.750287 -0.542790
C63   C     C_3   0.761983 0.297352 0.755888 -0.602335
C64   C     C_R   0.425952 0.025329 0.071623 0.217160
H1    H     H_    0.285564 0.026318 0.122517 0.216329
H2    H     H_    0.263937 0.856275 0.302946 0.181365
H3    H     H_    0.763038 0.649080 0.300851 0.194074
H4    H     H_    0.815024 0.306957 0.283878 0.199933
H5    H     H_    0.580348 0.698336 0.101778 0.369884
H6    H     H_    0.718620 0.210011 0.036896 0.368793
H7    H     H_    0.204593 0.353554 0.066813 0.349191
H8    H     H_    0.097891 0.798556 0.082023 0.372984
H9    H     H_    0.813795 0.940878 0.892351 0.369079
H10   H     H_    0.833649 0.050401 0.697437 0.379817
H11   H     H_    0.315784 0.474744 0.661254 0.389085
H12   H     H_    0.341920 0.917380 0.131334 0.231658
H13   H     H_    0.309814 0.555269 0.911142 0.378565
H14   H     H_    0.494331 0.758903 0.871385 0.341432
H15   H     H_    0.515941 0.189992 0.955778 0.359064
H16   H     H_    0.018571 0.291958 0.910701 0.356957
H17   H     H_    0.985834 0.748050 0.846762 0.340766
H18   H     H_    0.361345 0.233708 0.747445 0.227656
H19   H     H_    0.331950 0.777935 0.819549 0.205483
H20   H     H_    0.835133 0.701662 0.817484 0.208681
H21   H     H_    0.831997 0.278423 0.778462 0.226452
H22   H     H_    0.635758 0.966201 0.124649 0.171620
H23   H     H_    0.784470 0.519455 0.120962 0.221667
H24   H     H_    0.138624 0.483317 0.124960 0.166916
H25   H     H_    0.634584 0.967144 0.873084 0.182229
H26   H     H_    0.138370 0.481127 0.873383 0.158102
H27   H     H_    0.284088 0.015477 0.881257 0.215600
H28   H     H_    0.348067 0.911739 0.895923 0.218882
H29   H     H_    0.784923 0.507889 0.879695 0.218245
H30   H     H_    0.854205 0.406089 0.895858 0.222996
H31   H     H_    0.843513 0.412229 0.131798 0.224451
H32   H     H_    0.280581 0.156283 0.824629 0.221845
H33   H     H_    0.249293 0.859118 0.752080 0.221618
H34   H     H_    0.747493 0.630212 0.749571 0.216875
H35   H     H_    0.735158 0.352378 0.813829 0.226620
H36   H     H_    0.290222 0.174637 0.279849 0.189831
N1    N     N_R   0.499140 0.000000 0.142800 -0.124740
N2    N     N_R   0.999140 0.500000 0.142800 -0.116272
N3    N     N_R   0.499160 0.000000 0.857150 -0.119104
N4    N     N_R   0.999160 0.500000 0.857150 -0.101413
O1    O     O_R   0.408400 0.908380 0.614690 -0.626322
O2    O     O_R   0.591610 0.908390 0.614650 -0.621375
O3    O     O_R   0.091610 0.591610 0.614650 -0.620331
O4    O     O_R   0.091610 0.408390 0.614650 -0.573058
O5    O     O_R   0.591590 0.091600 0.385310 -0.591716
O6    O     O_R   0.591590 0.908400 0.385310 -0.605010
O7    O     O_R   0.091590 0.591600 0.385310 -0.588400
O8    O     O_R   0.091590 0.408400 0.385310 -0.624027
O9    O     O_2   0.534425 0.754711 0.314229 -0.608035
O10   O     O_R   0.634321 0.705732 0.160957 -0.766282
O11   O     O_2   0.600160 0.211927 0.200806 -0.584625
O12   O     O_R   0.408400 0.091620 0.614690 -0.625958
O13   O     O_R   0.744085 0.202862 0.129942 -0.783265
O14   O     O_2   0.091616 0.283656 0.203041 -0.592026
O15   O     O_R   0.232162 0.329554 0.152262 -0.758486
O16   O     O_2   0.042380 0.745854 0.295651 -0.599774
O17   O     O_R   0.148957 0.791890 0.147658 -0.776236
O18   O     O_2   0.726425 0.822713 0.979580 -0.581772
O19   O     O_R   0.791319 0.905612 0.814749 -0.807162
O20   O     O_2   0.737909 0.095488 0.878425 -0.624576
O21   O     O_R   0.801338 0.105745 0.670424 -0.788785
O22   O     O_2   0.296902 0.393054 0.868851 -0.616865
O23   O     O_R   0.908400 0.408380 0.614690 -0.610560
O24   O     O_R   0.278431 0.421544 0.645499 -0.792701
O25   O     O_2   0.191826 0.651820 0.969551 -0.586645
O26   O     O_R   0.294634 0.593298 0.829835 -0.801454
O27   O     O_2   0.584659 0.677976 0.718032 -0.604177
O28   O     O_R   0.556478 0.784174 0.867285 -0.803283
O29   O     O_2   0.570526 0.306365 0.816474 -0.586285
O30   O     O_R   0.573890 0.171714 0.911396 -0.782465
O31   O     O_2   0.154246 0.213262 0.947881 -0.594811
O32   O     O_R   0.063886 0.308878 0.838545 -0.795680
O33   O     O_2   0.087649 0.823837 0.699884 -0.614649
O34   O     O_R   0.908400 0.591620 0.614690 -0.623663
O35   O     O_R   0.045417 0.717028 0.847491 -0.778797
O36   O     O_R   0.408370 0.908370 0.385350 -0.609315
O37   O     O_R   0.408370 0.091630 0.385350 -0.620626
O38   O     O_R   0.908370 0.408370 0.385350 -0.633226
O39   O     O_R   0.908370 0.591630 0.385350 -0.603891
O40   O     O_R   0.591610 0.091610 0.614650 -0.619481
Zn1   Zn    Zn3+2 0.500010 0.000000 0.653130 0.993090
Zn2   Zn    Zn3+2 0.000010 0.500000 0.653130 1.008764
Zn3   Zn    Zn3+2 0.499980 0.000000 0.346870 1.021688
Zn4   Zn    Zn3+2 0.999980 0.500000 0.346870 1.021303

loop_
_geom_bond_atom_site_label_1
_geom_bond_atom_site_label_2
_ccdc_geom_bond_type
C19   C56   S    
C14   O5    A    
C49   O9    D    
C21   C26   A    
C5    N3    A    
H8    O17   S    
C50   O13   S    
C28   H2    S    
C45   H18   S    
C48   C56   S    
C9    H27   S    
C48   C57   S    
C27   C33   A    
O2    Zn1   S    
C13   H31   S    
C15   O2    A    
C23   O23   A    
C38   C42   A    
C11   H12   S    
C18   C42   A    
O12   Zn1   S    
C20   C40   A    
H10   O21   S    
C20   C25   A    
C10   H30   S    
H6    O13   S    
C12   C22   S    
C51   O14   D    
C12   O37   A    
C9    H28   S    
H17   O35   S    
H11   O24   S    
C23   C26   S    
H5    O10   S    
C2    C13   S    
H14   O28   S    
C63   H35   S    
C16   O3    A    
N2    Zn4   S    
C47   C60   S    
C62   H34   S    
C44   C53   S    
C28   C35   A    
C58   O28   S    
H9    O19   S    
C4    N2    A    
C51   O15   S    
C41   C46   S    
C23   O38   A    
C6    N4    A    
C43   C48   S    
C60   O32   S    
C25   C34   S    
C17   C38   S    
C3    N1    A    
C49   O10   S    
C29   H3    S    
C63   H21   S    
C3    H22   S    
C37   C41   A    
C15   O6    A    
C13   H23   S    
O5    Zn3   S    
C56   H33   S    
C31   C49   S    
O36   Zn3   S    
C19   C43   A    
O4    Zn2   S    
C45   C47   S    
C25   C29   A    
C64   N1    A    
C27   H36   S    
C54   O21   S    
C14   O40   A    
C34   O39   A    
N4    Zn2   S    
C57   O26   S    
C36   C40   A    
C4    C6    A    
C11   C64   S    
C53   O19   S    
C17   O4    A    
C44   C58   S    
O3    Zn2   S    
C61   O35   S    
C39   C43   A    
H13   O26   S    
O23   Zn2   S    
C10   H29   S    
C44   C62   S    
C6    H26   S    
C59   O29   D    
O8    Zn4   S    
C35   C39   A    
O38   Zn4   S    
C9    C11   S    
C52   O17   S    
C55   O22   D    
C58   O27   D    
O1    Zn1   S    
C46   C54   S    
C18   C45   S    
C32   C37   A    
C8    N4    A    
C60   O31   D    
C32   C50   S    
C1    O36   A    
C1    C24   S    
C21   C41   A    
C52   O16   D    
C26   C30   A    
C22   C27   A    
O6    Zn3   S    
C17   O8    A    
C15   C36   S    
N3    Zn1   S    
C56   H19   S    
C47   C55   S    
C57   O25   D    
C7    C9    S    
H15   O30   S    
C62   H20   S    
N1    Zn3   S    
C7    C64   A    
C18   C22   A    
C2    C8    A    
C24   C28   A    
O40   Zn1   S    
C3    C5    A    
C10   C13   S    
C54   O20   D    
C4    H24   S    
C33   C51   S    
C59   O30   S    
C33   C38   A    
H16   O32   S    
H7    O15   S    
C46   C63   S    
C53   O18   D    
C19   C24   A    
C29   C31   A    
O7    Zn4   S    
C50   O11   D    
C14   C37   S    
C30   C32   A    
C61   O33   D    
C48   C61   S    
O34   Zn2   S    
C34   O34   A    
C42   C47   S    
C20   C62   S    
C5    H25   S    
O39   Zn4   S    
C21   C63   S    
O37   Zn3   S    
C16   C39   S    
C40   C44   S    
C55   O24   S    
C46   C59   S    
C8    C10   S    
C35   C52   S    
C2    N2    A    
C31   C36   A    
C7    N3    A    
C45   H32   S    
C30   H4    S    
C11   H1    S    
C16   O7    A    
C1    O1    A    
C12   O12   A    
