data_mof_unit_67685.cif
_audit_creation_date              2012-12-10T19:48:30-0500
_audit_creation_method            fapswitch 2.2
_symmetry_space_group_name_H-M    P1
_symmetry_Int_Tables_number       1
_space_group_crystal_system       triclinic
_cell_length_a                    10.861816
_cell_length_b                    10.633691
_cell_length_c                    9.515508
_cell_angle_alpha                 90.998652
_cell_angle_beta                  90.770632
_cell_angle_gamma                 89.132546
_cell_volume                      1098.66409276

loop_
_atom_site_label
_atom_site_type_symbol
_atom_type_description
_atom_site_fract_x
_atom_site_fract_y
_atom_site_fract_z
_atom_type_partial_charge
C1    C     C_R   0.505036 0.260068 0.498915 0.817418
C2    C     C_R   0.496196 0.740108 0.501084 0.821094
C3    C     C_R   0.871282 0.492941 0.503031 -0.055255
C4    C     C_R   0.128619 0.504587 0.496415 -0.054705
C5    C     C_R   0.943525 0.420321 0.596906 0.091653
C6    C     C_R   0.056329 0.576326 0.401787 0.089122
C7    C     C_3   0.562806 0.043250 0.615526 -0.215311
C8    C     C_3   0.439828 0.957434 0.384326 -0.171450
C9    C     C_3   0.616675 0.951184 0.501867 -0.145548
C10   C     C_3   0.386130 0.049366 0.498137 -0.104533
C11   C     C_3   0.496078 0.876951 0.502808 -0.092659
C12   C     C_3   0.506560 0.123451 0.497107 -0.085430
C13   C     C_3   0.443600 0.967746 0.613606 0.230245
C14   C     C_3   0.559158 0.032847 0.386333 0.237355
C15   C     C_3   0.607163 0.517511 0.050399 0.208193
C16   C     C_3   0.392801 0.482501 0.949629 0.206090
C17   C     C_3   0.537447 0.606058 0.953323 0.307634
C18   C     C_3   0.462452 0.393908 0.046754 0.303239
C19   C     C_3   0.572080 0.410965 0.947635 -0.151111
C20   C     C_3   0.427874 0.588987 0.052396 -0.147895
C21   C     C_R   0.262721 0.504988 0.498761 0.812525
C22   C     C_R   0.737205 0.493918 0.501173 0.806932
C23   C     C_R   0.138342 0.886646 0.241587 0.100252
C24   C     C_R   0.868143 0.109388 0.759794 0.118389
C25   C     C_R   0.125335 0.792786 0.344382 0.185439
C26   C     C_R   0.879446 0.202379 0.655760 0.177646
C27   C     C_R   0.105555 0.667044 0.301783 -0.022385
C28   C     C_R   0.894242 0.329407 0.696750 -0.020775
C29   C     C_R   0.099807 0.635628 0.158414 -0.219601
C30   C     C_R   0.896502 0.362609 0.839720 -0.215331
C31   C     C_R   0.117805 0.726202 0.056621 0.079646
C32   C     C_R   0.880421 0.272468 0.942529 0.070935
C33   C     C_R   0.139315 0.851571 0.098137 0.294494
C34   C     C_R   0.864499 0.145819 0.902479 0.295620
C35   C     C_R   0.928729 0.569680 0.407179 -0.174075
C36   C     C_R   0.071227 0.427386 0.591912 -0.171105
Cu1   Cu    Cu3+1 0.500030 0.499990 0.643150 0.995884
Cu2   Cu    Cu3+1 0.499970 0.500010 0.356850 0.997160
H1    H     H_    0.631210 0.336167 0.900180 0.153048
H2    H     H_    0.368491 0.663609 0.099823 0.153617
H3    H     H_    0.075209 0.541080 0.125925 0.189537
H4    H     H_    0.917517 0.458313 0.871190 0.189453
H5    H     H_    0.873571 0.628694 0.338380 0.162699
H6    H     H_    0.126499 0.368655 0.660904 0.162341
H7    H     H_    0.709673 0.907134 0.497419 0.170222
H8    H     H_    0.294128 0.095206 0.503825 0.177701
H9    H     H_    0.609277 0.081260 0.711330 0.166360
H10   H     H_    0.392680 0.920910 0.288244 0.187724
N1    N     N_3   0.500090 0.499970 0.858290 -0.200683
N2    N     N_3   0.499910 0.500030 0.141710 -0.202471
O1    O     O_R   0.500060 0.316850 0.620870 -0.587367
O2    O     O_R   0.499940 0.683150 0.379130 -0.587279
O3    O     O_R   0.500000 0.316860 0.379090 -0.547469
O4    O     O_R   0.500000 0.683140 0.620910 -0.547738
O5    O     O_R   0.319670 0.500010 0.620890 -0.560449
O6    O     O_R   0.680330 0.499990 0.379110 -0.561941
O7    O     O_R   0.319620 0.500010 0.379110 -0.565229
O8    O     O_R   0.680380 0.499990 0.620890 -0.566100
Br1   Br    Br    0.163755 0.977246 0.958659 -0.443673
Br2   Br    Br    0.843731 0.020081 0.042697 -0.479946
Br3   Br    Br    0.611065 0.761127 0.895053 -0.549190
Br4   Br    Br    0.387950 0.239276 0.105636 -0.515081
N3    N     N_3   0.728585 0.544274 0.108476 -0.524259
H11   H     H_    0.786963 0.557899 0.024185 0.232211
H12   H     H_    0.721703 0.631567 0.160123 0.253391
N4    N     N_3   0.271214 0.456294 0.891664 -0.525798
H13   H     H_    0.212684 0.443715 0.976073 0.231215
H14   H     H_    0.277485 0.368690 0.840603 0.252601
N5    N     N_3   0.147216 0.017962 0.279099 -0.516746
H15   H     H_    0.126440 0.033695 0.384296 0.276466
H16   H     H_    0.077267 0.066339 0.225267 0.294816
N6    N     N_3   0.869464 0.977151 0.725547 -0.482882
H17   H     H_    0.782202 0.941924 0.744358 0.254520
H18   H     H_    0.889675 0.959184 0.620494 0.283998
Br5   Br    Br    0.127099 0.833584 0.542752 -0.567665
Br6   Br    Br    0.882555 0.158684 0.458312 -0.601876
N7    N     N_3   0.108418 0.689994 0.911302 -0.548222
H19   H     H_    0.190835 0.712035 0.862570 0.275389
H20   H     H_    0.037162 0.742585 0.864888 0.298386
N8    N     N_3   0.886548 0.310578 0.087438 -0.551154
H21   H     H_    0.804614 0.285467 0.135211 0.273054
H22   H     H_    0.959368 0.261740 0.135707 0.277331
N9    N     N_3   0.376104 0.935673 0.738829 -0.478021
H23   H     H_    0.431586 0.955050 0.826764 0.274083
H24   H     H_    0.358996 0.839418 0.736943 0.266924
N10   N     N_3   0.626844 0.065475 0.261398 -0.481219
H25   H     H_    0.570244 0.049803 0.173460 0.273493
H26   H     H_    0.646783 0.161165 0.266043 0.262083

loop_
_geom_bond_atom_site_label_1
_geom_bond_atom_site_label_2
_ccdc_geom_bond_type
N4    H14   S    
N3    H12   S    
C9    H7    S    
C27   C29   A    
C23   N5    S    
C4    C36   A    
N7    H19   S    
C15   C19   S    
C18   N2    S    
C19   H1    S    
C24   C26   A    
C20   H2    S    
N10   H26   S    
Cu2   O2    S    
C5    C28   S    
C5    C36   A    
C17   C20   S    
C6    C35   A    
C15   C17   S    
C18   C19   S    
C15   N2    S    
N5    H16   S    
C1    O3    A    
C20   N2    S    
C17   Br3   S    
N9    H23   S    
C23   C33   A    
C10   H8    S    
C26   Br6   S    
C31   C33   A    
C35   H5    S    
Cu1   O8    S    
N6    H17   S    
N4    H13   S    
C33   Br1   S    
C34   Br2   S    
C1    C12   S    
C2    C11   S    
C10   C12   S    
C31   N7    S    
N7    H20   S    
C7    C12   S    
C16   N1    S    
C14   N10   S    
N6    H18   S    
C2    O4    A    
C17   N1    S    
C21   O5    A    
N10   H25   S    
C18   Br4   S    
C22   O6    A    
C24   C34   A    
C25   Br5   S    
C32   C34   A    
C9    C14   S    
C8    H10   S    
C21   O7    A    
Cu1   Cu2   S    
C32   N8    S    
Cu2   O7    S    
Cu1   N1    S    
C19   N1    S    
C6    C27   S    
C3    C35   A    
C16   C20   S    
C16   C18   S    
C9    C11   S    
C2    O2    A    
Cu1   O4    S    
C4    C6    A    
N9    H24   S    
C12   C14   S    
C36   H6    S    
C16   N4    S    
C24   N6    S    
C7    C9    S    
C8    C14   S    
C29   H3    S    
N8    H21   S    
C3    C5    A    
C10   C13   S    
C22   O8    A    
Cu2   N2    S    
C25   C27   A    
C13   N9    S    
C26   C28   A    
C1    O1    A    
C28   C30   A    
C29   C31   A    
C30   C32   A    
C4    C21   S    
C11   C13   S    
Cu2   O3    S    
C8    C11   S    
Cu1   O1    S    
N8    H22   S    
C23   C25   A    
N5    H15   S    
N3    H11   S    
Cu1   O5    S    
C7    C13   S    
Cu2   O6    S    
C8    C10   S    
C15   N3    S    
C30   H4    S    
C3    C22   S    
C7    H9    S    
