data_mof_unit_24339.cif
_audit_creation_date              2013-03-05T16:00:50-0500
_audit_creation_method            fapswitch 2.2
_symmetry_space_group_name_H-M    P1
_symmetry_Int_Tables_number       1
_space_group_crystal_system       triclinic
_cell_length_a                    8.255072
_cell_length_b                    12.635753
_cell_length_c                    18.740755
_cell_angle_alpha                 99.202722
_cell_angle_beta                  91.166411
_cell_angle_gamma                 98.569414
_cell_volume                      1906.17030801

loop_
_atom_site_label
_atom_site_type_symbol
_atom_site_description
_atom_site_fract_x
_atom_site_fract_y
_atom_site_fract_z
_atom_type_partial_charge
P1    P     P_3+3 0.041040 0.394770 0.336330 0.458721
O1    O     O_2   0.873090 0.425890 0.325140 -0.375305
O2    O     O_3   0.122420 0.434370 0.414380 -0.401108
O3    O     O_3   0.659500 0.627100 0.368810 -0.371396
O4    O     O_2   0.767981 0.544472 0.243091 -0.395936
O5    O     O_3   0.010918 0.253266 0.314742 -0.567707
O6    O     O_3   0.706626 0.742433 0.252513 -0.523041
H1    H     H_    0.726607 0.862893 0.341554 0.129378
C1    C     C_3   0.588655 0.903848 0.253497 -1.025426
H2    H     H_    0.543203 0.970847 0.289424 0.255686
H3    H     H_    0.696234 0.937625 0.225178 0.275831
P2    P     P_3+3 0.672880 0.754030 0.556100 0.462166
P3    P     P_3+3 0.129434 0.823709 0.402318 0.442699
O7    O     O_2   0.848200 0.768190 0.534530 -0.372435
O8    O     O_3   0.081160 0.685950 0.404810 -0.375887
O9    O     O_2   0.003379 0.879892 0.448062 -0.402863
O10   O     O_3   0.689972 0.794891 0.649990 -0.561520
O11   O     O_3   0.088757 0.847152 0.314656 -0.518945
C2    C     C_3   0.131509 0.761641 0.264722 0.479977
H4    H     H_    0.049243 0.684699 0.267961 0.146575
H5    H     H_    0.260695 0.751036 0.274323 0.008017
C3    C     C_3   0.112458 0.787508 0.188766 -0.946545
H6    H     H_    0.982319 0.793105 0.176114 0.287419
H7    H     H_    0.189434 0.865989 0.184489 0.258003
C4    C     C_3   0.281129 0.789931 0.630368 0.417213
H8    H     H_    0.405324 0.813750 0.656099 0.140120
H9    H     H_    0.285882 0.732541 0.579321 0.096504
C5    C     C_3   0.220708 0.891163 0.612857 -0.957812
H10   H     H_    0.167981 0.934739 0.660781 0.283524
H11   H     H_    0.322976 0.946248 0.594485 0.229184
H12   H     H_    0.123980 0.868363 0.569535 0.290554
Ba1   Ba    Ba6+2 0.852780 0.548340 0.465070 1.557025
C6    C     C_3   0.956172 0.207170 0.374230 0.348242
H13   H     H_    0.828528 0.220504 0.382415 0.095679
H14   H     H_    0.034926 0.240974 0.423811 0.128865
C7    C     C_3   0.961124 0.086123 0.357306 -0.875096
H15   H     H_    0.894056 0.051258 0.305066 0.262336
H16   H     H_    0.903241 0.044831 0.400227 0.218315
H17   H     H_    0.090230 0.071678 0.353363 0.272632
C8    C     C_3   0.754650 0.718246 0.683397 0.226623
H18   H     H_    0.859561 0.691148 0.653932 0.102487
H19   H     H_    0.658746 0.647085 0.685257 0.100043
C9    C     C_3   0.816187 0.771741 0.760125 -0.063767
H20   H     H_    0.888893 0.852933 0.759067 0.164565
H21   H     H_    0.898672 0.722344 0.782288 0.068996
P4    P     P_3+3 0.148670 0.605320 0.663680 0.463089
O12   O     O_2   0.316610 0.574140 0.674900 -0.368974
O13   O     O_3   0.067290 0.565720 0.585630 -0.382429
O14   O     O_3   0.530210 0.372990 0.631200 -0.348401
O15   O     O_3   0.179165 0.747128 0.680713 -0.577963
P5    P     P_3+3 0.065672 0.174378 0.595486 0.489326
O16   O     O_3   0.611340 0.366290 0.463630 -0.387572
O17   O     O_3   0.108550 0.314140 0.595200 -0.397087
O18   O     O_2   0.210409 0.122962 0.561096 -0.413658
O19   O     O_3   0.071689 0.154164 0.686209 -0.513966
Ba2   Ba    Ba6+2 0.337060 0.451750 0.534940 1.576940
P6    P     P_3+3 0.640611 0.614400 0.275200 0.442679
C10   C     C_3   0.635482 0.821300 0.297828 0.467707
H22   H     H_    0.523120 0.788072 0.323401 0.029650
H23   H     H_    0.490624 0.864114 0.212323 0.264209
O20   O     O_3   0.578370 0.633800 0.536380 -0.391963
C11   C     C_3   0.461587 0.283237 0.313880 0.435812
H24   H     H_    0.345296 0.306719 0.334841 0.102916
H25   H     H_    0.561676 0.353542 0.326250 0.125174
C12   C     C_3   0.441027 0.250411 0.232108 -0.990376
H26   H     H_    0.338509 0.181956 0.218024 0.274897
H27   H     H_    0.413711 0.319649 0.206783 0.219783
H28   H     H_    0.555792 0.225016 0.210149 0.261406
P7    P     P_3+3 0.520162 0.230894 0.438012 0.421396
O21   O     O_2   0.341510 0.231850 0.465510 -0.371991
O22   O     O_3   0.499731 0.194763 0.343799 -0.586656
H29   H     H_    0.151544 0.722816 0.148673 0.223307
C13   C     C_3   0.100910 0.255818 0.732001 0.542228
H30   H     H_    0.221209 0.299448 0.722280 0.135923
H31   H     H_    0.010590 0.308451 0.722184 0.111115
C14   C     C_3   0.093306 0.242276 0.811305 -0.941793
H32   H     H_    0.131144 0.322221 0.846043 0.218503
H33   H     H_    0.966417 0.210051 0.823782 0.288125
H34   H     H_    0.176941 0.187125 0.825048 0.267048
P8    P     P_3+3 0.550511 0.392468 0.726516 0.459006
C15   C     C_3   0.504751 0.177995 0.714535 0.783517
O23   O     O_2   0.430084 0.468442 0.757327 -0.417854
O24   O     O_3   0.484737 0.272873 0.762129 -0.618193
H35   H     H_    0.440302 0.174758 0.661466 0.071389
H36   H     H_    0.474417 0.087492 0.804532 0.280949
C16   C     C_3   0.427638 0.080178 0.747660 -0.917033
H37   H     H_    0.457770 0.003960 0.716493 0.260290
H38   H     H_    0.293034 0.074254 0.746877 0.243437
C17   C     C_R   0.991827 0.453294 0.049458 0.044220
C18   C     C_R   0.900068 0.393473 0.096696 -0.190074
C19   C     C_R   0.763239 0.423998 0.956721 -0.204949
C20   C     C_R   0.929021 0.460990 0.979194 0.057887
C21   C     C_R   0.705767 0.425797 0.886749 -0.103115
C22   C     C_R   0.811091 0.463075 0.835267 -0.007169
C23   C     C_R   0.974232 0.509983 0.857769 0.010021
C24   C     C_R   0.032905 0.510483 0.930341 0.048627
C25   C     C_R   0.758297 0.455349 0.762045 0.274840
C26   C     C_R   0.867382 0.491845 0.712211 -0.491920
C27   C     C_R   0.024887 0.545144 0.733724 0.189106
C28   C     C_R   0.078168 0.557185 0.807925 -0.082059
C29   C     C_R   0.153985 0.502872 0.072487 0.041034
C30   C     C_R   0.213513 0.501274 0.144643 -0.006037
C31   C     C_R   0.111458 0.449882 0.193454 -0.046011
C32   C     C_R   0.959484 0.390728 0.166392 -0.043554
H39   H     H_    0.826302 0.482746 0.656052 0.189145
H40   H     H_    0.576945 0.397662 0.874116 0.183608
H41   H     H_    0.882826 0.342075 0.198757 0.161264
C33   C     C_R   0.230094 0.616632 0.834515 -0.008327
C34   C     C_R   0.287394 0.617678 0.905121 -0.168312
C35   C     C_R   0.194944 0.560156 0.953283 0.008462
C36   C     C_R   0.257052 0.554334 0.024091 0.051540
C37   C     C_R   0.421353 0.595257 0.047591 -0.205004
C38   C     C_R   0.375757 0.550179 0.167667 -0.023236
C39   C     C_R   0.478779 0.593334 0.117507 -0.144885
C40   C     C_R   0.430379 0.554332 0.240179 0.171075
C41   C     C_R   0.322630 0.513313 0.289332 -0.535853
C42   C     C_R   0.165532 0.458611 0.267305 0.255649
H42   H     H_    0.307781 0.662926 0.801172 0.197000
H43   H     H_    0.605851 0.626418 0.131332 0.187357
H44   H     H_    0.364777 0.519353 0.345090 0.182689
H45   H     H_    0.672993 0.395250 0.992784 0.135121
H46   H     H_    0.781999 0.345427 0.080740 0.126659
H47   H     H_    0.404524 0.666382 0.920911 0.184896
H48   H     H_    0.510811 0.628063 0.012689 0.156557
C43   C     C_R   0.775580 0.178693 0.516596 -0.432037
C44   C     C_R   0.430903 0.806443 0.467935 -0.503007
C45   C     C_R   0.404162 0.983828 0.442499 -0.200690
C46   C     C_R   0.339586 0.875342 0.439263 0.211373
C47   C     C_R   0.579658 0.847238 0.506955 0.280991
C48   C     C_R   0.646537 0.958740 0.511759 -0.098329
C49   C     C_R   0.557717 0.026981 0.477858 -0.068351
C50   C     C_R   0.622800 0.137538 0.481956 0.238640
C51   C     C_R   0.866674 0.112536 0.547961 0.327132
C52   C     C_R   0.799160 0.004388 0.548598 -0.133590
H49   H     H_    0.331160 0.033320 0.417839 0.179272
H50   H     H_    0.867691 0.958117 0.578212 0.186593
H51   H     H_    0.824754 0.263622 0.519135 0.168937
H52   H     H_    0.380953 0.721368 0.463358 0.175877
N1    N     N_R   0.679765 0.783130 0.807480 0.262818
O25   O     O_R   0.574245 0.846140 0.796030 -0.370635
O26   O     O_R   0.670433 0.736696 0.864690 -0.433643
N2    N     N_R   0.678077 0.173376 0.703753 0.201086
O27   O     O_R   0.756714 0.239309 0.665696 -0.499549
O28   O     O_R   0.750263 0.097821 0.724500 -0.395641

loop_
_geom_bond_atom_site_label_1
_geom_bond_atom_site_label_2
_geom_bond_distance
_ccdc_geom_bond_type
P4    C27   1.867556 S    
C8    H18   1.104344 S    
C21   C22   1.402192 A    
P8    C25   1.842551 S    
C13   H31   1.101542 S    
C13   H30   1.095283 S    
C23   C24   1.433159 A    
C14   H34   1.105518 S    
C37   C39   1.389405 A    
C25   C26   1.394280 A    
O8    Ba1   2.755170 S    
P6    C40   1.849450 S    
C48   C52   1.420347 A    
H36   C16   1.111181 S    
C33   C34   1.393513 A    
C4    C5    1.520003 S    
C29   C30   1.433580 A    
C26   H39   1.082159 S    
P3    O11   1.749931 S    
C5    H10   1.108348 S    
C2    H5    1.109112 S    
C14   H33   1.109508 S    
Ba1   O20   2.911043 S    
P1    O1    1.515859 D    
P7    O21   1.573200 D    
C16   H38   1.102141 S    
C40   C41   1.398935 A    
C20   C24   1.421277 A    
C6    C7    1.518442 S    
C41   C42   1.396362 A    
O1    Ba1   2.845421 S    
O11   C2    1.404068 S    
P7    O22   1.749693 S    
C4    O15   1.396809 S    
Ba1   O16   2.806487 S    
C11   H25   1.110489 S    
O16   P7    1.750080 S    
H1    C10   1.110369 S    
C35   C36   1.429666 A    
P3    C46   1.839554 S    
C8    C9    1.529586 S    
C36   C37   1.412369 A    
C12   H27   1.108502 S    
P2    O10   1.749332 S    
C9    N1    1.457649 S    
C1    H2    1.110603 S    
O6    C10   1.408280 S    
P5    O19   1.760025 S    
C15   C16   1.531441 S    
C8    H19   1.111536 S    
P2    Ba1   3.421416 S    
C18   H46   1.077824 S    
C31   C42   1.427687 A    
P8    O24   1.765418 S    
C3    H29   1.108545 S    
C15   O24   1.408240 S    
C7    H17   1.109745 S    
P5    C51   1.854127 S    
P4    O13   1.570647 S    
C28   C33   1.399845 A    
P2    C47   1.848185 S    
P1    O5    1.747719 S    
C33   H42   1.079512 S    
C2    C3    1.520812 S    
C14   H32   1.108671 S    
P8    O23   1.540712 D    
O7    Ba1   2.879184 S    
C19   C20   1.411276 A    
C16   H37   1.108110 S    
C34   H47   1.074250 S    
C52   H50   1.076794 S    
C44   C47   1.400939 A    
C43   H51   1.082467 S    
C4    H8    1.102606 S    
C24   C35   1.417092 A    
P1    Ba1   3.399351 S    
C41   H44   1.081922 S    
P1    O2    1.570647 S    
O10   C8    1.396219 S    
O3    P6    1.737542 S    
C9    H20   1.112029 S    
C11   H24   1.107647 S    
C21   H40   1.078658 S    
C19   C21   1.390181 A    
C1    H3    1.109581 S    
O2    Ba2   2.802663 S    
C27   C28   1.427511 A    
C12   H28   1.110902 S    
C6    H13   1.101564 S    
O2    Ba1   2.921428 S    
P1    C42   1.876451 S    
C17   C20   1.428419 A    
C9    H21   1.106270 S    
C18   C32   1.393299 A    
O3    Ba1   2.778629 S    
C15   N2    1.457517 S    
C1    C10   1.520483 S    
C26   C27   1.391949 A    
C22   C23   1.414886 A    
Ba2   O21   2.879405 S    
P3    O8    1.735236 S    
C51   C52   1.398814 A    
C13   C14   1.524478 S    
C3    H7    1.110545 S    
C10   H22   1.110284 S    
C4    H9    1.109377 S    
C45   C46   1.386101 A    
C15   H35   1.110326 S    
C38   C39   1.400928 A    
O17   Ba2   2.755814 S    
C43   C51   1.391512 A    
O13   Ba2   2.922332 S    
P4    O12   1.516189 D    
C44   H52   1.081637 S    
C44   C46   1.394145 A    
C11   C12   1.521332 S    
C17   C29   1.417999 A    
C23   C28   1.422244 A    
C5    H12   1.099998 S    
C39   H43   1.079749 S    
P2    O7    1.503269 D    
C49   C50   1.409399 A    
N1    O25   1.300937 A    
O5    C6    1.391468 S    
C37   H48   1.077119 S    
C29   C36   1.422859 A    
O14   Ba2   2.777971 S    
P4    O15   1.747951 S    
C22   C25   1.415138 A    
O14   P8    1.764769 S    
O4    P6    1.543024 D    
C1    H23   1.109936 S    
P5    O18   1.547184 D    
C2    H4    1.110802 S    
C7    H16   1.105959 S    
C48   C49   1.424582 A    
C47   C48   1.422515 A    
C30   C38   1.416480 A    
C34   C35   1.413500 A    
P2    O20   1.583884 S    
N1    O26   1.300305 A    
C43   C50   1.394901 A    
Ba1   O13   2.802015 S    
P7    C50   1.835153 S    
C5    H11   1.108658 S    
C6    H14   1.110935 S    
Ba1   Ba2   4.575853 S    
C11   O22   1.400542 S    
C3    H6    1.110396 S    
C30   C31   1.423559 A    
C45   H49   1.077622 S    
C45   C49   1.409788 A    
O19   C13   1.411080 S    
C7    H15   1.107426 S    
C12   H26   1.110759 S    
C19   H45   1.078023 S    
P3    O9    1.543864 D    
P4    Ba2   3.399948 S    
C31   C32   1.401148 A    
N2    O27   1.293023 A    
Ba2   O20   2.805855 S    
P5    O17   1.749536 S    
C17   C18   1.414058 A    
O6    P6    1.749775 S    
C32   H41   1.079462 S    
N2    O28   1.302516 A    
O16   Ba2   2.910138 S    
O12   Ba2   2.845768 S    
C38   C40   1.413500 A    
