data_mof_unit_33883.cif
_audit_creation_date              2012-12-10T18:11:07-0500
_audit_creation_method            fapswitch 2.2
_symmetry_space_group_name_H-M    P1
_symmetry_Int_Tables_number       1
_space_group_crystal_system       triclinic
_cell_length_a                    11.137289
_cell_length_b                    9.790872
_cell_length_c                    10.702134
_cell_angle_alpha                 87.878503
_cell_angle_beta                  87.821516
_cell_angle_gamma                 88.613733
_cell_volume                      1165.0548944

loop_
_atom_site_label
_atom_site_type_symbol
_atom_type_description
_atom_site_fract_x
_atom_site_fract_y
_atom_site_fract_z
_atom_type_partial_charge
C1    C     C_R   0.260008 0.501543 0.502350 0.958194
C2    C     C_3   0.517341 0.504724 0.122552 -0.248657
C3    C     C_3   0.057965 0.638205 0.562864 0.521048
C4    C     C_3   0.066830 0.373701 0.580417 0.581790
C5    C     C_3   0.919223 0.641314 0.541967 0.053269
C6    C     C_3   0.929052 0.398520 0.605444 0.055818
C7    C     C_3   0.075592 0.497278 0.361393 0.485024
C8    C     C_3   0.120218 0.503601 0.501644 -0.460449
C9    C     C_3   0.876183 0.499317 0.500805 -0.401634
C10   C     C_3   0.933398 0.472946 0.364458 0.550897
C11   C     C_3   0.624317 0.076826 0.520305 0.464255
C12   C     C_3   0.625228 0.911059 0.502891 0.621030
C13   C     C_3   0.420727 0.079542 0.607626 0.535159
C14   C     C_3   0.436056 0.912576 0.618531 0.573956
C15   C     C_3   0.457691 0.092453 0.380679 0.522385
C16   C     C_3   0.438732 0.927916 0.389904 0.512351
C17   C     C_R   0.508216 0.501821 0.260466 0.934318
C18   C     C_R   0.738525 0.498888 0.502036 0.940562
C19   C     C_R   0.500747 0.497953 0.739141 0.878031
C20   C     C_3   0.523914 0.631395 0.031208 -0.174243
C21   C     C_3   0.410368 0.449536 0.053258 -0.289826
C22   C     C_3   0.418109 0.574795 0.961533 0.402874
C23   C     C_3   0.505609 0.494946 0.875479 -0.183628
C24   C     C_3   0.610347 0.548782 0.945536 0.229326
C25   C     C_3   0.500944 0.372308 0.967814 0.326791
C26   C     C_3   0.607087 0.424672 0.037204 0.395363
Cu1   Cu    Cu3+1 0.499860 0.642410 0.500060 1.206166
Cu2   Cu    Cu3+1 0.499860 0.357590 0.500060 1.166202
H1    H     H_    0.542060 0.740295 0.042064 0.263943
H2    H     H_    0.326790 0.404899 0.093020 0.263543
H3    H     H_    0.872135 0.662657 0.633060 0.231045
H4    H     H_    0.917891 0.449486 0.696392 0.231839
N1    N     N_3   0.500250 0.143650 0.502780 -0.246769
N2    N     N_3   0.500250 0.856350 0.502780 -0.261967
O1    O     O_R   0.317570 0.620260 0.500070 -0.466342
O2    O     O_R   0.317570 0.379740 0.500070 -0.459241
O3    O     O_R   0.499850 0.620240 0.316900 -0.507037
O4    O     O_R   0.499850 0.379760 0.316900 -0.505984
O5    O     O_R   0.682190 0.620260 0.500030 -0.469318
O6    O     O_R   0.682190 0.379740 0.500030 -0.543787
O7    O     O_R   0.499910 0.620280 0.683200 -0.488667
O8    O     O_R   0.499910 0.379720 0.683200 -0.537519
Cl1   Cl    Cl    0.291987 0.678666 0.921799 -0.354503
Cl2   Cl    Cl    0.857804 0.574022 0.245081 -0.429239
Cl3   Cl    Cl    0.898031 0.305353 0.317279 -0.336631
O9    O     O_3   0.663396 0.101457 0.641239 -0.676364
H5    H     H_    0.655488 0.200379 0.654928 0.431415
O10   O     O_3   0.686579 0.847864 0.603112 -0.591320
H6    H     H_    0.767108 0.888701 0.605201 0.396097
O11   O     O_3   0.709251 0.135746 0.436435 -0.616239
H7    H     H_    0.785562 0.082113 0.444510 0.372100
O12   O     O_3   0.688213 0.868197 0.393375 -0.604057
H8    H     H_    0.691272 0.939749 0.326768 0.386911
O13   O     O_3   0.446475 0.135962 0.721885 -0.629824
H9    H     H_    0.393306 0.093456 0.788323 0.354982
O14   O     O_3   0.495338 0.868079 0.728723 -0.642563
H10   H     H_    0.550979 0.936086 0.757377 0.396297
O15   O     O_3   0.350338 0.162606 0.350997 -0.584791
H11   H     H_    0.326709 0.132462 0.267967 0.379425
O16   O     O_3   0.317514 0.893169 0.392544 -0.547788
H12   H     H_    0.265889 0.968937 0.422405 0.418964
Cl4   Cl    Cl    0.560785 0.138176 0.247778 -0.466095
Cl5   Cl    Cl    0.483257 0.867024 0.239678 -0.467668
O17   O     O_3   0.301289 0.115251 0.585356 -0.604367
H13   H     H_    0.250186 0.089760 0.660121 0.379942
O18   O     O_3   0.322742 0.853983 0.631186 -0.582487
H14   H     H_    0.288471 0.872563 0.716024 0.384861
O19   O     O_3   0.714718 0.600255 0.886185 -0.644704
H15   H     H_    0.764310 0.630825 0.954393 0.400689
O20   O     O_3   0.491824 0.235972 0.937423 -0.601522
H16   H     H_    0.450692 0.189764 0.010402 0.375764
Cl6   Cl    Cl    0.739096 0.325710 0.067742 -0.275181
Cl7   Cl    Cl    0.112049 0.800082 0.513022 -0.363642
Cl8   Cl    Cl    0.088958 0.213798 0.504944 -0.375979
Cl9   Cl    Cl    0.081258 0.645864 0.727178 -0.417384
Cl10  Cl    Cl    0.137417 0.341562 0.727733 -0.414034
O21   O     O_3   0.881374 0.749217 0.461207 -0.588156
H17   H     H_    0.932931 0.754692 0.384683 0.428751
O22   O     O_3   0.866263 0.278068 0.630779 -0.606916
H18   H     H_    0.865835 0.228694 0.553271 0.416092
Cl11  Cl    Cl    0.119693 0.647022 0.269449 -0.360503
Cl12  Cl    Cl    0.157081 0.372520 0.270341 -0.400446

loop_
_geom_bond_atom_site_label_1
_geom_bond_atom_site_label_2
_ccdc_geom_bond_type
C7    C10   S    
C6    H4    S    
C1    C8    S    
C26   Cl6   S    
C14   O14   S    
C12   O10   S    
C6    C9    S    
C7    C8    S    
O21   H17   S    
C13   N1    S    
C24   C26   S    
Cu2   O6    S    
C15   C16   S    
O14   H10   S    
C16   O16   S    
C18   O6    A    
C16   N2    S    
O13   H9    S    
C20   C24   S    
Cu1   O5    S    
O19   H15   S    
C23   C24   S    
O20   H16   S    
C16   Cl5   S    
C3    Cl9   S    
C9    C10   S    
C4    Cl8   S    
C19   O8    A    
C4    C8    S    
O18   H14   S    
C13   C14   S    
C2    C17   S    
C10   Cl3   S    
C12   O12   S    
C20   H1    S    
Cu1   N2    S    
C10   Cl2   S    
C11   N1    S    
C4    C6    S    
C3    C8    S    
Cu1   O1    S    
C25   C26   S    
C2    C20   S    
O16   H12   S    
C19   C23   S    
C18   O5    A    
C5    C9    S    
Cu1   O7    S    
C22   Cl1   S    
Cu2   O4    S    
C2    C21   S    
O11   H7    S    
C14   O18   S    
C2    C26   S    
C17   O3    A    
O10   H6    S    
C7    Cl11  S    
C20   C22   S    
Cu2   N1    S    
C15   O15   S    
C12   N2    S    
O12   H8    S    
C1    O1    A    
C13   O13   S    
C21   C25   S    
O9    H5    S    
C3    C5    S    
C14   N2    S    
C11   C12   S    
C21   H2    S    
O17   H13   S    
O15   H11   S    
C11   O11   S    
C6    O22   S    
C13   O17   S    
Cu1   O3    S    
Cu2   O8    S    
C15   Cl4   S    
C17   O4    A    
C23   C25   S    
C3    Cl7   S    
C4    Cl10  S    
C24   O19   S    
O22   H18   S    
C9    C18   S    
C7    Cl12  S    
Cu2   O2    S    
Cu1   Cu2   S    
C22   C23   S    
C11   O9    S    
C25   O20   S    
C21   C22   S    
C5    O21   S    
C15   N1    S    
C19   O7    A    
C1    O2    A    
C5    H3    S    
