data_mof_unit_7005.cif
_audit_creation_date              2012-12-10T19:07:35-0500
_audit_creation_method            fapswitch 2.2
_symmetry_space_group_name_H-M    P1
_symmetry_Int_Tables_number       1
_space_group_crystal_system       triclinic
_cell_length_a                    10.856634
_cell_length_b                    10.838104
_cell_length_c                    9.558124
_cell_angle_alpha                 90.620235
_cell_angle_beta                  90.875506
_cell_angle_gamma                 90.741311
_cell_volume                      1124.3660423

loop_
_atom_site_label
_atom_site_type_symbol
_atom_type_description
_atom_site_fract_x
_atom_site_fract_y
_atom_site_fract_z
_atom_type_partial_charge
C1    C     C_R   0.496694 0.262508 0.499318 0.799131
C2    C     C_R   0.939775 0.463168 0.621976 0.035521
C3    C     C_3   0.940266 0.527714 0.760816 -0.536479
C4    C     C_3   0.079607 0.527355 0.757575 0.471094
C5    C     C_R   0.496991 0.066011 0.624255 0.101282
C6    C     C_R   0.484461 0.129511 0.499025 -0.078785
C7    C     C_R   0.457561 0.062676 0.375270 -0.207143
C8    C     C_R   0.458753 0.933786 0.376028 -0.203712
C9    C     C_R   0.487955 0.871040 0.500234 -0.094176
C10   C     C_R   0.501243 0.939038 0.624580 0.081833
C11   C     C_3   0.601360 0.940042 0.734350 -0.229457
C12   C     C_R   0.262522 0.496360 0.498895 0.800303
C13   C     C_3   0.594344 0.079954 0.735439 -0.480161
C14   C     C_R   0.545038 0.599394 0.076198 0.261472
C15   C     C_R   0.443556 0.408099 0.072229 -0.056373
C16   C     C_R   0.443461 0.408133 0.923482 -0.003988
C17   C     C_R   0.545956 0.598992 0.928600 0.250584
C18   C     C_3   0.676224 0.643109 0.930305 -0.521793
C19   C     C_3   0.672928 0.648630 0.087979 -0.490970
C20   C     C_R   0.498499 0.737743 0.500327 0.804828
C21   C     C_R   0.737957 0.496973 0.500571 0.820838
C22   C     C_R   0.066685 0.462632 0.619981 0.109486
C23   C     C_R   0.129819 0.481260 0.496203 -0.169526
C24   C     C_R   0.062607 0.480323 0.369487 -0.180015
C25   C     C_R   0.934036 0.480654 0.371084 -0.193435
C26   C     C_R   0.871370 0.482861 0.499270 -0.085562
Cu1   Cu    Cu3+1 0.499990 0.499980 0.640670 0.967741
Cu2   Cu    Cu3+1 0.500010 0.500020 0.359330 0.950877
H1    H     H_    0.108585 0.486255 0.269961 0.190156
H2    H     H_    0.556634 0.117986 0.834206 0.184557
H3    H     H_    0.678177 0.129055 0.698048 0.202676
H4    H     H_    0.399653 0.332532 0.126070 0.138724
H5    H     H_    0.399284 0.332663 0.866373 0.158869
H6    H     H_    0.736392 0.570070 0.891475 0.218684
H7    H     H_    0.689803 0.734240 0.882894 0.200456
H8    H     H_    0.737623 0.583563 0.137729 0.217455
H9    H     H_    0.676240 0.744255 0.131275 0.198872
H10   H     H_    0.884863 0.485447 0.272214 0.161134
H11   H     H_    0.902041 0.622211 0.754915 0.178941
H12   H     H_    0.903515 0.467094 0.843830 0.223510
H13   H     H_    0.123389 0.620469 0.752006 0.079413
H14   H     H_    0.440748 0.109460 0.277393 0.155848
H15   H     H_    0.441954 0.883973 0.278609 0.162659
H16   H     H_    0.571464 0.898208 0.833937 0.143310
N1    N     N_R   0.500790 0.500930 0.147930 -0.193888
N2    N     N_R   0.500790 0.500890 0.852020 -0.195516
O1    O     O_R   0.500000 0.319640 0.618810 -0.587971
O2    O     O_R   0.500010 0.319680 0.381230 -0.593123
O3    O     O_R   0.319650 0.499970 0.618810 -0.561172
O4    O     O_R   0.319660 0.500010 0.381230 -0.580279
O5    O     O_R   0.499990 0.680320 0.618770 -0.581912
O6    O     O_R   0.500000 0.680360 0.381190 -0.585118
O7    O     O_R   0.680340 0.499990 0.618770 -0.575591
O8    O     O_R   0.680350 0.500030 0.381190 -0.590992
C27   C     C_1   0.719880 0.895110 0.681617 0.274065
N3    N     N_1   0.812737 0.859735 0.640112 -0.310227
F1    F     F_    0.130517 0.451775 0.858347 -0.656955

loop_
_geom_bond_atom_site_label_1
_geom_bond_atom_site_label_2
_ccdc_geom_bond_type
C4    F1    S    
C2    C22   A    
C12   O4    A    
C23   C24   A    
Cu1   O7    S    
C1    O2    A    
C6    C7    A    
C25   H10   S    
C20   O5    A    
C4    C22   S    
C18   H7    S    
C9    C20   S    
C5    C13   S    
C14   C17   A    
C8    H15   S    
C27   N3    T    
C10   C11   S    
C12   O3    A    
C3    H11   S    
C7    C8    A    
C2    C26   A    
C24   C25   A    
C21   O7    A    
Cu2   O6    S    
C12   C23   S    
C21   O8    A    
Cu1   O3    S    
Cu1   N2    S    
C5    C10   A    
C21   C26   S    
Cu1   O5    S    
C3    H12   S    
C17   C18   S    
C14   N1    A    
C2    C3    S    
C19   H8    S    
C18   H6    S    
C5    C6    A    
C16   H5    S    
Cu2   N1    S    
C4    H13   S    
C15   N1    A    
Cu1   O1    S    
C1    C6    S    
C11   H16   S    
C13   H2    S    
C11   C13   S    
C11   C27   S    
C17   N2    A    
C20   O6    A    
C18   C19   S    
C9    C10   A    
C7    H14   S    
C16   N2    A    
Cu1   Cu2   S    
Cu2   O8    S    
C24   H1    S    
C1    O1    A    
C19   H9    S    
C25   C26   A    
C22   C23   A    
Cu2   O4    S    
C14   C19   S    
C13   H3    S    
Cu2   O2    S    
C3    C4    S    
C15   C16   A    
C8    C9    A    
C15   H4    S    
