data_mof_unit_6645.cif
_audit_creation_date              2013-03-05T15:47:58-0500
_audit_creation_method            fapswitch 2.2
_symmetry_space_group_name_H-M    P1
_symmetry_Int_Tables_number       1
_space_group_crystal_system       triclinic
_cell_length_a                    26.776607
_cell_length_b                    7.082644
_cell_length_c                    11.971643
_cell_angle_alpha                 90.078659
_cell_angle_beta                  103.352847
_cell_angle_gamma                 90.31626
_cell_volume                      2208.99267856

loop_
_atom_site_label
_atom_site_type_symbol
_atom_site_description
_atom_site_fract_x
_atom_site_fract_y
_atom_site_fract_z
_atom_type_partial_charge
O1    O     O_R   0.437360 0.505910 0.042120 -0.583585
O2    O     O_R   0.562640 0.005910 0.957880 -0.588174
O3    O     O_R   0.542480 0.176660 0.157100 -0.579251
O4    O     O_R   0.457520 0.676660 0.842900 -0.582123
C1    C     C_R   0.556190 0.345149 0.198268 0.958794
C2    C     C_R   0.443767 0.844316 0.801805 0.961444
O5    O     O_R   0.436520 0.176250 0.054800 -0.585902
O6    O     O_R   0.563480 0.676250 0.945200 -0.580625
O7    O     O_R   0.455920 0.005040 0.854840 -0.593179
O8    O     O_R   0.544080 0.505040 0.145160 -0.595404
C3    C     C_R   0.417500 0.344302 0.063560 0.958064
C4    C     C_R   0.582447 0.845188 0.936224 0.960239
O9    O     O_3   0.506490 0.338900 0.934520 -0.262277
O10   O     O_3   0.493510 0.838900 0.065480 -0.262170
V1    V     V_3+5 0.498800 0.064400 0.012150 1.250556
V2    V     V_3+5 0.501200 0.564400 0.987850 1.252399
C5    C     C_R   0.679751 0.892304 0.754855 0.315997
C6    C     C_R   0.320122 0.353073 0.246019 0.317613
H1    H     H_    0.597051 0.878577 0.723718 0.191223
H2    H     H_    0.402834 0.349465 0.276777 0.187389
H3    H     H_    0.776388 0.972010 0.728719 0.187738
H4    H     H_    0.222831 0.305869 0.276663 0.187015
C7    C     C_R   0.631672 0.855350 0.902772 -0.141603
C8    C     C_R   0.368271 0.350789 0.097028 -0.138094
C9    C     C_R   0.867368 0.816048 0.207711 -0.195071
C10   C     C_R   0.132742 0.378385 0.789685 -0.194491
C11   C     C_R   0.821396 0.792371 0.241026 -0.078462
C12   C     C_R   0.178793 0.383182 0.755187 -0.079513
C13   C     C_R   0.774719 0.807227 0.160897 -0.195808
C14   C     C_R   0.225413 0.375941 0.836104 -0.194969
C15   C     C_R   0.772773 0.848911 0.044015 0.114561
C16   C     C_R   0.227200 0.360671 0.955185 0.115338
C17   C     C_R   0.820156 0.875671 0.011022 0.107864
C18   C     C_R   0.179693 0.352121 0.989510 0.109661
C19   C     C_R   0.725512 0.861140 0.958746 0.068477
C20   C     C_R   0.274425 0.355997 0.041054 0.071356
C21   C     C_R   0.726480 0.892688 0.841268 -0.007950
C22   C     C_R   0.273330 0.348178 0.159858 -0.006230
C23   C     C_R   0.773823 0.929951 0.813840 -0.153315
C24   C     C_R   0.225728 0.329179 0.189320 -0.162952
C25   C     C_R   0.819580 0.919804 0.896439 -0.261072
C26   C     C_R   0.180031 0.333109 0.106357 -0.257816
C27   C     C_R   0.677215 0.845252 0.986904 -0.256110
C28   C     C_R   0.322789 0.356684 0.012430 -0.256221
C29   C     C_R   0.632947 0.876443 0.787945 -0.177500
C30   C     C_R   0.366938 0.349401 0.212487 -0.171184
C31   C     C_R   0.867340 0.857172 0.093613 -0.164665
C32   C     C_R   0.132606 0.362938 0.905912 -0.163190
H5    H     H_    0.673347 0.829240 0.073958 0.116855
H6    H     H_    0.326741 0.357451 0.924941 0.116758
H7    H     H_    0.903241 0.800523 0.271053 0.107619
H8    H     H_    0.096956 0.387836 0.725436 0.106780
H9    H     H_    0.741043 0.782093 0.193491 0.129678
H10   H     H_    0.259184 0.384897 0.802042 0.129669
H11   H     H_    0.821891 0.759548 0.329611 0.140611
H12   H     H_    0.178428 0.395403 0.664836 0.140971
H13   H     H_    0.854781 0.947428 0.869249 0.142437
H14   H     H_    0.144681 0.320126 0.135101 0.141121
C33   C     C_R   0.091766 0.861272 0.310742 -0.085345
C34   C     C_R   0.908066 0.355061 0.689565 -0.086343
C35   C     C_R   0.409572 0.852453 0.687427 -0.148712
C36   C     C_R   0.590282 0.355694 0.312846 -0.148306
C37   C     C_R   0.105904 0.840655 0.516671 -0.174697
C38   C     C_R   0.893145 0.292191 0.486510 -0.173618
C39   C     C_R   0.072384 0.847551 0.408984 -0.177998
C40   C     C_R   0.926977 0.316299 0.592847 -0.177109
C41   C     C_R   0.144789 0.869253 0.319928 -0.244034
C42   C     C_R   0.855150 0.369119 0.680258 -0.245492
C43   C     C_R   0.179860 0.863764 0.428469 0.100792
C44   C     C_R   0.819712 0.343455 0.573278 0.101453
C45   C     C_R   0.159212 0.847905 0.527191 0.176324
C46   C     C_R   0.839943 0.304677 0.475994 0.177647
C47   C     C_R   0.234433 0.871326 0.442222 0.096609
C48   C     C_R   0.765194 0.354331 0.559631 0.078274
C49   C     C_R   0.267400 0.856580 0.554360 0.120629
C50   C     C_R   0.731976 0.329248 0.448394 0.114989
C51   C     C_R   0.244577 0.840895 0.649506 -0.210415
C52   C     C_R   0.754366 0.288055 0.355038 -0.200579
C53   C     C_R   0.191746 0.838257 0.635874 -0.243342
C54   C     C_R   0.807095 0.276741 0.368867 -0.241063
C55   C     C_R   0.257075 0.894433 0.347723 -0.187015
C56   C     C_R   0.742850 0.390362 0.653295 -0.178465
C57   C     C_R   0.309882 0.896293 0.360974 -0.086229
C58   C     C_R   0.690161 0.404839 0.639282 -0.086389
C59   C     C_R   0.343100 0.874542 0.469001 0.061460
C60   C     C_R   0.656753 0.383729 0.531290 0.049775
C61   C     C_R   0.322048 0.858479 0.567691 0.127906
C62   C     C_R   0.677515 0.346835 0.434009 0.129772
C63   C     C_R   0.397192 0.875900 0.480971 0.394141
C64   C     C_R   0.602869 0.403095 0.518026 0.395875
C65   C     C_R   0.429708 0.867540 0.590559 -0.184255
C66   C     C_R   0.570433 0.392047 0.408330 -0.180395
C67   C     C_R   0.356628 0.846562 0.676428 -0.232032
C68   C     C_R   0.642926 0.332424 0.325282 -0.224109
H15   H     H_    0.176177 0.826380 0.711575 0.151816
H16   H     H_    0.822330 0.245311 0.294505 0.151235
H17   H     H_    0.344079 0.834331 0.755273 0.106192
H18   H     H_    0.655358 0.307325 0.247291 0.104739
H19   H     H_    0.470972 0.870358 0.600280 0.178910
H20   H     H_    0.529354 0.408026 0.397618 0.170692
H21   H     H_    0.324278 0.918699 0.284756 0.154671
H22   H     H_    0.676145 0.438833 0.714604 0.156842
H23   H     H_    0.090130 0.828900 0.592039 0.121383
H24   H     H_    0.908581 0.261799 0.412350 0.120896
H25   H     H_    0.031343 0.841616 0.402157 0.103461
H26   H     H_    0.967890 0.303074 0.599988 0.104382
H27   H     H_    0.157066 0.877671 0.240502 0.111401
H28   H     H_    0.843254 0.397404 0.758609 0.111409
H29   H     H_    0.266254 0.830241 0.736823 0.137080
H30   H     H_    0.732377 0.262088 0.269164 0.135974
H31   H     H_    0.235058 0.913434 0.261218 0.123370
H32   H     H_    0.765015 0.410381 0.739693 0.126466
O11   O     O_R   0.955980 0.206520 0.854760 -0.593482
O12   O     O_R   0.044020 0.706520 0.145240 -0.589583
O13   O     O_R   0.063490 0.536770 0.945200 -0.591751
O14   O     O_R   0.936510 0.036770 0.054800 -0.595971
C69   C     C_R   0.082891 0.368909 0.938076 0.917910
C70   C     C_R   0.917064 0.868028 0.061680 0.918584
O15   O     O_R   0.957530 0.536190 0.842880 -0.593121
O16   O     O_R   0.042470 0.036190 0.157120 -0.596831
O17   O     O_R   0.937350 0.707210 0.042130 -0.587596
O18   O     O_R   0.062650 0.207210 0.957870 -0.592205
C71   C     C_R   0.943140 0.367111 0.802696 0.921981
C72   C     C_R   0.056830 0.868182 0.197357 0.922191
O19   O     O_3   0.993540 0.373870 0.065440 -0.280569
O20   O     O_3   0.006460 0.873870 0.934560 -0.280818
V3    V     V_3+5 0.001200 0.648440 0.987860 1.165832
V4    V     V_3+5 0.998800 0.148440 0.012140 1.160085
N1    N     N_R   0.419886 0.886313 0.383394 0.226843
O21   O     O_R   0.460149 0.992321 0.387747 -0.382713
O22   O     O_R   0.406568 0.765572 0.299662 -0.423182
N2    N     N_R   0.580248 0.431496 0.614555 0.224697
O23   O     O_R   0.542475 0.549314 0.606599 -0.402686
O24   O     O_R   0.590117 0.314721 0.700571 -0.411104
N3    N     N_R   0.678540 0.902701 0.633722 0.222786
O25   O     O_R   0.713051 0.817574 0.591630 -0.444169
O26   O     O_R   0.637487 0.962957 0.562308 -0.393835
N4    N     N_R   0.321400 0.366180 0.367076 0.226037
O27   O     O_R   0.288166 0.468634 0.403237 -0.438072
O28   O     O_R   0.361479 0.307751 0.442310 -0.409207

loop_
_geom_bond_atom_site_label_1
_geom_bond_atom_site_label_2
_geom_bond_distance
_ccdc_geom_bond_type
C22   C24   1.404656 A    
C37   C39   1.391462 A    
O20   V3    1.737263 S    
C7    C29   1.391185 A    
C11   C13   1.393335 A    
C58   H22   1.081047 S    
O1    C3    1.309932 A    
O2    C4    1.309075 A    
C26   H14   1.082785 S    
C2    O7    1.305124 A    
C45   C53   1.390620 A    
C12   H12   1.083026 S    
C63   N1    1.437672 S    
N3    O25   1.300689 A    
C23   C25   1.387705 A    
O11   V4    2.010768 S    
O5    C3    1.310757 A    
C14   H10   1.075994 S    
C4    C7    1.464821 S    
C48   C50   1.430593 A    
C16   C20   1.434225 A    
C2    C35   1.462304 S    
C19   C21   1.430467 A    
C58   C60   1.399216 A    
O17   V3    2.009621 S    
C52   C54   1.385859 A    
C68   H18   1.076069 S    
C3    C8    1.464534 S    
C46   C54   1.390644 A    
O13   V3    2.018716 S    
C43   C45   1.420073 A    
C47   C55   1.410829 A    
C6    N4    1.444581 S    
C33   C41   1.399308 A    
C31   C70   1.469315 S    
C55   H31   1.075824 S    
N2    O23   1.301319 A    
O13   C69   1.310587 A    
C18   C26   1.403459 A    
C44   C48   1.433450 A    
O19   V4    1.737082 S    
C15   C17   1.425040 A    
C43   C47   1.432928 A    
C63   C65   1.398549 A    
C19   C27   1.413705 A    
C9    C31   1.396870 A    
C10   C32   1.396717 A    
C64   N2    1.437631 S    
C24   C26   1.386925 A    
C34   C40   1.394235 A    
O11   C71   1.306783 A    
O6    V2    2.012249 S    
C13   C15   1.419663 A    
C47   C49   1.430543 A    
C48   C56   1.411089 A    
C6    C30   1.402145 A    
C39   H25   1.083554 S    
C55   C57   1.385961 A    
C51   C53   1.386108 A    
C62   C68   1.415713 A    
C59   C61   1.426130 A    
C37   H23   1.084097 S    
C60   C64   1.422059 A    
C59   C63   1.422152 A    
C27   H5    1.076928 S    
C5    C29   1.402887 A    
C36   C66   1.391675 A    
C41   C43   1.417305 A    
C70   O17   1.308437 A    
C16   C18   1.425251 A    
O4    V2    2.021875 S    
C34   C71   1.461132 S    
C69   O18   1.309480 A    
C9    H7    1.083838 S    
C53   H15   1.084669 S    
C10   H8    1.083834 S    
C64   C66   1.398993 A    
H3    C23   1.079274 S    
O6    C4    1.311492 A    
H4    C24   1.079086 S    
H1    C29   1.083571 S    
C52   H30   1.075215 S    
O1    V2    2.005431 S    
C5    C21   1.427551 A    
C51   H29   1.075055 S    
O2    V1    2.008958 S    
C49   C51   1.415764 A    
N4    O28   1.301405 A    
C5    N3    1.444998 S    
C49   C61   1.434846 A    
C57   C59   1.399330 A    
C37   C45   1.404332 A    
C56   C58   1.386167 A    
C36   C68   1.393593 A    
O12   C72   1.308739 A    
C17   C31   1.419922 A    
C15   C19   1.433796 A    
C20   C28   1.414025 A    
O4    C2    1.307831 A    
C54   H16   1.084743 S    
C20   C22   1.430478 A    
C67   H17   1.075991 S    
O3    V1    2.014911 S    
C66   H20   1.084175 S    
N1    O21   1.301442 A    
C28   H6    1.076781 S    
C33   C72   1.460898 S    
N3    O26   1.301342 A    
C50   C62   1.434516 A    
O20   V4    2.184922 S    
C57   H21   1.080987 S    
C7    C27   1.393056 A    
C38   H24   1.084126 S    
C50   C52   1.415682 A    
O3    C1    1.308327 A    
O16   V4    2.022004 S    
O18   V4    2.006079 S    
C32   C69   1.469507 S    
O15   C71   1.312118 A    
C9    C11   1.388225 A    
C56   H32   1.075785 S    
C11   H11   1.083104 S    
C10   C12   1.388190 A    
C17   C25   1.403958 A    
C12   C14   1.393423 A    
O7    V1    2.008850 S    
C8    C30   1.390961 A    
C1    O8    1.304850 A    
C21   C23   1.404726 A    
O8    V2    2.012581 S    
C33   C39   1.394185 A    
C14   C16   1.419612 A    
O12   V3    2.007117 S    
C41   H27   1.077075 S    
C40   H26   1.083569 S    
C13   H9    1.076098 S    
C8    C28   1.393417 A    
C61   C67   1.415437 A    
O5    V1    2.018933 S    
O14   C70   1.311289 A    
C1    C36   1.463215 S    
C60   C62   1.426012 A    
C38   C46   1.404170 A    
C6    C22   1.427405 A    
N4    O27   1.300027 A    
C25   H13   1.082824 S    
O16   C72   1.310312 A    
C18   C32   1.419728 A    
C34   C42   1.399534 A    
N2    O24   1.301285 A    
O14   V4    2.012040 S    
O9    V2    1.737813 S    
O19   V3    2.185176 S    
C42   C44   1.417693 A    
O10   V1    1.737986 S    
C44   C46   1.420371 A    
C42   H28   1.076846 S    
C65   H19   1.084019 S    
C35   C67   1.393551 A    
H2    C30   1.083753 S    
C35   C65   1.391215 A    
C38   C40   1.391203 A    
N1    O22   1.300956 A    
O15   V3    2.015042 S    
