data_mof_unit_65587.cif
_audit_creation_date              2012-12-10T17:04:22-0500
_audit_creation_method            fapswitch 2.2
_symmetry_space_group_name_H-M    P1
_symmetry_Int_Tables_number       1
_space_group_crystal_system       triclinic
_cell_length_a                    15.107457
_cell_length_b                    15.152413
_cell_length_c                    16.023073
_cell_angle_alpha                 89.403315
_cell_angle_beta                  90.169807
_cell_angle_gamma                 90.153229
_cell_volume                      3667.68476619

loop_
_atom_site_label
_atom_site_type_symbol
_atom_type_description
_atom_site_fract_x
_atom_site_fract_y
_atom_site_fract_z
_atom_type_partial_charge
C1    C     C_R   0.259850 0.485256 0.488582 0.502482
C2    C     C_R   0.979610 0.456687 0.497913 0.047345
C3    C     C_R   0.019200 0.540202 0.511154 0.043312
C4    C     C_R   0.739820 0.514948 0.512322 0.500590
C5    C     C_R   0.110997 0.548933 0.507491 -0.120406
C6    C     C_R   0.124074 0.393830 0.473095 -0.126551
C7    C     C_R   0.032516 0.383967 0.478670 -0.134111
C8    C     C_R   0.522216 0.163728 0.516388 0.023300
C9    C     C_R   0.483424 0.835240 0.483820 0.039958
C10   C     C_R   0.402485 0.966124 0.442630 -0.148522
C11   C     C_R   0.410170 0.874898 0.445417 -0.155945
C12   C     C_1   0.478108 0.519444 0.886726 -0.039406
C13   C     C_R   0.550317 0.887224 0.521455 0.240056
C14   C     C_R   0.541476 0.979523 0.519623 0.095011
C15   C     C_R   0.467394 0.018820 0.479604 -0.000213
C16   C     C_R   0.513485 0.259809 0.513145 0.508404
C17   C     C_R   0.458757 0.110484 0.477695 -0.123664
C18   C     C_R   0.594917 0.124881 0.556939 -0.151763
C19   C     C_R   0.604826 0.033655 0.558159 -0.102130
C20   C     C_R   0.486685 0.739587 0.486326 0.487026
C21   C     C_R   0.512883 0.488628 0.277316 0.503978
C22   C     C_R   0.487338 0.511274 0.722724 0.506370
C23   C     C_1   0.522890 0.480064 0.113377 -0.040600
C24   C     C_1   0.518389 0.483927 0.188264 0.019531
C25   C     C_2   0.527909 0.475739 0.023878 -0.118375
C26   C     C_2   0.473203 0.523754 0.976229 -0.118731
C27   C     C_1   0.482343 0.515703 0.811817 0.021274
C28   C     C_R   0.163600 0.476011 0.488464 0.026619
C29   C     C_R   0.835463 0.522217 0.516585 0.036499
C30   C     C_R   0.966280 0.613855 0.526899 -0.130475
C31   C     C_R   0.874592 0.605069 0.528221 -0.119560
C32   C     C_R   0.887692 0.447900 0.502554 -0.119201
H1    H     H_    0.424273 0.566665 0.004202 0.138579
H2    H     H_    0.003145 0.319780 0.467735 0.110599
H3    H     H_    0.834004 0.662815 0.538331 0.129050
H4    H     H_    0.856528 0.384391 0.491992 0.105498
H5    H     H_    0.402149 0.140321 0.446752 0.130313
H6    H     H_    0.619175 0.785954 0.563258 0.332372
H7    H     H_    0.644893 0.165124 0.586866 0.139856
H8    H     H_    0.345387 0.995457 0.412177 0.120442
H9    H     H_    0.662075 0.005934 0.589579 0.174503
H10   H     H_    0.358856 0.834856 0.417180 0.119247
H11   H     H_    0.576839 0.432815 0.995924 0.140001
H12   H     H_    0.141522 0.612632 0.518612 0.122954
H13   H     H_    0.164182 0.336808 0.458861 0.132198
H14   H     H_    0.995647 0.678285 0.536582 0.113827
O1    O     O_3   0.500000 0.500000 0.500000 -0.441372
O2    O     O_R   0.461330 0.435620 0.316920 -0.535841
O3    O     O_R   0.434750 0.558200 0.677930 -0.533030
O4    O     O_R   0.559650 0.545720 0.316320 -0.532954
O5    O     O_R   0.544270 0.460460 0.688830 -0.536035
O6    O     O_3   0.623265 0.851027 0.561654 -0.722280
O7    O     O_R   0.559890 0.307360 0.561630 -0.544587
O8    O     O_R   0.434610 0.697530 0.534530 -0.539408
O9    O     O_R   0.307380 0.433810 0.444990 -0.544281
O10   O     O_R   0.698130 0.561300 0.458860 -0.536594
O11   O     O_R   0.296270 0.542620 0.535390 -0.543467
O12   O     O_R   0.698230 0.462280 0.560770 -0.541004
O13   O     O_R   0.461480 0.296280 0.460320 -0.546471
O14   O     O_R   0.544020 0.698820 0.443520 -0.538264
Zn1   Zn    Zn3+2 0.574310 0.433680 0.576480 0.941948
Zn2   Zn    Zn3+2 0.433700 0.417860 0.431740 0.939152
Zn3   Zn    Zn3+2 0.574160 0.575160 0.430870 0.949017
Zn4   Zn    Zn3+2 0.417840 0.573310 0.560900 0.943932

loop_
_geom_bond_atom_site_label_1
_geom_bond_atom_site_label_2
_ccdc_geom_bond_type
O1    Zn1   S    
C1    C28   S    
C23   C24   T    
C6    C7    A    
C6    H13   S    
C1    O11   A    
C3    C30   A    
C13   O6    S    
C9    C20   S    
O2    Zn2   S    
C8    C17   A    
O5    Zn1   S    
C22   C27   S    
C21   O2    A    
C25   H11   S    
O12   Zn1   S    
C8    C18   A    
C2    C3    A    
C1    O9    A    
O10   Zn3   S    
C29   C31   A    
O3    Zn4   S    
C17   H5    S    
C13   C14   A    
C4    O10   A    
O4    Zn3   S    
C9    C11   A    
C20   O8    A    
O8    Zn4   S    
O1    Zn2   S    
C22   O3    A    
C32   H4    S    
C10   H8    S    
C21   O4    A    
C5    H12   S    
C29   C32   A    
C31   H3    S    
C10   C15   A    
C23   C25   S    
O1    Zn3   S    
C30   C31   A    
C7    H2    S    
O14   Zn3   S    
C20   O14   A    
C10   C11   A    
C12   C27   T    
C5    C28   A    
O9    Zn2   S    
H6    O6    S    
C11   H10   S    
C2    C32   A    
C18   C19   A    
C8    C16   S    
C21   C24   S    
C4    O12   A    
O1    Zn4   S    
C15   C17   A    
C18   H7    S    
C9    C13   A    
C14   C15   A    
C22   O5    A    
O13   Zn2   S    
C26   H1    S    
C2    C7    A    
C25   C26   D    
C16   O7    A    
O7    Zn1   S    
C14   C19   A    
C30   H14   S    
C6    C28   A    
C4    C29   S    
C19   H9    S    
C12   C26   S    
O11   Zn4   S    
C3    C5    A    
C16   O13   A    
