data_mof_unit_64377.cif
_audit_creation_date              2012-12-10T19:03:20-0500
_audit_creation_method            fapswitch 2.2
_symmetry_space_group_name_H-M    P1
_symmetry_Int_Tables_number       1
_space_group_crystal_system       triclinic
_cell_length_a                    30.410484
_cell_length_b                    30.378722
_cell_length_c                    38.92658
_cell_angle_alpha                 89.991984
_cell_angle_beta                  89.989558
_cell_angle_gamma                 90.01067
_cell_volume                      35961.6046417

loop_
_atom_site_label
_atom_site_type_symbol
_atom_type_description
_atom_site_fract_x
_atom_site_fract_y
_atom_site_fract_z
_atom_type_partial_charge
C1    C     C_R   0.085816 0.500003 0.500000 0.860055
C2    C     C_R   0.499997 0.914189 0.499998 0.856741
C3    C     C_R   0.914081 0.499996 0.499999 0.861387
C4    C     C_R   0.500003 0.085811 0.499999 0.856733
C5    C     C_R   0.585900 0.000004 0.999995 0.859776
C6    C     C_R   0.999996 0.414189 0.000000 0.856386
C7    C     C_R   0.414214 0.999996 0.999993 0.858286
C8    C     C_R   0.000003 0.585811 0.000001 0.856377
C9    C     C_R   0.133077 0.500009 0.499998 -0.019593
C10   C     C_R   0.499991 0.866906 0.499997 -0.013216
C11   C     C_R   0.866628 0.499990 0.499993 -0.024659
C12   C     C_R   0.500008 0.133094 0.500001 -0.013206
C13   C     C_R   0.633319 0.000012 0.999987 -0.024215
C14   C     C_R   0.999990 0.366906 0.000003 -0.013091
C15   C     C_R   0.367010 0.999986 0.999982 -0.017265
C16   C     C_R   0.000011 0.633093 0.000006 -0.013080
C17   C     C_R   0.225275 0.500006 0.500004 0.111313
C18   C     C_R   0.499995 0.774732 0.499993 0.111881
C19   C     C_R   0.774522 0.499981 0.499985 0.113467
C20   C     C_R   0.500005 0.225268 0.500002 0.111881
C21   C     C_R   0.725441 0.000013 0.999987 0.112820
C22   C     C_R   0.999995 0.274732 0.999999 0.111842
C23   C     C_R   0.274786 0.999971 0.999968 0.111325
C24   C     C_R   0.000018 0.725267 0.000012 0.111842
C25   C     C_R   0.298595 0.474075 0.476072 -0.153805
C26   C     C_R   0.468293 0.701489 0.480811 -0.153975
C27   C     C_R   0.701746 0.523003 0.474143 -0.158156
C28   C     C_R   0.531714 0.298517 0.480819 -0.154080
C29   C     C_R   0.298595 0.525927 0.523942 -0.153866
C30   C     C_R   0.468293 0.298498 0.519187 -0.154037
C31   C     C_R   0.701727 0.476961 0.525829 -0.158255
C32   C     C_R   0.531702 0.701496 0.519172 -0.154145
C33   C     C_R   0.798325 0.976458 0.974505 -0.156806
C34   C     C_R   0.968297 0.201490 0.980814 -0.153911
C35   C     C_R   0.201318 0.026742 0.976582 -0.152586
C36   C     C_R   0.031727 0.798517 0.980829 -0.153812
C37   C     C_R   0.798317 0.023550 0.025488 -0.157234
C38   C     C_R   0.968306 0.798498 0.019196 -0.153927
C39   C     C_R   0.201300 0.973218 0.023371 -0.152947
C40   C     C_R   0.031706 0.201496 0.019174 -0.153833
C41   C     C_R   0.344109 0.473948 0.476435 -0.186276
C42   C     C_R   0.469728 0.655928 0.479742 -0.186388
C43   C     C_R   0.656202 0.523484 0.474665 -0.184664
C44   C     C_R   0.530278 0.344079 0.479749 -0.185956
C45   C     C_R   0.344110 0.526049 0.523580 -0.186410
C46   C     C_R   0.469729 0.344059 0.520259 -0.186611
C47   C     C_R   0.656183 0.476490 0.525313 -0.184760
C48   C     C_R   0.530266 0.655934 0.520244 -0.186173
C49   C     C_R   0.843863 0.976043 0.974999 -0.184612
C50   C     C_R   0.969734 0.155929 0.979742 -0.185795
C51   C     C_R   0.155811 0.026774 0.976908 -0.186568
C52   C     C_R   0.030288 0.844078 0.979755 -0.186287
C53   C     C_R   0.843857 0.023953 0.025006 -0.184822
C54   C     C_R   0.969738 0.844059 0.020264 -0.185957
C55   C     C_R   0.155794 0.973204 0.023062 -0.186794
C56   C     C_R   0.030274 0.155934 0.020244 -0.186450
C57   C     C_R   0.366711 0.499998 0.500007 -0.021193
C58   C     C_R   0.499997 0.633314 0.499994 -0.015566
C59   C     C_R   0.633497 0.499990 0.499991 -0.024692
C60   C     C_R   0.500004 0.366686 0.500005 -0.015556
C61   C     C_R   0.866539 0.999996 0.000005 -0.024362
C62   C     C_R   0.000004 0.133314 0.999993 -0.015572
C63   C     C_R   0.133229 0.999994 0.999989 -0.019829
C64   C     C_R   0.000010 0.866686 0.000008 -0.015566
C65   C     C_R   0.274515 0.500003 0.500006 0.114335
C66   C     C_R   0.499997 0.725525 0.499991 0.113015
C67   C     C_R   0.725560 0.499981 0.499985 0.113699
C68   C     C_R   0.500004 0.274475 0.500003 0.113014
C69   C     C_R   0.774452 0.000008 0.999993 0.113662
C70   C     C_R   1.000000 0.225525 0.999995 0.113007
C71   C     C_R   0.225464 0.999975 0.999972 0.114463
C72   C     C_R   0.000017 0.774475 0.000013 0.113006
C73   C     C_R   0.499997 0.586022 0.499998 0.859442
C74   C     C_R   0.586089 0.499999 0.499997 0.859954
C75   C     C_R   0.500000 0.413978 0.500002 0.859434
C76   C     C_R   0.413984 0.499999 0.500003 0.859804
C77   C     C_R   0.000002 0.086022 0.999998 0.859045
C78   C     C_R   0.085995 0.000001 0.999997 0.859623
C79   C     C_R   0.000003 0.913978 0.000002 0.859043
C80   C     C_R   0.913924 0.999998 0.000002 0.859839
C81   C     C_R   0.000002 0.500002 0.432980 0.890466
C82   C     C_R   0.500003 0.000001 0.432986 0.885426
C83   C     C_R   0.000002 0.499997 0.567025 0.889883
C84   C     C_R   0.499997 0.000000 0.567087 0.885096
C85   C     C_R   0.499996 0.000003 0.932975 0.884985
C86   C     C_R   0.000003 0.500000 0.932996 0.885973
C87   C     C_R   0.499997 0.999997 0.067026 0.888594
C88   C     C_R   0.999997 0.500001 0.066993 0.886146
C89   C     C_R   0.023442 0.532359 0.377894 -0.213573
C90   C     C_R   0.530701 0.974686 0.377885 -0.213959
C91   C     C_R   0.976559 0.467653 0.377906 -0.212898
C92   C     C_R   0.469321 0.025325 0.377887 -0.213926
C93   C     C_R   0.023985 0.468210 0.622129 -0.213619
C94   C     C_R   0.532743 0.023060 0.622423 -0.213137
C95   C     C_R   0.976027 0.531776 0.622133 -0.212909
C96   C     C_R   0.467232 0.976951 0.622436 -0.213138
C97   C     C_R   0.530352 0.025647 0.877854 -0.213293
C98   C     C_R   0.031080 0.475006 0.877930 -0.214074
C99   C     C_R   0.469618 0.974378 0.877871 -0.214381
C100  C     C_R   0.968943 0.524997 0.877929 -0.214074
C101  C     C_R   0.525026 0.969049 0.122134 -0.213046
C102  C     C_R   0.031152 0.524916 0.122024 -0.214345
C103  C     C_R   0.474951 0.030926 0.122136 -0.213969
C104  C     C_R   0.968826 0.475103 0.122039 -0.214376
C105  C     C_R   0.024406 0.532660 0.342166 0.175316
C106  C     C_R   0.530695 0.973519 0.342142 0.175476
C107  C     C_R   0.975593 0.467355 0.342179 0.175223
C108  C     C_R   0.469327 0.026492 0.342144 0.175458
C109  C     C_R   0.024641 0.467831 0.657864 0.174262
C110  C     C_R   0.533221 0.023535 0.658210 0.172683
C111  C     C_R   0.975376 0.532153 0.657868 0.174156
C112  C     C_R   0.466749 0.976480 0.658223 0.172679
C113  C     C_R   0.531672 0.024967 0.842083 0.175940
C114  C     C_R   0.031127 0.473818 0.842197 0.175653
C115  C     C_R   0.468290 0.975063 0.842100 0.176101
C116  C     C_R   0.968899 0.526181 0.842196 0.175652
C117  C     C_R   0.525716 0.968723 0.157879 0.174383
C118  C     C_R   0.031491 0.525691 0.157751 0.174852
C119  C     C_R   0.474258 0.031248 0.157881 0.174517
C120  C     C_R   0.968484 0.474334 0.157766 0.174873
C121  C     C_R   0.999998 0.500008 0.323210 -0.048674
C122  C     C_R   0.500010 0.000004 0.323212 -0.048037
C123  C     C_R   0.000009 0.499991 0.676689 -0.046209
C124  C     C_R   0.499983 0.000008 0.676997 -0.046263
C125  C     C_R   0.499979 0.000015 0.823320 -0.046526
C126  C     C_R   0.000013 0.499997 0.823231 -0.048309
C127  C     C_R   0.499989 0.999986 0.176699 -0.046631
C128  C     C_R   0.999987 0.500013 0.176626 -0.047522
C129  C     C_R   0.000000 0.500006 0.395686 -0.106267
C130  C     C_R   0.500010 0.000005 0.395682 -0.104486
C131  C     C_R   0.000004 0.499993 0.604325 -0.105966
C132  C     C_R   0.499990 0.000004 0.604527 -0.106110
C133  C     C_R   0.499988 0.000009 0.895672 -0.097897
C134  C     C_R   0.000010 0.500002 0.895710 -0.104459
C135  C     C_R   0.499991 0.999990 0.104329 -0.104754
C136  C     C_R   0.999990 0.500007 0.104256 -0.104134
C137  C     C_R   0.999988 0.500014 0.214831 0.312608
C138  C     C_R   0.499994 0.999990 0.214870 0.313966
C139  C     C_R   0.000011 0.499993 0.784914 0.310897
C140  C     C_R   0.499978 0.000014 0.785158 0.316252
C141  C     C_R   0.499981 0.000010 0.715174 0.315280
C142  C     C_R   0.000009 0.499989 0.714855 0.312230
C143  C     C_R   0.500005 1.000000 0.284919 0.313016
C144  C     C_R   0.999995 0.500011 0.284904 0.311743
C145  C     C_R   0.201194 0.529996 0.520623 -0.151813
C146  C     C_R   0.524176 0.798750 0.525257 -0.152599
C147  C     C_R   0.798338 0.465638 0.516626 -0.156948
C148  C     C_R   0.475819 0.201239 0.525269 -0.152572
C149  C     C_R   0.201195 0.470019 0.479382 -0.151808
C150  C     C_R   0.524192 0.201258 0.474734 -0.152072
C151  C     C_R   0.798357 0.534328 0.483347 -0.156972
C152  C     C_R   0.475811 0.798753 0.474731 -0.152048
C153  C     C_R   0.701572 0.033555 0.017348 -0.155759
C154  C     C_R   0.024173 0.298750 0.025264 -0.152190
C155  C     C_R   0.298930 0.971250 0.021758 -0.150810
C156  C     C_R   0.975832 0.701239 0.025280 -0.152212
C157  C     C_R   0.701568 0.966473 0.982620 -0.155130
C158  C     C_R   0.024202 0.701258 0.974743 -0.152033
C159  C     C_R   0.298952 0.028691 0.978178 -0.149931
C160  C     C_R   0.975813 0.298752 0.974736 -0.152059
C161  C     C_R   0.155672 0.529568 0.520748 -0.179828
C162  C     C_R   0.525537 0.844315 0.524098 -0.180278
C163  C     C_R   0.843888 0.466297 0.517092 -0.177132
C164  C     C_R   0.474458 0.155674 0.524108 -0.180238
C165  C     C_R   0.155673 0.470450 0.479251 -0.179674
C166  C     C_R   0.525556 0.155693 0.475895 -0.180270
C167  C     C_R   0.843907 0.533677 0.482889 -0.177020
C168  C     C_R   0.474449 0.844317 0.475893 -0.180225
C169  C     C_R   0.656027 0.032945 0.017748 -0.177539
C170  C     C_R   0.025532 0.344316 0.024106 -0.180173
C171  C     C_R   0.344444 0.971625 0.021798 -0.180325
C172  C     C_R   0.974466 0.655674 0.024116 -0.180210
C173  C     C_R   0.656024 0.967084 0.982220 -0.177453
C174  C     C_R   0.025560 0.655693 0.975900 -0.180055
C175  C     C_R   0.344466 0.028332 0.978152 -0.180418
C176  C     C_R   0.974449 0.344317 0.975898 -0.180089
H1    H     H_    0.042050 0.557159 0.392022 0.179291
H2    H     H_    0.554168 0.954629 0.392013 0.177478
H3    H     H_    0.957952 0.442851 0.392044 0.179239
H4    H     H_    0.445852 0.045381 0.392016 0.177492
H5    H     H_    0.042918 0.443782 0.608056 0.178693
H6    H     H_    0.557980 0.041294 0.608418 0.178919
H7    H     H_    0.957095 0.556207 0.608063 0.178635
H8    H     H_    0.441999 0.958714 0.608441 0.178922
H9    H     H_    0.554234 0.045118 0.891941 0.171361
H10   H     H_    0.054847 0.455204 0.892078 0.177903
H11   H     H_    0.445738 0.954906 0.891970 0.171288
H12   H     H_    0.945174 0.544800 0.892076 0.177895
H13   H     H_    0.544768 0.945295 0.108053 0.177574
H14   H     H_    0.055052 0.544578 0.107905 0.177979
H15   H     H_    0.455209 0.054682 0.108057 0.177598
H16   H     H_    0.944928 0.455439 0.107931 0.177959
H17   H     H_    0.216078 0.554574 0.536868 0.128886
H18   H     H_    0.541874 0.783636 0.546702 0.130788
H19   H     H_    0.782770 0.437404 0.529108 0.131206
H20   H     H_    0.458117 0.216344 0.546719 0.130827
H21   H     H_    0.216077 0.445439 0.463139 0.128910
H22   H     H_    0.541894 0.216379 0.453285 0.131035
H23   H     H_    0.782804 0.562559 0.470862 0.131228
H24   H     H_    0.458113 0.783641 0.453286 0.131071
H25   H     H_    0.717016 0.061108 0.030519 0.130724
H26   H     H_    0.041870 0.283636 0.046710 0.131007
H27   H     H_    0.284237 0.947725 0.039099 0.128675
H28   H     H_    0.958134 0.716344 0.046732 0.130976
H29   H     H_    0.717007 0.938920 0.969451 0.130828
H30   H     H_    0.041903 0.716379 0.953294 0.131109
H31   H     H_    0.284275 0.052206 0.960828 0.128947
H32   H     H_    0.958116 0.283640 0.953290 0.131074
H33   H     H_    0.138033 0.552082 0.537386 0.151481
H34   H     H_    0.545412 0.862005 0.542848 0.147380
H35   H     H_    0.861406 0.440537 0.531021 0.155326
H36   H     H_    0.454578 0.137976 0.542860 0.147399
H37   H     H_    0.138037 0.447934 0.462613 0.151479
H38   H     H_    0.545433 0.138009 0.457140 0.147434
H39   H     H_    0.861439 0.559442 0.468964 0.155328
H40   H     H_    0.454576 0.862010 0.457143 0.147467
H41   H     H_    0.638483 0.058110 0.032167 0.154809
H42   H     H_    0.045405 0.362007 0.042857 0.147433
H43   H     H_    0.362106 0.950060 0.039237 0.150041
H44   H     H_    0.954588 0.637975 0.042869 0.147406
H45   H     H_    0.638478 0.941917 0.967803 0.154894
H46   H     H_    0.045434 0.638008 0.957144 0.147458
H47   H     H_    0.362146 0.049900 0.960716 0.150181
H48   H     H_    0.954578 0.362009 0.957147 0.147443
H49   H     H_    0.283748 0.453597 0.456426 0.128566
H50   H     H_    0.441403 0.716649 0.466794 0.130221
H51   H     H_    0.717271 0.540488 0.452838 0.132412
H52   H     H_    0.558609 0.283362 0.466799 0.130151
H53   H     H_    0.283746 0.546408 0.543586 0.128487
H54   H     H_    0.441396 0.283328 0.533205 0.130229
H55   H     H_    0.717237 0.459473 0.547132 0.132318
H56   H     H_    0.558593 0.716660 0.533188 0.130155
H57   H     H_    0.782929 0.958429 0.953509 0.131960
H58   H     H_    0.941405 0.216649 0.966798 0.130229
H59   H     H_    0.215977 0.048081 0.957404 0.128458
H60   H     H_    0.058624 0.783362 0.966811 0.130294
H61   H     H_    0.782914 0.041585 0.046479 0.131528
H62   H     H_    0.941410 0.783328 0.033215 0.130202
H63   H     H_    0.215944 0.951875 0.042546 0.128154
H64   H     H_    0.058597 0.216661 0.033191 0.130261
H65   H     H_    0.361725 0.453040 0.458458 0.150516
H66   H     H_    0.446164 0.638228 0.463991 0.146125
H67   H     H_    0.638672 0.542500 0.455331 0.153087
H68   H     H_    0.553845 0.361784 0.463994 0.146079
H69   H     H_    0.361728 0.546956 0.541556 0.150401
H70   H     H_    0.446159 0.361750 0.536013 0.146057
H71   H     H_    0.638638 0.457478 0.544650 0.152980
H72   H     H_    0.553831 0.638239 0.535996 0.146023
H73   H     H_    0.861416 0.956689 0.955913 0.152868
H74   H     H_    0.946170 0.138229 0.963991 0.146230
H75   H     H_    0.138178 0.048230 0.959320 0.149815
H76   H     H_    0.053855 0.861784 0.964000 0.146247
H77   H     H_    0.861407 0.043305 0.044095 0.152687
H78   H     H_    0.946167 0.861750 0.036017 0.146106
H79   H     H_    0.138147 0.951754 0.040656 0.149674
H80   H     H_    0.053839 0.138238 0.035995 0.146130
N1    N     N_R   0.976731 0.469496 0.266862 -0.111411
N2    N     N_R   0.467006 0.019787 0.266887 -0.111382
N3    N     N_R   0.023255 0.530528 0.266848 -0.111426
N4    N     N_R   0.532999 0.980206 0.266881 -0.111380
N5    N     N_R   0.967613 0.521106 0.732843 -0.111371
N6    N     N_R   0.482210 0.965336 0.733148 -0.112629
N7    N     N_R   0.032406 0.478872 0.732838 -0.111424
N8    N     N_R   0.517750 0.034686 0.733134 -0.112636
N9    N     N_R   0.482238 0.965319 0.767205 -0.111966
N10   N     N_R   0.967681 0.521150 0.766866 -0.110906
N11   N     N_R   0.517719 0.034706 0.767191 -0.112031
N12   N     N_R   0.032340 0.478832 0.766861 -0.110910
N13   N     N_R   0.466957 0.019756 0.232856 -0.111914
N14   N     N_R   0.976843 0.469382 0.232843 -0.111717
N15   N     N_R   0.533037 0.980228 0.232850 -0.111854
N16   N     N_R   0.023136 0.530644 0.232829 -0.111726
O1    O     O_R   0.065410 0.463110 0.500070 -0.619216
O2    O     O_R   0.463110 0.934590 0.500070 -0.617219
O3    O     O_R   0.934590 0.536890 0.500070 -0.620899
O4    O     O_R   0.536890 0.065410 0.500070 -0.617251
O5    O     O_R   0.065410 0.536890 0.499930 -0.619128
O6    O     O_R   0.463110 0.065410 0.499930 -0.617112
O7    O     O_R   0.934590 0.463110 0.499930 -0.620819
O8    O     O_R   0.536890 0.934590 0.499930 -0.617144
O9    O     O_R   0.565410 0.963110 0.000070 -0.620753
O10   O     O_R   0.963110 0.434590 0.000070 -0.617359
O11   O     O_R   0.434590 0.036890 0.000070 -0.618913
O12   O     O_R   0.036890 0.565410 0.000070 -0.617329
O13   O     O_R   0.565410 0.036890 0.999930 -0.620705
O14   O     O_R   0.963110 0.565410 0.999930 -0.617257
O15   O     O_R   0.434590 0.963110 0.999930 -0.618866
O16   O     O_R   0.036890 0.434590 0.999930 -0.617228
O17   O     O_R   0.999940 0.463110 0.449140 -0.617586
O18   O     O_R   0.463110 0.000060 0.449140 -0.616401
O19   O     O_R   0.000060 0.536890 0.449140 -0.617276
O20   O     O_R   0.536890 0.999940 0.449140 -0.616431
O21   O     O_R   0.999940 0.536890 0.550860 -0.617212
O22   O     O_R   0.463110 0.999940 0.550860 -0.616912
O23   O     O_R   0.000060 0.463110 0.550860 -0.616895
O24   O     O_R   0.536890 0.000060 0.550860 -0.616929
O25   O     O_R   0.499940 0.963110 0.949140 -0.613880
O26   O     O_R   0.963110 0.500060 0.949140 -0.616742
O27   O     O_R   0.500060 0.036890 0.949140 -0.614207
O28   O     O_R   0.036890 0.499940 0.949140 -0.616721
O29   O     O_R   0.499940 0.036890 0.050860 -0.616489
O30   O     O_R   0.963110 0.499940 0.050860 -0.616853
O31   O     O_R   0.500060 0.963110 0.050860 -0.616783
O32   O     O_R   0.036890 0.500060 0.050860 -0.616820
O33   O     O_R   0.499920 0.565550 0.471320 -0.618908
O34   O     O_R   0.565550 0.500080 0.471320 -0.621722
O35   O     O_R   0.500080 0.434450 0.471320 -0.619056
O36   O     O_R   0.434450 0.499920 0.471320 -0.620955
O37   O     O_R   0.499920 0.434450 0.528680 -0.619087
O38   O     O_R   0.565550 0.499920 0.528680 -0.621825
O39   O     O_R   0.500080 0.565550 0.528680 -0.619234
O40   O     O_R   0.434450 0.500080 0.528680 -0.621071
O41   O     O_R   0.999920 0.065550 0.971320 -0.619003
O42   O     O_R   0.065550 0.000080 0.971320 -0.620619
O43   O     O_R   0.000080 0.934450 0.971320 -0.618850
O44   O     O_R   0.934450 0.999920 0.971320 -0.621441
O45   O     O_R   0.999920 0.934450 0.028680 -0.619175
O46   O     O_R   0.065550 0.999920 0.028680 -0.620830
O47   O     O_R   0.000080 0.065550 0.028680 -0.619023
O48   O     O_R   0.934450 0.000080 0.028680 -0.621643
Zn1   Zn    Zn3+2 1.000000 0.450710 0.500000 0.988739
Zn2   Zn    Zn3+2 0.450710 0.000000 0.500000 0.991498
Zn3   Zn    Zn3+2 1.000000 0.549290 0.500000 0.988741
Zn4   Zn    Zn3+2 0.549290 0.000000 0.500000 0.991375
Zn5   Zn    Zn3+2 0.500000 0.950710 0.000000 0.989812
Zn6   Zn    Zn3+2 0.950710 0.500000 0.000000 0.991237
Zn7   Zn    Zn3+2 0.500000 0.049290 0.000000 0.989794
Zn8   Zn    Zn3+2 0.049290 0.500000 0.000000 0.991359
Zn9   Zn    Zn3+2 0.500000 0.500000 0.461670 0.979869
Zn10  Zn    Zn3+2 0.500000 0.500000 0.538330 0.979267
Zn11  Zn    Zn3+2 1.000000 0.000000 0.961670 0.980878
Zn12  Zn    Zn3+2 1.000000 0.000000 0.038330 0.980083
I1    I     I_    0.065475 0.585072 0.322371 -0.275818
I2    I     I_    0.578503 0.928143 0.322028 -0.276713
I3    I     I_    0.934526 0.414940 0.322408 -0.275984
I4    I     I_    0.421521 0.071870 0.322033 -0.276563
I5    I     I_    0.063721 0.415232 0.678535 -0.276452
I6    I     I_    0.588061 0.059725 0.679547 -0.274664
I7    I     I_    0.936303 0.584755 0.678543 -0.276615
I8    I     I_    0.411906 0.940291 0.679582 -0.274498
I9    I     I_    0.585862 0.060516 0.820748 -0.277416
I10   I     I_    0.079963 0.428914 0.822376 -0.276527
I11   I     I_    0.414094 0.939520 0.820792 -0.277649
I12   I     I_    0.920067 0.571085 0.822372 -0.276655
I13   I     I_    0.566609 0.917652 0.178654 -0.276485
I14   I     I_    0.082825 0.567140 0.178080 -0.276788
I15   I     I_    0.433358 0.082314 0.178659 -0.276428
I16   I     I_    0.917148 0.432888 0.178121 -0.276937

loop_
_geom_bond_atom_site_label_1
_geom_bond_atom_site_label_2
_ccdc_geom_bond_type
C106  I2    S    
C23   C155  A    
C4    O6    A    
C62   C77   S    
O37   Zn10  S    
C174  H46   S    
C14   C170  A    
C28   H52   S    
C47   H71   S    
C13   C173  A    
C45   C57   A    
C57   C76   S    
C100  H12   S    
C112  C124  A    
C101  H13   S    
C98   C114  A    
C61   C80   S    
C104  H16   S    
C89   C129  A    
C154  C170  A    
C79   O45   A    
O6    Zn2   S    
C92   H4    S    
C93   H5    S    
C86   C134  S    
O22   Zn2   S    
C31   H55   S    
O3    Zn3   S    
C146  H18   S    
C114  I10   S    
C5    C13   S    
C33   C69   A    
C8    O14   A    
C7    C15   S    
C35   C71   A    
C8    C16   S    
O5    Zn3   S    
C11   C167  A    
C42   C58   A    
O12   Zn8   S    
C143  N2    A    
C18   C152  A    
C21   C153  A    
C99   H11   S    
C153  H25   S    
C91   C107  A    
C88   O30   A    
C25   C41   A    
C162  H34   S    
C42   H66   S    
C94   C132  A    
C29   C45   A    
C148  C164  A    
C118  I14   S    
C119  I15   S    
C83   C131  S    
C2    O2    A    
C3    O7    A    
O20   Zn4   S    
O48   Zn12  S    
C140  N11   A    
C110  I6    S    
C34   H58   S    
C35   C51   A    
O10   Zn6   S    
C64   C79   S    
C56   C62   A    
C142  N7    A    
C156  C172  A    
C7    O11   A    
C46   C60   A    
C20   C68   S    
C159  H31   S    
C91   C129  A    
O44   Zn11  S    
N4    N15   A    
C80   O44   A    
N5    N10   A    
C48   H72   S    
O7    Zn1   S    
C145  C161  A    
C164  H36   S    
C151  C167  A    
C25   H49   S    
C55   H79   S    
C3    C11   S    
O8    Zn4   S    
C47   C59   A    
C10   C168  A    
C41   H65   S    
C39   C71   A    
C92   C130  A    
C24   C156  A    
C76   O36   A    
C32   H56   S    
C78   O42   A    
C87   O31   A    
C88   O32   A    
C97   C133  A    
C73   O33   A    
C39   H63   S    
O17   Zn1   S    
C152  H24   S    
C40   C70   A    
C28   C68   A    
C44   C60   A    
C2    O8    A    
C27   H51   S    
C114  C126  A    
C6    C14   S    
O47   Zn12  S    
C97   H9    S    
C150  C166  A    
N2    N13   A    
O38   Zn10  S    
O39   Zn10  S    
C53   C61   A    
C92   C108  A    
C85   O25   A    
C55   C63   A    
C19   C151  A    
C20   C148  A    
C142  N5    A    
C172  H44   S    
C43   C59   A    
C37   C53   A    
C13   C169  A    
O23   Zn1   S    
C121  C144  S    
C122  C143  S    
C155  H27   S    
C100  C134  A    
O42   Zn11  S    
C101  C135  A    
C125  C140  S    
C38   C72   A    
C126  C139  S    
C26   C66   A    
C149  C165  A    
C46   H70   S    
C85   C133  S    
O36   Zn9   S    
O34   Zn9   S    
C109  C123  A    
C84   C132  S    
C21   C69   S    
C38   H62   S    
C37   C69   A    
C95   H7    S    
C106  C122  A    
C11   C163  A    
C9    C161  A    
C144  N1    A    
C52   H76   S    
C29   C65   A    
C165  H37   S    
C56   H80   S    
C87   O29   A    
O33   Zn9   S    
C124  C141  S    
C4    C12   S    
C50   H74   S    
O43   Zn11  S    
C33   H57   S    
C44   H68   S    
O25   Zn5   S    
C35   H59   S    
C16   C174  A    
C175  H47   S    
C104  C136  A    
O4    Zn4   S    
O35   Zn9   S    
C158  C174  A    
C3    O3    A    
C36   H60   S    
O1    Zn1   S    
C116  I12   S    
C168  H40   S    
C29   H53   S    
C40   H64   S    
C147  C163  A    
C54   H78   S    
C85   O27   A    
C22   C160  A    
N8    N11   A    
C86   O28   A    
C20   C150  A    
C5    O13   A    
O30   Zn6   S    
C7    O15   A    
C75   O37   A    
C103  H15   S    
C10   C162  A    
C89   C105  A    
C81   O17   A    
C22   C70   S    
C171  H43   S    
C36   C72   A    
C93   C109  A    
O13   Zn7   S    
C63   C78   S    
C119  C127  A    
C169  H41   S    
C90   H2    S    
C105  I1    S    
C107  I3    S    
C100  C116  A    
C173  H45   S    
N6    N9    A    
C6    O10   A    
C146  C162  A    
C24   C72   S    
C53   H77   S    
C99   C115  A    
C8    O12   A    
C84   O22   A    
C33   C49   A    
C144  N3    A    
O31   Zn5   S    
C14   C176  A    
C152  C168  A    
C76   O40   A    
C39   C55   A    
C40   C56   A    
C19   C67   S    
C127  C138  S    
C167  H39   S    
C176  H48   S    
C34   C70   A    
C145  H17   S    
C74   O34   A    
C113  I9    S    
C49   H73   S    
C115  I11   S    
C31   C47   A    
C95   C131  A    
C32   C48   A    
C79   O43   A    
O32   Zn8   S    
C112  I8    S    
C154  H26   S    
C30   C46   A    
C138  N15   A    
N7    N12   A    
C103  C119  A    
C49   C61   A    
C111  C123  A    
C158  H30   S    
C87   C135  S    
C1    C9    S    
C88   C136  S    
C52   C64   A    
C45   H69   S    
C43   H67   S    
C86   O26   A    
C161  H33   S    
C94   C110  A    
C19   C147  A    
C6    O16   A    
C117  I13   S    
C23   C71   S    
C12   C164  A    
C75   O35   A    
C38   C54   A    
C51   C63   A    
C27   C67   A    
C81   O19   A    
C59   C74   S    
C90   C106  A    
C82   O20   A    
C109  I5    S    
C18   C66   S    
C107  C121  A    
O11   Zn7   S    
C32   C66   A    
O27   Zn7   S    
C115  C125  A    
C137  N14   A    
C120  C128  A    
C48   C58   A    
C84   O24   A    
C60   C75   S    
C108  I4    S    
C101  C117  A    
O41   Zn11  S    
C9    C165  A    
C41   C57   A    
C98   H10   S    
C26   H50   S    
O21   Zn3   S    
C123  C142  S    
C102  H14   S    
C28   C44   A    
O28   Zn8   S    
C26   C42   A    
C73   O39   A    
C102  C136  A    
C31   C67   A    
C90   C130  A    
C27   C43   A    
O15   Zn5   S    
C153  C169  A    
C94   H6    S    
C156  H28   S    
C93   C131  A    
C150  H22   S    
C30   C68   A    
C157  C173  A    
C104  C120  A    
C138  N13   A    
C139  N12   A    
O29   Zn7   S    
C141  N6    A    
C17   C145  A    
O18   Zn2   S    
O16   Zn8   S    
C1    O5    A    
C96   C112  A    
C54   C64   A    
C5    O9    A    
C12   C166  A    
C24   C158  A    
C113  C125  A    
C77   O47   A    
O26   Zn6   S    
C99   C133  A    
C103  C135  A    
C82   O18   A    
C83   O23   A    
C148  H20   S    
C91   H3    S    
C147  H19   S    
C89   H1    S    
C82   C130  S    
C51   H75   S    
C1    O1    A    
C102  C118  A    
C120  I16   S    
C116  C126  A    
C160  C176  A    
O46   Zn12  S    
C118  C128  A    
C96   H8    S    
O14   Zn6   S    
C137  N16   A    
O45   Zn12  S    
C34   C50   A    
O40   Zn10  S    
C15   C171  A    
C4    O4    A    
C151  H23   S    
C25   C65   A    
C163  H35   S    
C23   C159  A    
C128  C137  S    
C74   O38   A    
C117  C127  A    
C16   C172  A    
C37   H61   S    
O19   Zn3   S    
C105  C121  A    
C160  H32   S    
C80   O48   A    
C166  H38   S    
C139  N10   A    
C81   C129  S    
C50   C62   A    
C141  N8    A    
C111  I7    S    
C97   C113  A    
C2    C10   S    
C22   C154  A    
C21   C157  A    
C17   C149  A    
C143  N4    A    
C108  C122  A    
C18   C146  A    
C36   C52   A    
O2    Zn2   S    
C77   O41   A    
C98   C134  A    
C17   C65   S    
C78   O46   A    
C15   C175  A    
C30   H54   S    
C95   C111  A    
C96   C132  A    
C83   O21   A    
C155  C171  A    
O9    Zn5   S    
O24   Zn4   S    
C140  N9    A    
C159  C175  A    
N1    N14   A    
C110  C124  A    
C157  H29   S    
N3    N16   A    
C58   C73   S    
C149  H21   S    
C170  H42   S    
