data_mof_unit_10464.cif
_audit_creation_date              2012-12-10T17:14:32-0500
_audit_creation_method            fapswitch 2.2
_symmetry_space_group_name_H-M    P1
_symmetry_Int_Tables_number       1
_space_group_crystal_system       triclinic
_cell_length_a                    15.501268
_cell_length_b                    15.138984
_cell_length_c                    10.262562
_cell_angle_alpha                 91.310349
_cell_angle_beta                  82.867128
_cell_angle_gamma                 89.59551
_cell_volume                      2388.96837464

loop_
_atom_site_label
_atom_site_type_symbol
_atom_type_description
_atom_site_fract_x
_atom_site_fract_y
_atom_site_fract_z
_atom_type_partial_charge
C1    C     C_R   0.387055 0.119672 0.554766 0.761862
C2    C     C_2   0.514036 0.997961 0.073403 0.502049
C3    C     C_2   0.994460 0.476025 0.930512 0.527115
C4    C     C_2   0.012719 0.489942 0.071717 0.523120
C5    C     C_2   0.341671 0.797633 0.569940 0.297683
C6    C     C_2   0.664395 0.198130 0.425030 0.311553
C7    C     C_2   0.663656 0.798243 0.420320 0.270122
C8    C     C_2   0.320258 0.186691 0.588210 0.298561
C9    C     C_2   0.841230 0.297959 0.570419 0.298791
C10   C     C_2   0.164663 0.697605 0.424600 0.315056
C11   C     C_2   0.161442 0.295591 0.424201 0.263487
C12   C     C_R   0.609126 0.876503 0.447235 0.761246
C13   C     C_2   0.815325 0.681670 0.590016 0.288413
C14   C     C_2   0.272408 0.790879 0.506095 -0.231949
C15   C     C_2   0.725014 0.210371 0.504479 -0.219943
C16   C     C_2   0.691283 0.758337 0.523045 -0.277700
C17   C     C_2   0.256736 0.190396 0.511337 -0.224411
C18   C     C_2   0.771407 0.292022 0.507671 -0.224382
C19   C     C_2   0.227357 0.708466 0.500622 -0.225657
C20   C     C_2   0.193401 0.260827 0.527743 -0.262966
C21   C     C_2   0.758500 0.691846 0.503265 -0.227337
C22   C     C_3   0.312921 0.957610 0.214731 0.280272
C23   C     C_R   0.610712 0.120986 0.447797 0.776196
C24   C     C_3   0.228014 0.945853 0.155507 -0.919848
C25   C     C_3   0.693253 0.002200 0.772990 0.223354
C26   C     C_3   0.778627 0.039209 0.806992 -0.892916
C27   C     C_3   0.811029 0.466027 0.214869 0.269386
C28   C     C_3   0.725451 0.462121 0.156869 -0.929344
C29   C     C_3   0.190388 0.531545 0.801886 0.224934
C30   C     C_3   0.258157 0.594336 0.843536 -0.848372
C31   C     C_3   0.566906 0.292321 0.342377 0.089276
C32   C     C_3   0.527201 0.280118 0.214654 -0.732169
C33   C     C_3   0.457946 0.704502 0.585146 0.123829
C34   C     C_R   0.390729 0.877947 0.551173 0.763918
C35   C     C_3   0.481883 0.614241 0.632672 -0.882841
C36   C     C_3   0.395771 0.296666 0.678750 0.111514
C37   C     C_3   0.399299 0.355256 0.800154 -0.832835
C38   C     C_3   0.634272 0.715369 0.243709 0.053885
C39   C     C_3   0.666195 0.690413 0.101007 -0.790936
C40   C     C_3   0.066732 0.799644 0.362732 0.085718
C41   C     C_3   0.015065 0.791045 0.246209 -0.759565
C42   C     C_3   0.958774 0.207735 0.593809 0.127321
C43   C     C_3   0.982776 0.116502 0.637253 -0.892363
C44   C     C_3   0.866806 0.788512 0.719519 0.106858
C45   C     C_R   0.886068 0.618832 0.555157 0.775416
C46   C     C_3   0.865695 0.819815 0.861544 -0.803019
C47   C     C_3   0.119353 0.200024 0.270232 0.067087
C48   C     C_3   0.143205 0.161599 0.131852 -0.820376
C49   C     C_3   0.649018 0.939260 0.093113 0.153323
C50   C     C_3   0.730754 0.956287 0.158953 -0.695388
C51   C     C_3   0.446510 0.837779 0.930882 0.071246
C52   C     C_3   0.364409 0.782999 0.939441 -0.706114
C53   C     C_3   0.133561 0.402545 0.071274 0.086321
C54   C     C_3   0.228170 0.401760 0.097555 -0.671285
C55   C     C_3   0.931904 0.340427 0.934824 0.053534
C56   C     C_R   0.109232 0.376268 0.447458 0.770384
C57   C     C_3   0.846097 0.292176 0.934315 -0.675811
C58   C     C_R   0.110772 0.620856 0.447725 0.794748
C59   C     C_R   0.890724 0.377985 0.551189 0.757111
C60   C     C_2   0.497504 0.977054 0.933495 0.505758
H1    H     H_    0.737682 0.160229 0.574039 0.192309
H2    H     H_    0.341307 0.890515 0.223551 0.144072
H3    H     H_    0.205302 0.876964 0.166909 0.264393
H4    H     H_    0.176675 0.989757 0.207204 0.220547
H5    H     H_    0.236629 0.960081 0.048963 0.303071
H6    H     H_    0.692741 0.014705 0.668905 0.191778
H7    H     H_    0.693730 0.929122 0.781675 0.094627
H8    H     H_    0.789472 0.021758 0.907248 0.253829
H9    H     H_    0.832858 0.010458 0.738213 0.208958
H10   H     H_    0.778533 0.112143 0.798924 0.302540
H11   H     H_    0.798338 0.496762 0.314575 0.158553
H12   H     H_    0.250582 0.846743 0.453305 0.154148
H13   H     H_    0.835033 0.396795 0.220290 0.143893
H14   H     H_    0.688026 0.404321 0.195056 0.247985
H15   H     H_    0.685975 0.522045 0.185869 0.235558
H16   H     H_    0.736950 0.456012 0.047996 0.301796
H17   H     H_    0.195326 0.529491 0.693946 0.168297
H18   H     H_    0.206148 0.464249 0.831060 0.106691
H19   H     H_    0.254951 0.597004 0.952228 0.271588
H20   H     H_    0.323883 0.571495 0.800763 0.220456
H21   H     H_    0.245725 0.661622 0.809106 0.288299
H22   H     H_    0.570099 0.364192 0.365300 0.134973
H23   H     H_    0.255827 0.145251 0.427615 0.181433
H24   H     H_    0.521909 0.263860 0.423608 0.086562
H25   H     H_    0.521601 0.208777 0.190181 0.290293
H26   H     H_    0.461286 0.310694 0.225347 0.195521
H27   H     H_    0.568309 0.311964 0.132912 0.241875
H28   H     H_    0.503248 0.753334 0.620602 0.144081
H29   H     H_    0.466887 0.701818 0.475563 0.110579
H30   H     H_    0.437427 0.563347 0.600048 0.251153
H31   H     H_    0.549636 0.596731 0.591305 0.214989
H32   H     H_    0.477376 0.615363 0.741525 0.253257
H33   H     H_    0.393259 0.339711 0.592638 0.120135
H34   H     H_    0.669115 0.779655 0.623605 0.189141
H35   H     H_    0.456879 0.256720 0.664349 0.145118
H36   H     H_    0.401793 0.314014 0.887776 0.270648
H37   H     H_    0.458101 0.397175 0.786776 0.207205
H38   H     H_    0.341097 0.398669 0.816117 0.238230
H39   H     H_    0.568800 0.746843 0.247544 0.129090
H40   H     H_    0.628182 0.654005 0.301796 0.136025
H41   H     H_    0.732562 0.661102 0.093244 0.301126
H42   H     H_    0.621429 0.641816 0.063371 0.204163
H43   H     H_    0.668605 0.749314 0.038556 0.229923
H44   H     H_    0.076703 0.870996 0.383009 0.143876
H45   H     H_    0.242334 0.656584 0.565925 0.184340
H46   H     H_    0.026619 0.773729 0.451368 0.087586
H47   H     H_    0.003148 0.720403 0.224009 0.286215
H48   H     H_    0.951420 0.825671 0.269537 0.199661
H49   H     H_    0.051317 0.820978 0.158217 0.246838
H50   H     H_    0.000783 0.256290 0.637581 0.149450
H51   H     H_    0.972580 0.208535 0.484774 0.102002
H52   H     H_    0.946577 0.065454 0.587511 0.246512
H53   H     H_    0.053530 0.104341 0.609921 0.212490
H54   H     H_    0.967239 0.111767 0.745451 0.264084
H55   H     H_    0.852021 0.845713 0.659456 0.125505
H56   H     H_    0.750152 0.347763 0.454009 0.153799
H57   H     H_    0.933725 0.763625 0.684692 0.133181
H58   H     H_    0.884120 0.764512 0.922157 0.277130
H59   H     H_    0.912493 0.874514 0.867592 0.201984
H60   H     H_    0.799680 0.843690 0.901010 0.241665
H61   H     H_    0.054386 0.232635 0.275111 0.125092
H62   H     H_    0.115365 0.144569 0.340193 0.137763
H63   H     H_    0.210540 0.134575 0.120653 0.301909
H64   H     H_    0.097311 0.108208 0.112863 0.204064
H65   H     H_    0.139527 0.212871 0.057392 0.233546
H66   H     H_    0.669008 0.919867 0.990553 0.099524
H67   H     H_    0.766150 0.655955 0.409578 0.196232
H68   H     H_    0.613897 0.881438 0.135545 0.143079
H69   H     H_    0.714664 0.966502 0.266261 0.240008
H70   H     H_    0.776693 0.899570 0.139732 0.219528
H71   H     H_    0.763387 0.017197 0.121835 0.227860
H72   H     H_    0.476495 0.827161 0.022765 0.062674
H73   H     H_    0.492468 0.813115 0.845684 0.149752
H74   H     H_    0.324636 0.801457 0.861450 0.286558
H75   H     H_    0.382426 0.711940 0.928490 0.209375
H76   H     H_    0.325019 0.793868 0.036185 0.231937
H77   H     H_    0.130749 0.380748 0.968032 0.061914
H78   H     H_    0.177924 0.288848 0.626426 0.195685
H79   H     H_    0.096827 0.353187 0.132843 0.168859
H80   H     H_    0.232561 0.419379 0.202062 0.257112
H81   H     H_    0.257301 0.335177 0.074455 0.237508
H82   H     H_    0.266209 0.450342 0.035724 0.213856
H83   H     H_    0.953594 0.330910 0.033095 0.066687
H84   H     H_    0.980944 0.309410 0.858944 0.141680
H85   H     H_    0.812542 0.312827 0.850549 0.279782
H86   H     H_    0.858358 0.219803 0.927098 0.210428
H87   H     H_    0.802820 0.306842 0.026623 0.232670
H88   H     H_    0.297945 0.990425 0.312818 0.155768
N1    N     N_2   0.549450 0.000000 0.831550 0.001771
N2    N     N_2   0.450550 0.000000 0.168450 0.003257
N3    N     N_2   0.049450 0.500000 0.831550 -0.002959
N4    N     N_2   0.950550 0.500000 0.168450 0.001388
O1    O     O_R   0.398960 0.091100 0.433300 -0.635304
O2    O     O_R   0.569290 0.908910 0.353790 -0.604101
O3    O     O_R   0.569290 0.091090 0.353790 -0.529151
O4    O     O_R   0.430710 0.908910 0.646210 -0.556158
O5    O     O_R   0.930710 0.591090 0.646210 -0.545965
O6    O     O_R   0.069290 0.408910 0.353790 -0.583774
O7    O     O_R   0.069290 0.591090 0.353790 -0.536195
O8    O     O_R   0.930710 0.408910 0.646210 -0.556622
O9    O     O_3   0.370062 0.009659 0.132624 -0.551427
O10   O     O_3   0.622544 0.042860 0.854073 -0.535888
O11   O     O_3   0.870773 0.516265 0.134075 -0.555361
O12   O     O_R   0.601040 0.908900 0.566700 -0.683407
O13   O     O_3   0.108004 0.559940 0.862220 -0.536002
O14   O     O_3   0.652849 0.257214 0.326652 -0.614278
O15   O     O_3   0.371137 0.726150 0.635927 -0.630930
O16   O     O_3   0.321080 0.243015 0.696984 -0.598746
O17   O     O_3   0.694427 0.773340 0.292040 -0.605189
O18   O     O_3   0.149547 0.758731 0.330890 -0.618175
O19   O     O_3   0.870018 0.226136 0.636760 -0.629673
O20   O     O_3   0.803006 0.722955 0.713049 -0.597222
O21   O     O_3   0.183418 0.261074 0.298133 -0.604875
O22   O     O_3   0.596835 0.016470 0.103992 -0.575820
O23   O     O_R   0.601040 0.091100 0.566700 -0.649563
O24   O     O_3   0.425549 0.927502 0.913816 -0.579334
O25   O     O_3   0.097684 0.487813 0.100610 -0.586935
O26   O     O_3   0.920589 0.430585 0.906650 -0.582365
O27   O     O_R   0.398960 0.908900 0.433300 -0.689180
O28   O     O_R   0.898960 0.591100 0.433300 -0.644724
O29   O     O_R   0.101040 0.408900 0.566700 -0.673964
O30   O     O_R   0.101040 0.591100 0.566700 -0.643345
O31   O     O_R   0.898960 0.408900 0.433300 -0.687528
O32   O     O_R   0.430710 0.091090 0.646210 -0.555625
Zn1   Zn    Zn3+2 0.478810 0.000000 0.357840 0.966702
Zn2   Zn    Zn3+2 0.521190 0.000000 0.642160 0.991297
Zn3   Zn    Zn3+2 0.978810 0.500000 0.357840 0.976968
Zn4   Zn    Zn3+2 0.021190 0.500000 0.642160 0.999405

loop_
_geom_bond_atom_site_label_1
_geom_bond_atom_site_label_2
_ccdc_geom_bond_type
C22   H2    S    
C2    N2    D    
C15   C18   S    
C42   O19   S    
C6    O14   S    
C16   C21   S    
C41   H48   S    
C23   O3    A    
C16   H34   S    
C1    C8    S    
C52   H74   S    
C25   H7    S    
O5    Zn4   S    
C4    O25   S    
C28   H14   S    
O6    Zn3   S    
N2    Zn1   S    
C40   O18   S    
C57   H87   S    
C53   C54   S    
C49   H66   S    
C31   H22   S    
O7    Zn3   S    
C39   H42   S    
C53   H77   S    
C44   H57   S    
C36   C37   S    
O28   Zn3   S    
C33   H28   S    
O12   Zn2   S    
C58   O7    A    
C43   H54   S    
C38   C39   S    
C2    C60   S    
C47   H61   S    
C23   O23   A    
C56   O29   A    
C6    C23   S    
C29   O13   S    
C36   O16   S    
C17   C20   S    
C46   H58   S    
C20   H78   S    
N2    O9    S    
C49   O22   S    
C56   O6    A    
C8    O16   S    
C45   O28   A    
C27   O11   S    
C48   H65   S    
C36   H33   S    
O29   Zn4   S    
C13   O20   S    
C54   H80   S    
C29   H18   S    
C47   C48   S    
C44   H55   S    
C21   H67   S    
C50   H70   S    
C25   O10   S    
C30   H20   S    
C35   H32   S    
C60   O24   S    
C6    C15   D    
N1    Zn2   S    
C24   H4    S    
C41   H49   S    
C57   H86   S    
C34   O27   A    
C33   O15   S    
C48   H63   S    
N4    Zn3   S    
C37   H37   S    
C37   H38   S    
C1    O32   A    
C44   C46   S    
C39   H41   S    
C7    C12   S    
C4    N4    D    
O2    Zn1   S    
C11   C20   D    
C11   O21   S    
C55   H83   S    
C46   H60   S    
C51   C52   S    
C45   O5    A    
C38   H40   S    
O3    Zn1   S    
C18   H56   S    
C22   O9    S    
C47   H62   S    
C25   C26   S    
N3    O13   S    
C32   H27   S    
C31   H24   S    
C37   H36   S    
C17   H23   S    
C59   O31   A    
C42   H51   S    
C44   O20   S    
C29   C30   S    
C50   H69   S    
C33   H29   S    
C40   H44   S    
C59   O8    A    
C31   C32   S    
C31   O14   S    
C10   C19   D    
C32   H26   S    
C5    C34   S    
C15   H1    S    
C13   C21   D    
O30   Zn4   S    
C1    O1    A    
C5    C14   D    
C47   O21   S    
C24   H5    S    
C30   H19   S    
C19   H45   S    
C7    C16   D    
C54   H82   S    
C22   H88   S    
C24   H3    S    
C34   O4    A    
C7    O17   S    
C26   H10   S    
C55   O26   S    
C22   C24   S    
C9    O19   S    
C42   C43   S    
O8    Zn4   S    
C3    C4    S    
C28   H16   S    
C27   H11   S    
C38   O17   S    
C40   H46   S    
C26   H9    S    
C49   H68   S    
C40   C41   S    
C55   H84   S    
C41   H47   S    
C10   C58   S    
C53   H79   S    
C14   H12   S    
C14   C19   S    
C3    O26   S    
C25   H6    S    
C12   O2    A    
C38   H39   S    
C53   O25   S    
C48   H64   S    
C51   H72   S    
C39   H43   S    
O27   Zn1   S    
O4    Zn2   S    
C10   O18   S    
C57   H85   S    
C3    N3    D    
C8    C17   D    
C58   O30   A    
C26   H8    S    
C30   H21   S    
C55   C57   S    
C42   H50   S    
C43   H53   S    
O23   Zn2   S    
C13   C45   S    
N3    Zn4   S    
C51   H73   S    
C36   H35   S    
O1    Zn1   S    
C12   O12   A    
C52   H76   S    
C32   H25   S    
C33   C35   S    
O32   Zn2   S    
C46   H59   S    
C60   N1    D    
C5    O15   S    
C51   O24   S    
N4    O11   S    
C50   H71   S    
C11   C56   S    
C35   H30   S    
C9    C18   D    
C54   H81   S    
C29   H17   S    
C49   C50   S    
C43   H52   S    
C27   C28   S    
C52   H75   S    
N1    O10   S    
C9    C59   S    
C27   H13   S    
C28   H15   S    
C2    O22   S    
O31   Zn3   S    
C35   H31   S    
