data_mof_unit_12242.cif
_audit_creation_date              2013-03-05T16:01:51-0500
_audit_creation_method            fapswitch 2.2
_symmetry_space_group_name_H-M    P1
_symmetry_Int_Tables_number       1
_space_group_crystal_system       triclinic
_cell_length_a                    20.258744
_cell_length_b                    7.299369
_cell_length_c                    13.526474
_cell_angle_alpha                 89.672821
_cell_angle_beta                  103.682393
_cell_angle_gamma                 90.700864
_cell_volume                      1943.3248035

loop_
_atom_site_label
_atom_site_type_symbol
_atom_site_description
_atom_site_fract_x
_atom_site_fract_y
_atom_site_fract_z
_atom_type_partial_charge
O1    O     O_R   0.449520 0.506760 0.599710 -0.589979
O2    O     O_R   0.550480 0.006760 0.400290 -0.590201
O3    O     O_R   0.587930 0.180200 0.595790 -0.585217
O4    O     O_R   0.412070 0.680200 0.404210 -0.588626
C1    C     C_R   0.614508 0.344967 0.616700 0.933282
C2    C     C_R   0.385498 0.843627 0.383175 0.931987
O5    O     O_R   0.452350 0.177380 0.611700 -0.594253
O6    O     O_R   0.547650 0.677380 0.388300 -0.594081
O7    O     O_R   0.413930 0.001760 0.416320 -0.584375
O8    O     O_R   0.586070 0.501760 0.583680 -0.586596
C3    C     C_R   0.436591 0.344396 0.637273 0.901205
C4    C     C_R   0.563341 0.846682 0.362754 0.901439
O9    O     O_3   0.487550 0.337460 0.435880 -0.288700
O10   O     O_3   0.512450 0.837460 0.564120 -0.288610
V1    V     V_3+5 0.502310 0.064670 0.511900 1.172464
V2    V     V_3+5 0.497690 0.564670 0.488100 1.170634
C5    C     C_R   0.604950 0.933955 0.111934 -0.141069
C6    C     C_R   0.395248 0.295203 0.890821 -0.143123
H1    H     H_    0.513642 0.930912 0.165512 0.103101
H2    H     H_    0.486477 0.287686 0.837430 0.102723
H3    H     H_    0.682549 0.959064 0.983801 0.186752
H4    H     H_    0.317461 0.279016 0.018719 0.186695
H5    H     H_    0.578127 0.969884 0.035169 0.116009
H6    H     H_    0.422122 0.267373 0.968675 0.116027
C7    C     C_R   0.601254 0.860553 0.284154 -0.070555
C8    C     C_R   0.398840 0.346580 0.716336 -0.071006
C9    C     C_R   0.926161 0.823526 0.309218 -0.178830
C10   C     C_R   0.073774 0.390748 0.689387 -0.179389
C11   C     C_R   0.891337 0.809544 0.385427 -0.088360
C12   C     C_R   0.108701 0.396632 0.613135 -0.088641
C13   C     C_R   0.821182 0.824964 0.362605 -0.156296
C14   C     C_R   0.178866 0.382083 0.636676 -0.154517
C15   C     C_R   0.783261 0.853881 0.261461 0.066096
C16   C     C_R   0.216694 0.360999 0.738529 0.066896
C17   C     C_R   0.818992 0.870833 0.181879 -0.080882
C18   C     C_R   0.180780 0.350423 0.818260 -0.082616
C19   C     C_R   0.710884 0.867914 0.237714 0.077170
C20   C     C_R   0.289163 0.348622 0.762818 0.077320
C21   C     C_R   0.675710 0.912284 0.137090 0.118235
C22   C     C_R   0.324411 0.314732 0.864726 0.117856
C23   C     C_R   0.710668 0.931506 0.061133 -0.324229
C24   C     C_R   0.289360 0.300966 0.940770 -0.322502
C25   C     C_R   0.780519 0.905036 0.080374 0.281706
C26   C     C_R   0.219215 0.322111 0.920506 0.282309
C27   C     C_R   0.671699 0.838884 0.310353 -0.240674
C28   C     C_R   0.328364 0.367999 0.689391 -0.241090
C29   C     C_R   0.568043 0.910342 0.185497 -0.185727
C30   C     C_R   0.432101 0.308395 0.816672 -0.183726
C31   C     C_R   0.891581 0.855434 0.208388 -0.145401
C32   C     C_R   0.108175 0.366720 0.791041 -0.150252
H7    H     H_    0.693883 0.799945 0.387924 0.110625
H8    H     H_    0.306143 0.396844 0.610441 0.111205
H9    H     H_    0.980929 0.810250 0.329302 0.093025
H10   H     H_    0.019048 0.405056 0.668736 0.093223
H11   H     H_    0.798445 0.816555 0.426797 0.119317
H12   H     H_    0.201679 0.385630 0.572495 0.119100
H13   H     H_    0.919065 0.787126 0.463328 0.115261
H14   H     H_    0.081078 0.413243 0.534694 0.115092
H15   H     H_    0.103145 0.984285 0.468721 0.116180
H16   H     H_    0.899063 0.226750 0.534532 0.115881
C33   C     C_R   0.233852 0.810268 0.037484 -0.005401
C34   C     C_R   0.764884 0.407564 0.961587 -0.003707
C35   C     C_R   0.290008 0.779075 0.997331 -0.129317
C36   C     C_R   0.708237 0.437929 0.000745 -0.127522
C37   C     C_R   0.354350 0.765803 0.061572 -0.130850
C38   C     C_R   0.643963 0.446195 0.935835 -0.131408
C39   C     C_R   0.363107 0.786597 0.166254 -0.157040
C40   C     C_R   0.635789 0.420971 0.831547 -0.156567
C41   C     C_R   0.307062 0.819531 0.209164 0.104760
C42   C     C_R   0.692346 0.388620 0.789760 0.104004
C43   C     C_R   0.240846 0.827125 0.143758 0.180089
C44   C     C_R   0.758466 0.387078 0.855665 0.179518
C45   C     C_R   0.316367 0.849484 0.315031 -0.292554
C46   C     C_R   0.683710 0.353924 0.684519 -0.290765
C47   C     C_R   0.259449 0.886045 0.355669 0.117015
C48   C     C_R   0.741219 0.319879 0.644839 0.116529
C49   C     C_R   0.193032 0.890371 0.290507 0.110764
C50   C     C_R   0.807540 0.322160 0.710401 0.110886
C51   C     C_R   0.183567 0.859117 0.184675 -0.220663
C52   C     C_R   0.816301 0.357294 0.815689 -0.217662
C53   C     C_R   0.267257 0.916900 0.461100 -0.169377
C54   C     C_R   0.734026 0.284127 0.540032 -0.168610
C55   C     C_R   0.211280 0.952358 0.500992 -0.119218
C56   C     C_R   0.790579 0.250893 0.501083 -0.117950
C57   C     C_R   0.146477 0.956852 0.437345 -0.115838
C58   C     C_R   0.855306 0.252860 0.565148 -0.115305
C59   C     C_R   0.137167 0.925831 0.333333 -0.147114
C60   C     C_R   0.863968 0.288237 0.668635 -0.146781
H17   H     H_    0.184913 0.821687 0.984292 0.106518
H18   H     H_    0.813779 0.399663 0.015223 0.106248
H19   H     H_    0.283513 0.764979 0.915941 0.123036
H20   H     H_    0.714292 0.455180 0.081864 0.123594
H21   H     H_    0.397830 0.741094 0.030076 0.123459
H22   H     H_    0.600104 0.470413 0.966523 0.122871
H23   H     H_    0.414295 0.778153 0.212935 0.095186
H24   H     H_    0.584723 0.426246 0.784175 0.092939
H25   H     H_    0.316556 0.913727 0.513878 0.121438
H26   H     H_    0.684752 0.281781 0.487077 0.118955
H27   H     H_    0.218244 0.976209 0.581765 0.128263
H28   H     H_    0.784113 0.223514 0.420745 0.128582
H29   H     H_    0.085795 0.930204 0.286979 0.081765
H30   H     H_    0.915238 0.287865 0.715535 0.078973
O11   O     O_R   0.913760 0.203480 0.916370 -0.551531
O12   O     O_R   0.086240 0.703480 0.083630 -0.544169
O13   O     O_R   0.047590 0.535230 0.888250 -0.585167
O14   O     O_R   0.952410 0.035230 0.111750 -0.608827
C61   C     C_R   0.065698 0.369545 0.864934 0.978538
C62   C     C_R   0.933975 0.867770 0.134520 0.970414
O15   O     O_R   0.912020 0.532880 0.904260 -0.546285
O16   O     O_R   0.087980 0.032880 0.095740 -0.549894
O17   O     O_R   0.949590 0.708460 0.099750 -0.572820
O18   O     O_R   0.050410 0.208460 0.900250 -0.598871
C63   C     C_R   0.885679 0.364592 0.883840 0.907536
C64   C     C_R   0.114257 0.865464 0.116387 0.907571
O19   O     O_3   0.012370 0.375360 0.064120 -0.278502
O20   O     O_3   0.987630 0.875360 0.935880 -0.282303
V3    V     V_3+5 0.997700 0.648160 0.988110 1.250033
V4    V     V_3+5 0.002300 0.148160 0.011890 1.241507
N1    N     N_R   0.809142 0.901763 0.993317 0.225903
O21   O     O_R   0.788845 0.019763 0.920836 -0.435903
O22   O     O_R   0.832037 0.748234 0.968874 -0.414761
N2    N     N_R   0.189980 0.319365 0.007046 0.227543
O23   O     O_R   0.211390 0.200334 0.078669 -0.435681
O24   O     O_R   0.164806 0.469044 0.032315 -0.415364

loop_
_geom_bond_atom_site_label_1
_geom_bond_atom_site_label_2
_geom_bond_distance
_ccdc_geom_bond_type
C38   C40   1.393899 A    
C35   C37   1.389184 A    
C9    C11   1.382697 A    
C54   H26   1.082261 S    
C61   O18   1.327156 A    
O1    C3    1.334110 A    
O2    C4    1.329584 A    
O16   V4    2.025053 S    
C2    O7    1.316279 A    
C43   C51   1.421032 A    
O15   V3    2.012757 S    
C21   C23   1.384549 A    
O5    C3    1.332071 A    
O13   C61   1.329143 A    
C40   H24   1.081411 S    
C46   C48   1.418308 A    
C6    H6    1.084297 S    
O11   C63   1.338769 A    
C56   C58   1.390238 A    
C58   C60   1.394199 A    
C27   H7    1.077201 S    
C28   H8    1.076924 S    
O20   V3    1.793823 S    
C41   C43   1.423067 A    
C5    C21   1.403555 A    
C1    C46   1.483682 S    
C33   C35   1.393253 A    
C6    C22   1.403255 A    
C34   C36   1.393471 A    
C59   H29   1.081278 S    
C10   C32   1.397868 A    
C37   C39   1.393725 A    
C17   C31   1.434532 A    
C13   C15   1.417725 A    
C41   C45   1.417345 A    
C17   C25   1.431615 A    
C7    C29   1.393306 A    
C16   C18   1.437813 A    
O15   C63   1.337207 A    
C38   H22   1.082670 S    
C33   C43   1.416638 A    
C49   C51   1.418070 A    
O6    V2    2.033942 S    
C20   C22   1.416330 A    
C55   H27   1.082850 S    
O14   V4    2.034287 S    
C39   H23   1.081321 S    
C45   C47   1.418467 A    
O13   V3    2.050492 S    
C24   C26   1.392459 A    
C11   C13   1.387040 A    
C53   C55   1.393707 A    
C33   H17   1.082338 S    
C51   C64   1.488107 S    
C31   C62   1.465304 S    
N1    O22   1.292216 A    
C25   N1    1.430810 S    
C57   C59   1.394026 A    
C56   H28   1.082813 S    
O4    C2    1.316498 A    
C48   C54   1.415880 A    
H16   C58   1.082750 S    
C47   C53   1.416192 A    
C12   H14   1.083024 S    
O5    V1    2.050129 S    
C3    C8    1.454748 S    
C15   C19   1.429727 A    
C44   C52   1.421198 A    
C39   C41   1.415566 A    
C36   C38   1.389430 A    
O4    V2    2.025131 S    
H15   C57   1.082761 S    
C42   C46   1.416484 A    
O18   V4    2.025402 S    
O6    C4    1.336087 A    
O19   V4    1.796666 S    
C50   C52   1.417391 A    
C34   C44   1.416297 A    
O1    V2    2.022308 S    
C5    H5    1.084289 S    
O2    V1    2.030885 S    
C47   C49   1.424068 A    
H2    C30   1.082797 S    
H3    C23   1.085197 S    
C55   C57   1.389903 A    
C11   H13   1.083014 S    
C54   C56   1.393848 A    
C32   C61   1.465456 S    
O12   C64   1.336822 A    
C18   C26   1.432836 A    
O11   V4    1.991285 S    
C36   H20   1.082765 S    
C19   C27   1.415258 A    
C7    C27   1.397485 A    
C18   C32   1.435542 A    
C2    C45   1.484303 S    
O12   V3    1.985369 S    
C50   C60   1.414685 A    
O16   C64   1.340308 A    
C10   H10   1.083566 S    
C16   C20   1.430461 A    
C23   C25   1.392651 A    
C5    C29   1.387698 A    
C48   C50   1.424048 A    
C22   C24   1.383837 A    
O3    C1    1.316199 A    
C6    C30   1.387083 A    
C60   H30   1.081478 S    
N1    O21   1.296320 A    
C9    H9    1.083512 S    
C8    C30   1.393318 A    
C62   O17   1.326330 A    
C4    C7    1.453860 S    
O17   V3    2.034315 S    
C10   C12   1.382144 A    
O7    V1    1.994920 S    
C1    O8    1.315222 A    
C19   C21   1.416680 A    
O8    V2    2.001593 S    
C12   C14   1.386507 A    
H4    C24   1.085265 S    
O14   C62   1.329454 A    
C34   H18   1.082504 S    
C26   N2    1.431385 S    
C37   H21   1.082694 S    
C15   C17   1.436309 A    
H1    C29   1.082991 S    
C20   C28   1.416326 A    
C8    C28   1.397981 A    
C52   C63   1.487902 S    
C49   C59   1.415083 A    
C40   C42   1.415112 A    
O9    V2    1.796698 S    
C35   H19   1.082761 S    
C53   H25   1.082007 S    
O10   V1    1.793888 S    
O3    V1    2.012820 S    
C42   C44   1.422832 A    
C13   H11   1.075992 S    
N2    O23   1.297084 A    
N2    O24   1.292658 A    
C14   H12   1.075731 S    
C9    C31   1.397682 A    
C14   C16   1.417769 A    
