data_mof_unit_8629.cif
_audit_creation_date              2012-12-11T15:59:45-0500
_audit_creation_method            fapswitch 2.2
_symmetry_space_group_name_H-M    P1
_symmetry_Int_Tables_number       1
_space_group_crystal_system       triclinic
_cell_length_a                    10.683596
_cell_length_b                    10.772972
_cell_length_c                    17.107369
_cell_angle_alpha                 99.678299
_cell_angle_beta                  99.803664
_cell_angle_gamma                 60.861681
_cell_volume                      1686.34027426

loop_
_atom_site_label
_atom_site_type_symbol
_atom_type_description
_atom_site_fract_x
_atom_site_fract_y
_atom_site_fract_z
_atom_type_partial_charge
C1    C     C_R   0.356575 0.768904 0.397832 0.537744
C2    C     C_R   0.820330 0.350102 0.324106 0.009558
C3    C     C_R   0.355415 0.817203 0.157691 -0.000913
C4    C     C_R   0.369507 0.346696 0.357423 0.566882
C5    C     C_R   0.448526 0.850916 0.216598 0.020983
C6    C     C_R   0.434571 0.855653 0.297891 0.011892
C7    C     C_R   0.282887 0.740328 0.256931 -0.141528
C8    C     C_R   0.283405 0.751047 0.178150 -0.148252
C9    C     C_R   0.553382 0.881628 0.197443 -0.096500
C10   C     C_R   0.629836 0.930587 0.256589 -0.129076
C11   C     C_R   0.607935 0.945969 0.335961 -0.097404
C12   C     C_R   0.856375 0.204308 0.197606 0.031201
C13   C     C_R   0.509001 0.911746 0.356727 -0.094080
C14   C     C_R   0.349031 0.800947 0.317558 0.010575
C15   C     C_R   0.280670 0.251204 0.794172 -0.039475
C16   C     C_R   0.774638 0.378536 0.403052 0.555423
C17   C     C_R   0.410239 0.158504 0.759041 0.030957
C18   C     C_R   0.448611 0.213029 0.704720 0.012857
C19   C     C_R   0.194354 0.393127 0.682017 0.017615
C20   C     C_R   0.171583 0.364775 0.753661 -0.156829
C21   C     C_R   0.510682 0.021536 0.783028 -0.074950
C22   C     C_R   0.653950 0.956616 0.767459 -0.109299
C23   C     C_R   0.866833 0.214503 0.281480 0.020328
C24   C     C_R   0.699791 0.029653 0.730161 -0.113855
C25   C     C_R   0.598573 0.158205 0.700387 -0.086256
C26   C     C_R   0.336537 0.321177 0.658783 -0.029058
C27   C     C_1   0.818701 0.342086 0.708933 -0.058750
C28   C     C_R   0.381080 0.715294 0.631553 0.550581
C29   C     C_1   0.845918 0.313434 0.776504 -0.056029
C30   C     C_1   0.358145 0.765394 0.713654 -0.041908
C31   C     C_1   0.325547 0.812104 0.780531 -0.049580
C32   C     C_R   0.891264 0.308442 0.087078 0.547730
C33   C     C_R   0.319331 0.299525 0.120147 0.562619
C34   C     C_R   0.779698 0.470749 0.284648 -0.139768
C35   C     C_R   0.298543 0.887208 0.084109 0.552627
C36   C     C_R   0.886943 0.297021 0.858839 0.542924
C37   C     C_R   0.273975 0.245593 0.878401 0.564430
C38   C     C_R   0.280975 0.881081 0.857651 0.539502
C39   C     C_R   0.373408 0.350147 0.587576 0.553277
C40   C     C_R   0.773371 0.380896 0.629776 0.552752
C41   C     C_1   0.343105 0.336572 0.274105 -0.033595
C42   C     C_1   0.331923 0.326312 0.203381 -0.036857
C43   C     C_R   0.829991 0.325714 0.160488 -0.002654
C44   C     C_2   0.068674 0.499985 0.635647 0.597796
C45   C     C_R   0.785158 0.458489 0.204262 -0.157857
C46   C     C_R   0.875239 0.072655 0.154782 -0.062430
C47   C     C_R   0.926484 0.950890 0.193954 -0.136326
C48   C     C_R   0.952773 0.958846 0.276601 -0.134946
C49   C     C_R   0.921847 0.089611 0.320345 -0.090179
Cr1   Cr    Cr6+3 0.608100 0.610860 0.522250 1.038131
Cr2   Cr    Cr6+3 0.288890 0.599990 0.488420 1.052210
Cr3   Cr    Cr6+3 0.603040 0.289190 0.489390 0.994863
Cr4   Cr    Cr6+3 0.053960 0.052250 0.967380 1.020004
Cr5   Cr    Cr6+3 0.059890 0.373160 0.992710 1.018803
Cr6   Cr    Cr6+3 0.373370 0.061690 0.991710 0.995642
H1    H     H_    0.740015 0.577282 0.315514 0.159387
H2    H     H_    0.846364 0.062316 0.091307 0.140754
H3    H     H_    0.760599 0.552675 0.176923 0.137819
H4    H     H_    0.942911 0.850563 0.160223 0.104425
H5    H     H_    0.991198 0.864628 0.307105 0.127479
H6    H     H_    0.942519 0.091851 0.384586 0.132507
H7    H     H_    0.227995 0.685415 0.270197 0.138343
H8    H     H_    0.582645 0.862835 0.137590 0.139140
H9    H     H_    0.219259 0.715901 0.133427 0.135097
H10   H     H_    0.886757 0.689167 0.637714 0.336431
H11   H     H_    0.704837 0.958352 0.240344 0.135372
H12   H     H_    0.668276 0.984022 0.381603 0.139030
H13   H     H_    0.491745 0.930185 0.418982 0.138483
H14   H     H_    0.481482 0.966004 0.816196 0.154857
H15   H     H_    0.068749 0.430310 0.777685 0.172721
H16   H     H_    0.730470 0.854101 0.788528 0.141813
H17   H     H_    0.812959 0.986448 0.723508 0.142168
H18   H     H_    0.639733 0.214579 0.675686 0.158739
O1    O     O_R   0.749810 0.499790 0.438040 -0.495746
O2    O     O_R   0.411730 0.181020 0.091530 -0.510224
O3    O     O_R   0.365010 0.944360 0.063320 -0.513245
O4    O     O_R   0.477660 0.726260 0.439290 -0.508418
O5    O     O_R   0.159380 0.906670 0.876210 -0.491995
O6    O     O_R   0.930820 0.177420 0.886730 -0.495188
O7    O     O_R   0.910360 0.395420 0.895720 -0.523633
O8    O     O_R   0.186010 0.361730 0.919870 -0.491605
O9    O     O_R   0.400000 0.173010 0.914630 -0.515504
O10   O     O_R   0.354140 0.936940 0.899340 -0.545911
O11   O     O_3   0.162410 0.162370 0.983930 -0.271204
O12   O     O_R   0.298970 0.468800 0.557390 -0.471278
O13   O     O_R   0.260150 0.743000 0.412270 -0.527235
O14   O     O_R   0.297740 0.466550 0.394720 -0.494750
O15   O     O_R   0.488080 0.253500 0.386430 -0.516214
O16   O     O_R   0.722670 0.303800 0.421940 -0.509618
O17   O     O_R   0.751130 0.502220 0.613520 -0.480699
O18   O     O_R   0.478890 0.728510 0.601960 -0.491700
O19   O     O_R   0.261470 0.745430 0.587750 -0.495493
O20   O     O_2   0.048719 0.476297 0.563398 -0.495420
O21   O     O_R   0.968883 0.625176 0.675384 -0.706721
O22   O     O_R   0.489400 0.255930 0.561910 -0.536185
O23   O     O_R   0.723890 0.306050 0.584610 -0.525671
O24   O     O_3   0.500010 0.500010 0.500020 -0.279964
O25   O     O_R   0.171100 0.914680 0.053100 -0.511831
O26   O     O_R   0.941680 0.184840 0.050710 -0.509310
O27   O     O_R   0.922080 0.403420 0.072610 -0.516545
O28   O     O_R   0.196880 0.369150 0.083850 -0.494812

loop_
_geom_bond_atom_site_label_1
_geom_bond_atom_site_label_2
_ccdc_geom_bond_type
Cr2   O24   S    
C34   H1    S    
C38   O10   A    
C27   C29   T    
C1    O4    A    
C41   C42   T    
Cr5   O28   S    
C19   C20   A    
C18   C26   A    
C20   H15   S    
Cr2   O12   S    
Cr5   O11   S    
C7    C8    A    
C4    O14   A    
Cr4   O26   S    
C29   C36   S    
Cr4   O11   S    
C16   O1    A    
C33   C42   S    
C22   C24   A    
Cr4   O6    S    
C12   C43   A    
Cr1   O1    S    
C30   C31   T    
C26   C39   S    
C23   C49   A    
C4    C41   S    
Cr3   O24   S    
Cr3   O22   S    
C19   C26   A    
C15   C37   S    
C44   O20   D    
Cr1   O17   S    
C7    C14   A    
C11   H12   S    
C35   O25   A    
C2    C16   S    
C9    C10   A    
Cr6   O2    S    
C2    C34   A    
C16   O16   A    
C21   C22   A    
C37   O8    A    
Cr3   O16   S    
C18   C25   A    
C40   O23   A    
Cr2   O13   S    
C33   O2    A    
C48   H5    S    
Cr5   O7    S    
C10   H11   S    
C15   C20   A    
C45   H3    S    
C35   O3    A    
C49   H6    S    
Cr3   O15   S    
C24   C25   A    
C12   C46   A    
C3    C8    A    
C36   O7    A    
Cr2   O14   S    
C38   O5    A    
C17   C21   A    
C32   O27   A    
C21   H14   S    
C7    H7    S    
C5    C9    A    
Cr2   O19   S    
C6    C14   A    
C47   C48   A    
C12   C23   A    
C3    C35   S    
C27   C40   S    
C17   C18   A    
C28   O19   A    
C34   C45   A    
Cr6   O9    S    
C43   C45   A    
C39   O22   A    
C8    H9    S    
Cr6   O3    S    
C48   C49   A    
C46   H2    S    
C33   O28   A    
C37   O9    A    
C39   O12   A    
Cr6   O10   S    
Cr1   O4    S    
C22   H16   S    
C19   C44   S    
C24   H17   S    
C1    O13   A    
C15   C17   A    
C46   C47   A    
H10   O21   S    
Cr1   O24   S    
C9    H8    S    
C3    C5    A    
C36   O6    A    
C32   O26   A    
C4    O15   A    
Cr4   O25   S    
C31   C38   S    
C28   C30   S    
Cr4   O5    S    
C6    C13   A    
C11   C13   A    
C5    C6    A    
Cr5   O27   S    
C32   C43   S    
Cr3   O23   S    
C28   O18   A    
C25   H18   S    
C44   O21   S    
C10   C11   A    
C47   H4    S    
Cr1   O18   S    
C2    C23   A    
C1    C14   S    
C40   O17   A    
Cr6   O11   S    
Cr5   O8    S    
C13   H13   S    
