data_mof_unit_46417.cif
_audit_creation_date              2012-12-10T18:09:31-0500
_audit_creation_method            fapswitch 2.2
_symmetry_space_group_name_H-M    P1
_symmetry_Int_Tables_number       1
_space_group_crystal_system       triclinic
_cell_length_a                    15.157219
_cell_length_b                    15.729756
_cell_length_c                    9.397941
_cell_angle_alpha                 90.276638
_cell_angle_beta                  90.0
_cell_angle_gamma                 90.000015
_cell_volume                      2240.62492882

loop_
_atom_site_label
_atom_site_type_symbol
_atom_type_description
_atom_site_fract_x
_atom_site_fract_y
_atom_site_fract_z
_atom_type_partial_charge
C1    C     C_R   0.123469 0.383899 0.500111 0.800418
C2    C     C_R   0.121510 0.618112 0.500178 0.830832
C3    C     C_R   0.621510 0.881887 0.499822 0.830836
C4    C     C_R   0.623469 0.116101 0.499889 0.800418
C5    C     C_3   0.069033 0.441308 0.083478 -0.181302
C6    C     C_3   0.070987 0.443310 0.915581 -0.188495
C7    C     C_3   0.570992 0.056684 0.084418 -0.188492
C8    C     C_3   0.569037 0.058687 0.916522 -0.181305
C9    C     C_R   0.877824 0.380597 0.499570 0.814245
C10   C     C_R   0.880925 0.622130 0.500494 0.837279
C11   C     C_R   0.380925 0.877871 0.499505 0.837280
C12   C     C_R   0.377825 0.119404 0.500429 0.814243
C13   C     C_3   0.782519 0.282146 0.660720 0.369976
C14   C     C_3   0.847836 0.224329 0.418894 0.404264
C15   C     C_3   0.757355 0.696971 0.651949 0.385401
C16   C     C_3   0.856746 0.784865 0.475502 0.374626
C17   C     C_3   0.356746 0.715136 0.524497 0.374626
C18   C     C_3   0.257354 0.803029 0.348051 0.385399
C19   C     C_3   0.347837 0.275671 0.581108 0.404266
C20   C     C_3   0.282521 0.217856 0.339280 0.369976
C21   C     C_3   0.281098 0.648286 0.547487 -0.399154
C22   C     C_3   0.200412 0.721541 0.348473 -0.392163
C23   C     C_3   0.282594 0.351274 0.554387 -0.416531
C24   C     C_3   0.204928 0.281639 0.348012 -0.381695
C25   C     C_3   0.704926 0.218362 0.651988 -0.381696
C26   C     C_3   0.782594 0.148727 0.445614 -0.416531
C27   C     C_3   0.700412 0.778459 0.651526 -0.392159
C28   C     C_3   0.781098 0.851715 0.452512 -0.399153
C29   C     C_3   0.717841 0.336313 0.415437 0.276978
C30   C     C_3   0.739330 0.678982 0.371561 0.339145
C31   C     C_3   0.239330 0.821018 0.628437 0.339142
C32   C     C_3   0.217842 0.163687 0.584561 0.276976
C33   C     C_3   0.809087 0.309039 0.498187 0.007457
C34   C     C_3   0.811379 0.692839 0.500763 -0.010457
C35   C     C_3   0.311378 0.807162 0.499236 -0.010449
C36   C     C_3   0.309088 0.190962 0.501813 0.007458
C37   C     C_3   0.190447 0.685337 0.500368 -0.042731
C38   C     C_3   0.192465 0.316674 0.501240 -0.047205
C39   C     C_3   0.692464 0.183327 0.498760 -0.047204
C40   C     C_3   0.690446 0.814663 0.499631 -0.042733
C41   C     C_3   0.161644 0.758250 0.601110 -0.380375
C42   C     C_3   0.162920 0.245923 0.605360 -0.355581
C43   C     C_3   0.662919 0.254077 0.394639 -0.355583
C44   C     C_3   0.661644 0.741750 0.398888 -0.380372
C45   C     C_3   0.021113 0.585517 0.084602 -0.172857
C46   C     C_3   0.019117 0.585840 0.917292 -0.205221
C47   C     C_3   0.915039 0.473733 0.083102 -0.204028
C48   C     C_3   0.917199 0.468846 0.916729 -0.146435
C49   C     C_3   0.417201 0.031163 0.083270 -0.146435
C50   C     C_3   0.415041 0.026272 0.916898 -0.204023
C51   C     C_3   0.519109 0.914158 0.082708 -0.205225
C52   C     C_3   0.521107 0.914482 0.915398 -0.172854
Cu1   Cu    Cu3+1 0.000100 0.500000 0.642410 0.917968
Cu2   Cu    Cu3+1 0.000100 0.500000 0.357590 0.922990
Cu3   Cu    Cu3+1 0.500100 0.000000 0.642410 0.922990
Cu4   Cu    Cu3+1 0.500100 0.000000 0.357590 0.917967
H1    H     H_    0.294162 0.588476 0.487073 0.153574
H2    H     H_    0.229481 0.671090 0.279389 0.158325
H3    H     H_    0.309427 0.396369 0.474501 0.156830
H4    H     H_    0.215433 0.335153 0.272692 0.176395
H5    H     H_    0.715430 0.164849 0.727309 0.176395
H6    H     H_    0.809426 0.103632 0.525502 0.156830
H7    H     H_    0.729480 0.828911 0.720609 0.158320
H8    H     H_    0.794161 0.911525 0.512927 0.153575
H9    H     H_    0.277349 0.627543 0.659879 0.189121
H10   H     H_    0.134577 0.734839 0.301322 0.240853
H11   H     H_    0.273079 0.389521 0.653082 0.200516
H12   H     H_    0.141865 0.252944 0.311813 0.203821
H13   H     H_    0.641863 0.247058 0.688185 0.203820
H14   H     H_    0.773080 0.110479 0.346920 0.200516
H15   H     H_    0.634577 0.765161 0.698678 0.240854
H16   H     H_    0.777348 0.872458 0.340120 0.189121
H17   H     H_    0.135102 0.733066 0.703025 0.169592
H18   H     H_    0.104725 0.790384 0.550350 0.209804
H19   H     H_    0.170342 0.271282 0.715548 0.201335
H20   H     H_    0.091643 0.232894 0.597913 0.156442
H21   H     H_    0.591643 0.267106 0.402085 0.156442
H22   H     H_    0.670342 0.228718 0.284451 0.201333
H23   H     H_    0.604725 0.709616 0.449647 0.209802
H24   H     H_    0.635102 0.766934 0.296973 0.169593
H25   H     H_    0.087502 0.606833 0.120054 0.150443
H26   H     H_    0.083700 0.609848 0.878625 0.150148
H27   H     H_    0.897259 0.409940 0.122960 0.211669
H28   H     H_    0.908898 0.401197 0.886285 0.200265
H29   H     H_    0.408908 0.098813 0.113711 0.200257
H30   H     H_    0.397263 0.090065 0.877037 0.211674
H31   H     H_    0.583689 0.890144 0.121377 0.150149
H32   H     H_    0.587495 0.893162 0.879948 0.150445
H33   H     H_    0.973731 0.633021 0.126276 0.185134
H34   H     H_    0.969479 0.631632 0.879915 0.149810
H35   H     H_    0.862486 0.518408 0.117851 0.146180
H36   H     H_    0.861099 0.503793 0.871216 0.200593
H37   H     H_    0.361096 0.996221 0.128784 0.200601
H38   H     H_    0.362485 0.981599 0.882151 0.146179
H39   H     H_    0.469465 0.868371 0.120084 0.149811
H40   H     H_    0.473723 0.866980 0.873722 0.185135
H41   H     H_    0.135372 0.458639 0.125173 0.139347
H42   H     H_    0.137176 0.464577 0.878762 0.151227
H43   H     H_    0.055516 0.375171 0.118963 0.178264
H44   H     H_    0.062075 0.377331 0.874846 0.154911
H45   H     H_    0.562088 0.122663 0.125155 0.154911
H46   H     H_    0.555523 0.124826 0.881039 0.178259
H47   H     H_    0.637180 0.035411 0.121236 0.151223
H48   H     H_    0.635375 0.041353 0.874824 0.139347
N1    N     N_3   0.001260 0.500000 0.143650 -0.137287
N2    N     N_3   0.001260 0.500000 0.856350 -0.143083
N3    N     N_3   0.501260 0.000000 0.143650 -0.143081
N4    N     N_3   0.501260 0.000000 0.856350 -0.137287
O1    O     O_R   0.091250 0.408820 0.620260 -0.603424
O2    O     O_R   0.091250 0.408820 0.379740 -0.599984
O3    O     O_R   0.091250 0.591180 0.620260 -0.607171
O4    O     O_R   0.091250 0.591180 0.379740 -0.591539
O5    O     O_R   0.591250 0.908820 0.620260 -0.591538
O6    O     O_R   0.591250 0.908820 0.379740 -0.607170
O7    O     O_R   0.591250 0.091180 0.620260 -0.599983
O8    O     O_R   0.591250 0.091180 0.379740 -0.603423
O9    O     O_R   0.908940 0.408800 0.620260 -0.564819
O10   O     O_R   0.908940 0.408800 0.379740 -0.575240
O11   O     O_R   0.908940 0.591200 0.620260 -0.578930
O12   O     O_R   0.908940 0.591200 0.379740 -0.576061
O13   O     O_R   0.408940 0.908800 0.620260 -0.576059
O14   O     O_R   0.408940 0.908800 0.379740 -0.578938
O15   O     O_R   0.408940 0.091200 0.620260 -0.575242
O16   O     O_R   0.408940 0.091200 0.379740 -0.564818
Br1   Br    Br    0.742358 0.373966 0.790187 -0.595140
Br2   Br    Br    0.864203 0.233849 0.211678 -0.634510
Br3   Br    Br    0.675776 0.601878 0.684839 -0.546577
Br4   Br    Br    0.941334 0.787499 0.315744 -0.597909
Br5   Br    Br    0.441334 0.712503 0.684256 -0.597912
Br6   Br    Br    0.175775 0.898122 0.315161 -0.546581
Br7   Br    Br    0.364201 0.266150 0.788324 -0.634511
Br8   Br    Br    0.242361 0.126037 0.209810 -0.595143
C53   C     C_3   0.857787 0.240886 0.749735 -0.808615
H49   H     H_    0.843837 0.244969 0.865633 0.279872
H50   H     H_    0.863073 0.171509 0.731311 0.205228
H51   H     H_    0.922521 0.271799 0.732820 0.234899
C54   C     C_3   0.943002 0.198391 0.458110 -0.851335
H52   H     H_    0.965227 0.145030 0.388834 0.275061
H53   H     H_    0.988108 0.252547 0.439303 0.235000
H54   H     H_    0.953223 0.172853 0.564763 0.205270
C55   C     C_3   0.809026 0.695516 0.795404 -0.793119
H55   H     H_    0.822603 0.630264 0.829452 0.254622
H56   H     H_    0.872297 0.728191 0.799537 0.208158
H57   H     H_    0.768169 0.722576 0.882848 0.223760
C56   C     C_3   0.916527 0.817252 0.597425 -0.842838
H58   H     H_    0.962732 0.766717 0.631829 0.221317
H59   H     H_    0.957093 0.872194 0.562229 0.264040
H60   H     H_    0.878441 0.843558 0.687952 0.216318
C57   C     C_3   0.416527 0.682751 0.402574 -0.842827
H61   H     H_    0.457104 0.627816 0.437774 0.264039
H62   H     H_    0.378441 0.656432 0.312056 0.216307
H63   H     H_    0.462723 0.733291 0.368157 0.221322
C58   C     C_3   0.309021 0.804487 0.204594 -0.793138
H64   H     H_    0.322625 0.869738 0.170576 0.254632
H65   H     H_    0.372276 0.771780 0.200427 0.208151
H66   H     H_    0.268146 0.777456 0.117148 0.223783
C59   C     C_3   0.443003 0.301609 0.541894 -0.851339
H67   H     H_    0.465227 0.354970 0.611171 0.275062
H68   H     H_    0.488109 0.247454 0.560699 0.234999
H69   H     H_    0.453224 0.327149 0.435243 0.205271
C60   C     C_3   0.357790 0.259116 0.250268 -0.808617
H70   H     H_    0.422523 0.228203 0.267184 0.234898
H71   H     H_    0.343841 0.255034 0.134369 0.279873
H72   H     H_    0.363075 0.328493 0.268693 0.205227
C61   C     C_3   0.659634 0.399467 0.501449 -0.752121
H73   H     H_    0.621673 0.368912 0.586922 0.261592
H74   H     H_    0.701215 0.449820 0.546557 0.286620
H75   H     H_    0.606777 0.429469 0.437121 0.220155
C62   C     C_3   0.726699 0.379681 0.266138 -0.763709
H76   H     H_    0.663330 0.408327 0.231366 0.223125
H77   H     H_    0.774980 0.431330 0.265902 0.233925
H78   H     H_    0.739302 0.336932 0.175780 0.274512
C63   C     C_3   0.702631 0.586792 0.360422 -0.804137
H79   H     H_    0.638677 0.577539 0.414542 0.256427
H80   H     H_    0.688210 0.565738 0.249858 0.229268
H81   H     H_    0.751326 0.541946 0.402242 0.229962
C64   C     C_3   0.773102 0.697583 0.217242 -0.773382
H82   H     H_    0.831781 0.659849 0.189224 0.255767
H83   H     H_    0.721986 0.681415 0.136587 0.213263
H84   H     H_    0.784966 0.765387 0.195832 0.240820
C65   C     C_3   0.273101 0.802417 0.782757 -0.773383
H85   H     H_    0.284966 0.734614 0.804167 0.240822
H86   H     H_    0.331778 0.840154 0.810776 0.255766
H87   H     H_    0.221984 0.818584 0.863410 0.213260
C66   C     C_3   0.202631 0.913208 0.639576 -0.804129
H88   H     H_    0.188216 0.934265 0.750141 0.229267
H89   H     H_    0.251324 0.958054 0.597749 0.229960
H90   H     H_    0.138675 0.922460 0.585463 0.256427
C67   C     C_3   0.226698 0.120319 0.733859 -0.763712
H91   H     H_    0.239302 0.163066 0.824219 0.274513
H92   H     H_    0.163329 0.091673 0.768630 0.223125
H93   H     H_    0.274979 0.068669 0.734095 0.233926
C68   C     C_3   0.159635 0.100534 0.498546 -0.752118
H94   H     H_    0.201216 0.050181 0.453438 0.286620
H95   H     H_    0.106778 0.070531 0.562874 0.220157
H96   H     H_    0.121674 0.131090 0.413074 0.261591

loop_
_geom_bond_atom_site_label_1
_geom_bond_atom_site_label_2
_ccdc_geom_bond_type
C16   C28   S    
C9    C33   S    
Cu3   Cu4   S    
Cu3   O13   S    
C59   H67   S    
Cu2   O12   S    
C9    O9    A    
C62   H76   S    
C4    O7    A    
C13   C25   S    
C56   H60   S    
C14   C33   S    
C56   H58   S    
C7    C8    S    
C49   N3    S    
C5    N1    S    
C45   C46   S    
C43   H22   S    
C23   H3    S    
C54   H53   S    
C2    O4    A    
C42   H19   S    
C61   H73   S    
Cu4   O16   S    
C38   C42   S    
C19   C36   S    
C57   H62   S    
C5    C6    S    
Cu1   O9    S    
C26   C39   S    
C66   H89   S    
C28   C40   S    
C23   H11   S    
C29   C33   S    
Cu2   O2    S    
C21   C37   S    
C29   C61   S    
C67   H92   S    
C22   H10   S    
C10   O11   A    
C1    O1    A    
C41   H18   S    
C46   H26   S    
Cu1   N2    S    
C48   N2    S    
C5    H43   S    
C68   H95   S    
C53   H51   S    
C24   C38   S    
C14   C54   S    
C47   H27   S    
C12   C36   S    
C45   H33   S    
C18   C35   S    
C15   C34   S    
C49   C50   S    
C13   Br1   S    
C64   H84   S    
C65   H86   S    
C64   H83   S    
C59   H68   S    
C15   Br3   S    
C31   C65   S    
C50   N4    S    
C9    O10   A    
C62   H77   S    
C30   C44   S    
C61   H74   S    
C28   H16   S    
C13   C53   S    
C20   Br8   S    
C8    N4    S    
C60   H71   S    
C45   N1    S    
C60   H70   S    
C63   H80   S    
C19   Br7   S    
C54   H54   S    
Cu3   O15   S    
C2    O3    A    
C30   C34   S    
C17   Br5   S    
C51   C52   S    
C19   C59   S    
C20   C24   S    
C44   H24   S    
C10   O12   A    
C3    O5    A    
C57   H63   S    
C51   H31   S    
C24   H12   S    
C50   H38   S    
C66   H90   S    
C39   C43   S    
Cu3   O5    S    
C47   N1    S    
C63   H79   S    
C22   C37   S    
C17   C21   S    
C48   H28   S    
C16   C56   S    
Cu4   O14   S    
C65   H85   S    
C67   H93   S    
C19   C23   S    
Cu4   N3    S    
C13   C33   S    
C49   H29   S    
C1    O2    A    
C16   Br4   S    
C15   C27   S    
C47   C48   S    
C12   O16   A    
C4    C39   S    
C52   H32   S    
C27   C40   S    
C24   H4    S    
C68   H96   S    
C16   C34   S    
C31   C66   S    
Cu1   O11   S    
Cu4   O8    S    
Cu2   O4    S    
C10   C34   S    
C25   H5    S    
C14   C26   S    
C58   H66   S    
C8    H48   S    
C18   C58   S    
C27   H7    S    
C1    C38   S    
C28   H8    S    
C11   O13   A    
C5    H41   S    
C3    C40   S    
C64   H82   S    
C61   H75   S    
Cu2   O10   S    
C48   H36   S    
C53   H49   S    
C26   H14   S    
C62   H78   S    
C7    N3    S    
C55   H57   S    
C11   O14   A    
C58   H65   S    
C6    H42   S    
C60   H72   S    
C27   H15   S    
C54   H52   S    
C65   H87   S    
Cu1   O1    S    
C32   C42   S    
C31   C41   S    
Cu2   N1    S    
C21   H9    S    
C18   C22   S    
C47   H35   S    
C4    O8    A    
C44   H23   S    
C17   C57   S    
C32   C68   S    
C3    O6    A    
C22   H2    S    
C32   C36   S    
Cu1   Cu2   S    
C46   H34   S    
C59   H69   S    
C43   H21   S    
C23   C38   S    
C21   H1    S    
C42   H20   S    
C14   Br2   S    
C30   C63   S    
C15   C55   S    
Cu3   N4    S    
C49   H37   S    
C55   H56   S    
C26   H6    S    
C55   H55   S    
C25   C39   S    
C2    C37   S    
Cu1   O3    S    
C66   H88   S    
C12   O15   A    
Cu3   O7    S    
C20   C60   S    
C46   N2    S    
C31   C35   S    
C11   C35   S    
C63   H81   S    
C30   C64   S    
C56   H59   S    
C32   C67   S    
C52   H40   S    
C45   H25   S    
C37   C41   S    
C67   H91   S    
C18   Br6   S    
C50   H30   S    
C41   H17   S    
C20   C36   S    
C40   C44   S    
C25   H13   S    
C52   N4    S    
C51   N3    S    
C68   H94   S    
C7    H45   S    
C51   H39   S    
C53   H50   S    
Cu4   O6    S    
C7    H47   S    
C17   C35   S    
C29   C62   S    
C58   H64   S    
C57   H61   S    
C8    H46   S    
C29   C43   S    
C6    H44   S    
C6    N2    S    
