data_mof_unit_52832.cif
_audit_creation_date              2012-12-10T19:42:03-0500
_audit_creation_method            fapswitch 2.2
_symmetry_space_group_name_H-M    P1
_symmetry_Int_Tables_number       1
_space_group_crystal_system       triclinic
_cell_length_a                    18.290864
_cell_length_b                    18.309297
_cell_length_c                    18.296125
_cell_angle_alpha                 119.957048
_cell_angle_beta                  89.971928
_cell_angle_gamma                 119.985519
_cell_volume                      4337.4297269

loop_
_atom_site_label
_atom_site_type_symbol
_atom_type_description
_atom_site_fract_x
_atom_site_fract_y
_atom_site_fract_z
_atom_type_partial_charge
C1    C     C_R   0.139842 0.780209 0.140320 0.525610
C2    C     C_R   0.811449 0.108268 0.803547 -0.002623
C3    C     C_R   0.795621 0.053918 0.842020 -0.108036
C4    C     C_R   0.860534 0.219817 0.859803 0.511920
C5    C     C_R   0.741362 0.946169 0.788429 -0.110709
C6    C     C_R   0.702002 0.891706 0.695905 0.030521
C7    C     C_R   0.726859 0.946629 0.657842 -0.009091
C8    C     C_3   0.670780 0.941828 0.593682 0.132671
C9    C     C_3   0.733063 0.059598 0.650263 0.138216
C10   C     C_R   0.774061 0.562842 0.220608 0.022476
C11   C     C_R   0.797541 0.493449 0.189168 0.039052
C12   C     C_R   0.572846 0.445579 0.762822 -0.107354
C13   C     C_R   0.757037 0.415157 0.203174 -0.127001
C14   C     C_R   0.703314 0.415548 0.257344 -0.128541
C15   C     C_R   0.689387 0.493999 0.297640 0.010217
C16   C     C_R   0.140156 0.498756 0.860219 0.621217
C17   C     C_R   0.720110 0.562802 0.273265 0.050622
C18   C     C_3   0.771089 0.678260 0.329686 0.071415
C19   C     C_3   0.830715 0.678037 0.271126 0.126972
C20   C     C_R   0.159290 0.947832 0.215263 0.034084
C21   C     C_R   0.194181 0.891599 0.203780 -0.054036
C22   C     C_R   0.279646 0.943667 0.261541 -0.101468
C23   C     C_R   0.657841 0.469692 0.756757 -0.025723
C24   C     C_R   0.334349 0.051907 0.320299 0.225993
C25   C     C_R   0.303864 0.108203 0.316501 -0.013248
C26   C     C_R   0.214279 0.053964 0.268833 0.027111
C27   C     C_3   0.172276 0.064073 0.207873 0.118673
C28   C     C_R   0.859500 0.499546 0.139610 0.539818
C29   C     C_3   0.109094 0.945893 0.148595 0.138229
C30   C     C_R   0.286414 0.574231 0.234911 -0.002694
C31   C     C_R   0.196462 0.490607 0.186022 0.014811
C32   C     C_R   0.165673 0.399408 0.181567 0.188843
C33   C     C_R   0.220086 0.403467 0.239560 -0.113857
C34   C     C_R   0.710525 0.465762 0.809837 -0.008663
C35   C     C_R   0.305300 0.493969 0.297460 -0.022074
C36   C     C_R   0.339617 0.574778 0.288379 0.014358
C37   C     C_3   0.392313 0.688479 0.356962 0.145553
C38   C     C_3   0.334822 0.689813 0.296917 0.441952
C39   C     C_R   0.266975 0.582607 0.819700 -0.051368
C40   C     C_R   0.140047 0.497990 0.138120 0.588136
C41   C     C_R   0.197424 0.491760 0.806306 0.022671
C42   C     C_R   0.190794 0.399023 0.747332 0.200515
C43   C     C_R   0.241484 0.396784 0.686934 0.213666
C44   C     C_R   0.304499 0.491159 0.696652 -0.014772
C45   C     C_R   0.796892 0.492156 0.803085 0.080887
C46   C     C_R   0.321475 0.583049 0.768591 -0.020719
C47   C     C_3   0.332724 0.672282 0.773131 0.100990
C48   C     C_3   0.272520 0.672306 0.831063 0.133156
C49   C     C_R   0.639767 0.499745 0.359603 0.504694
C50   C     C_R   0.359743 0.498309 0.639947 0.562239
C51   C     C_R   0.640250 0.780097 0.640061 0.545469
C52   C     C_R   0.858690 0.498622 0.859915 0.623929
C53   C     C_R   0.360066 0.219782 0.362654 0.549399
C54   C     C_R   0.360035 0.499834 0.359791 0.512649
C55   C     C_R   0.638764 0.498742 0.639986 0.509635
C56   C     C_R   0.826383 0.513438 0.740774 0.215044
C57   C     C_R   0.673480 0.431489 0.864441 0.248190
C58   C     C_R   0.590430 0.414912 0.873460 0.217394
C59   C     C_R   0.541030 0.421245 0.821776 -0.088071
C60   C     C_R   0.771929 0.512819 0.687049 -0.122899
C61   C     C_R   0.689952 0.493942 0.696139 0.020166
C62   C     C_R   0.782127 0.053175 0.710208 0.020364
H1    H     H_    0.700867 0.099450 0.683748 0.135536
H2    H     H_    0.382848 0.709872 0.423168 0.146503
H3    H     H_    0.304492 0.651883 0.706699 0.153255
H4    H     H_    0.306239 0.740987 0.901775 0.176578
H5    H     H_    0.476395 0.405866 0.826070 0.194291
H6    H     H_    0.529575 0.445091 0.722093 0.173558
H7    H     H_    0.794646 0.530029 0.639366 0.120850
H8    H     H_    0.821845 0.094251 0.913660 0.205571
H9    H     H_    0.727316 0.906033 0.819948 0.189284
H10   H     H_    0.673170 0.901877 0.524869 0.238856
H11   H     H_    0.920317 0.549881 0.688310 0.341583
H12   H     H_    0.769808 0.356476 0.175726 0.172361
H13   H     H_    0.584455 0.939139 0.658389 0.339229
H14   H     H_    0.908448 0.253876 0.623944 0.385944
H15   H     H_    0.818783 0.881591 0.396038 0.376692
H16   H     H_    0.919643 0.696416 0.351316 0.325962
H17   H     H_    0.673970 0.360125 0.915626 0.370862
H18   H     H_    0.576833 0.200915 0.408717 0.377248
H19   H     H_    0.117303 0.131801 0.211675 0.364361
H20   H     H_    0.931777 0.752278 0.010801 0.341258
H21   H     H_    0.993667 0.300262 0.202711 0.350690
H22   H     H_    0.513825 0.741205 0.409307 0.376943
H23   H     H_    0.675945 0.357133 0.270458 0.174541
H24   H     H_    0.176223 0.761497 0.319445 0.368792
H25   H     H_    0.664710 0.530443 0.062424 0.364861
H26   H     H_    0.476574 0.738926 0.162039 0.387584
H27   H     H_    0.050193 0.255514 0.836835 0.375078
H28   H     H_    0.176532 0.195859 0.451779 0.396205
H29   H     H_    0.413704 0.878173 0.819688 0.361622
H30   H     H_    0.052224 0.507010 0.661518 0.391217
H31   H     H_    0.805370 0.715391 0.400740 0.116055
H32   H     H_    0.826242 0.703981 0.228853 0.235647
H33   H     H_    0.304097 0.900152 0.260116 0.235050
H34   H     H_    0.218806 0.098129 0.177314 0.089792
H35   H     H_    0.117352 0.910138 0.082054 0.073890
H36   H     H_    0.195673 0.336512 0.240360 0.178751
O1    O     O_3   0.000000 0.500000 0.000000 -0.503279
O2    O     O_R   0.323450 0.268330 0.384170 -0.510022
O3    O     O_R   0.444860 0.560620 0.384150 -0.514150
O4    O     O_R   0.055050 0.731580 0.115780 -0.491741
O5    O     O_R   0.615780 0.439200 0.555040 -0.517116
O6    O     O_R   0.323420 0.439190 0.384160 -0.539011
O7    O     O_R   0.615760 0.560630 0.676470 -0.543691
O8    O     O_R   0.615740 0.731500 0.676460 -0.513899
O9    O     O_R   0.444900 0.268330 0.384170 -0.473612
O10   O     O_R   0.615750 0.560630 0.384150 -0.494596
O11   O     O_R   0.323430 0.439200 0.555040 -0.474795
O12   O     O_R   0.055090 0.439280 0.823480 -0.457891
O13   O     O_R   0.884220 0.268410 0.823490 -0.487802
O14   O     O_R   0.176520 0.560720 0.944920 -0.519166
O15   O     O_R   0.884200 0.439290 0.115800 -0.546731
O16   O     O_R   0.176530 0.560720 0.115800 -0.473359
O17   O     O_R   0.884180 0.560710 0.944910 -0.501489
O18   O     O_R   0.055100 0.439290 0.115810 -0.468976
O19   O     O_R   0.884190 0.439280 0.823480 -0.472545
O20   O     O_3   0.909778 0.536690 0.734975 -0.642895
O21   O     O_3   0.582502 0.903262 0.595205 -0.677472
O22   O     O_2   0.851056 0.060335 0.561007 -0.236532
O23   O     O_R   0.884180 0.560710 0.115790 -0.487960
O24   O     O_2   0.737120 0.074341 0.511100 -0.190596
O25   O     O_3   0.869436 0.235341 0.657998 -0.451538
O26   O     O_2   0.640455 0.646847 0.223290 -0.176494
O27   O     O_2   0.656136 0.729567 0.382164 -0.245616
O28   O     O_3   0.774596 0.837983 0.335853 -0.415565
O29   O     O_3   0.919878 0.725475 0.317656 -0.652825
O30   O     O_3   0.717251 0.411017 0.904980 -0.695317
O31   O     O_2   0.452665 0.197797 0.486954 -0.250897
O32   O     O_2   0.438060 0.034359 0.405657 -0.177479
O33   O     O_3   0.521043 0.159072 0.358892 -0.477422
O34   O     O_R   0.176500 0.731590 0.115790 -0.496488
O35   O     O_3   0.131429 0.113942 0.250158 -0.585393
O36   O     O_2   0.985815 0.920910 0.233328 -0.142319
O37   O     O_2   0.960064 0.936673 0.112135 -0.215867
O38   O     O_3   0.931061 0.764673 0.069974 -0.463380
O39   O     O_2   0.047590 0.259149 0.014548 -0.234400
O40   O     O_2   0.060358 0.192714 0.097578 -0.256020
O41   O     O_3   0.977961 0.281781 0.141351 -0.462379
O42   O     O_3   0.482305 0.736860 0.361717 -0.546801
O43   O     O_2   0.209348 0.663945 0.378510 -0.314170
O44   O     O_2   0.329963 0.841245 0.433063 -0.189746
O45   O     O_R   0.884220 0.268420 0.944930 -0.516804
O46   O     O_3   0.204487 0.729313 0.282271 -0.514114
O47   O     O_2   0.479551 0.412808 0.971004 -0.202169
O48   O     O_2   0.503060 0.276046 0.910264 -0.210703
O49   O     O_3   0.630656 0.459043 0.046004 -0.483527
O50   O     O_2   0.334426 0.751465 0.188855 -0.239069
O51   O     O_2   0.468261 0.865576 0.319765 -0.144264
O52   O     O_3   0.441924 0.697218 0.184430 -0.438763
O53   O     O_2   0.045425 0.206054 0.672494 -0.179594
O54   O     O_2   0.182628 0.257305 0.763543 -0.187069
O55   O     O_3   0.092119 0.322214 0.845129 -0.534961
O56   O     O_3   0.499960 0.499910 0.499960 -0.486925
O57   O     O_2   0.314931 0.298802 0.594779 -0.302983
O58   O     O_2   0.169488 0.187748 0.597859 -0.141342
O59   O     O_3   0.173557 0.251748 0.499943 -0.445730
O60   O     O_2   0.486622 0.793269 0.909711 -0.202463
O61   O     O_2   0.499589 0.780626 0.771165 -0.265810
O62   O     O_3   0.445363 0.890489 0.872791 -0.462352
O63   O     O_2   0.114172 0.643711 0.839907 -0.276963
O64   O     O_2   0.187942 0.719028 0.760062 -0.235619
O65   O     O_3   0.111598 0.522618 0.681550 -0.518591
O66   O     O_R   0.615770 0.439200 0.384160 -0.550894
O67   O     O_R   0.444870 0.560630 0.676470 -0.500438
O68   O     O_R   0.615730 0.731500 0.555020 -0.519400
S1    S     S_3+6 0.798680 0.105981 0.591330 0.082860
S2    S     S_3+6 0.225115 0.280222 0.595725 0.108704
S3    S     S_3+6 0.445327 0.785495 0.832893 0.039625
S4    S     S_3+6 0.168790 0.640939 0.778409 0.007502
S5    S     S_3+6 0.706194 0.721414 0.316643 0.084441
S6    S     S_3+6 0.437880 0.111554 0.396736 0.093071
S7    S     S_3+6 0.994077 0.893581 0.142872 0.114290
S8    S     S_3+6 0.061803 0.279198 0.105377 0.062951
S9    S     S_3+6 0.268456 0.732426 0.351204 0.050751
S10   S     S_3+6 0.547337 0.388505 0.950492 0.069558
S11   S     S_3+6 0.395629 0.754926 0.247040 0.166479
S12   S     S_3+6 0.126338 0.292548 0.755360 0.104140
Zn1   Zn    Zn3+2 0.956630 0.413250 0.869870 1.089993
Zn2   Zn    Zn3+2 0.130130 0.586750 0.043370 1.083653
Zn3   Zn    Zn3+2 0.956630 0.413250 0.043380 1.048396
Zn4   Zn    Zn3+2 0.956610 0.586750 0.043370 1.056315
Zn5   Zn    Zn3+2 0.543330 0.586660 0.630080 1.017111
Zn6   Zn    Zn3+2 0.543320 0.586660 0.456570 1.016538
Zn7   Zn    Zn3+2 0.369830 0.413160 0.456580 1.033531
Zn8   Zn    Zn3+2 0.543350 0.413170 0.456590 1.007002

loop_
_geom_bond_atom_site_label_1
_geom_bond_atom_site_label_2
_ccdc_geom_bond_type
H17   O30   S    
C1    C21   S    
O50   S11   D    
O36   S7    D    
C27   C29   S    
C41   C42   A    
C39   C48   S    
O31   S6    D    
C35   C36   A    
C1    O34   A    
C37   H2    S    
C4    O45   A    
H21   O41   S    
C38   S9    S    
C16   O12   A    
C7    C8    S    
C39   C41   A    
C40   O18   A    
C43   S2    S    
O6    Zn7   S    
O56   Zn8   S    
C12   C23   A    
C26   C27   S    
H25   O49   S    
C55   O7    A    
C60   H7    S    
C54   O6    A    
C36   C37   S    
C25   C53   S    
C18   C19   S    
O66   Zn8   S    
C30   C31   A    
O58   S2    D    
C10   C17   A    
C55   O5    A    
C31   C40   S    
C30   C38   S    
C33   H36   S    
C22   H33   S    
O65   S4    S    
C49   O66   A    
O28   S5    S    
C54   O3    A    
C59   H5    S    
C46   C47   S    
C12   C59   A    
C40   O16   A    
C47   C48   S    
C45   C56   A    
O32   S6    D    
C8    C9    S    
O1    Zn4   S    
C37   O42   S    
O56   Zn6   S    
O40   S8    D    
C34   C57   A    
O62   S3    S    
H11   O20   S    
C1    O4    A    
C6    C51   S    
O57   S2    D    
O14   Zn2   S    
O25   S1    S    
C52   O19   A    
C38   S11   S    
C13   C14   A    
O56   Zn5   S    
C35   C54   S    
O13   Zn1   S    
C27   H34   S    
C51   O68   A    
O5    Zn8   S    
H26   O52   S    
C57   O30   S    
C24   S6    S    
H16   O29   S    
O59   S2    S    
C47   S3    S    
C44   C46   A    
C49   O10   A    
C20   C29   S    
C53   O2    A    
O56   Zn7   S    
O15   Zn3   S    
O33   S6    S    
C8    H10   S    
O10   Zn6   S    
H24   O46   S    
C9    C62   S    
C27   O35   S    
C9    S1    S    
C3    H8    S    
H13   O21   S    
C24   C25   A    
C28   O15   A    
O49   S10   S    
O53   S12   D    
C45   C52   S    
O11   Zn7   S    
C25   C26   A    
C18   S5    S    
C32   S8    S    
C50   O11   A    
C56   C60   A    
O48   S10   D    
C60   C61   A    
O67   Zn5   S    
C2    C4    S    
C43   C44   A    
C7    C62   A    
O1    Zn1   S    
C37   C38   S    
C12   H6    S    
C53   O9    A    
H27   O55   S    
C31   C32   A    
O64   S4    D    
O47   S10   D    
C23   C61   A    
C10   C19   S    
C23   C34   A    
O18   Zn3   S    
C50   O67   A    
O51   S11   D    
C17   C18   S    
O68   Zn6   S    
C34   C45   A    
O7    Zn5   S    
C19   H32   S    
H29   O62   S    
C6    C7    A    
O3    Zn6   S    
O34   Zn2   S    
C39   C46   A    
C48   S4    S    
O63   S4    D    
H30   O65   S    
C4    O13   A    
O16   Zn2   S    
O52   S11   S    
O12   Zn1   S    
C22   C24   A    
O4    Zn4   S    
C42   C43   A    
O45   Zn3   S    
O17   Zn4   S    
C16   O14   A    
O43   S9    D    
C52   O17   A    
C44   C50   S    
C15   C17   A    
O55   S12   S    
O24   S1    D    
O61   S3    D    
C9    H1    S    
H14   O25   S    
C56   O20   S    
O37   S7    D    
C58   S10   S    
C14   H23   S    
C29   S7    S    
C3    C5    A    
O60   S3    D    
H19   O35   S    
O44   S9    D    
C29   H35   S    
C30   C36   A    
C32   C33   A    
H28   O59   S    
O2    Zn7   S    
C58   C59   A    
O39   S8    D    
C5    H9    S    
O38   S7    S    
C8    O21   S    
C11   C13   A    
O9    Zn8   S    
C57   C58   A    
C5    C6    A    
O26   S5    D    
C20   C26   A    
C11   C28   S    
C42   S12   S    
C51   O8    A    
C55   C61   S    
O46   S9    S    
C19   O29   S    
C33   C35   A    
C2    C3    A    
C15   C49   S    
O54   S12   D    
O27   S5    D    
O8    Zn5   S    
O1    Zn3   S    
C10   C11   A    
H20   O38   S    
O19   Zn1   S    
O1    Zn2   S    
C20   C21   A    
H22   O42   S    
H18   O33   S    
C18   H31   S    
C14   C15   A    
O23   Zn4   S    
O41   S8    S    
C28   O23   A    
C48   H4    S    
C21   C22   A    
C16   C41   S    
C47   H3    S    
H15   O28   S    
C2    C62   A    
O22   S1    D    
C13   H12   S    
