data_mof_unit_29026.cif
_audit_creation_date              2012-12-11T13:59:57-0500
_audit_creation_method            fapswitch 2.2
_symmetry_space_group_name_H-M    P1
_symmetry_Int_Tables_number       1
_space_group_crystal_system       triclinic
_cell_length_a                    11.220587
_cell_length_b                    11.278645
_cell_length_c                    18.736817
_cell_angle_alpha                 89.443336
_cell_angle_beta                  89.497868
_cell_angle_gamma                 120.387089
_cell_volume                      2045.10966703

loop_
_atom_site_label
_atom_site_type_symbol
_atom_type_description
_atom_site_fract_x
_atom_site_fract_y
_atom_site_fract_z
_atom_type_partial_charge
C1    C     C_R   0.576934 0.451909 0.862117 0.589468
C2    C     C_R   0.481497 0.540100 0.349927 0.600868
C3    C     C_R   0.062035 0.518424 0.351526 0.579311
C4    C     C_R   0.457895 0.938539 0.349875 0.601951
C5    C     C_2   0.032199 0.525808 0.588767 -0.071940
C6    C     C_2   0.528771 0.495528 0.570703 -0.052043
C7    C     C_2   0.496071 0.001828 0.581772 -0.044269
C8    C     C_2   0.510844 0.019417 0.412384 -0.063470
C9    C     C_2   0.508331 0.485972 0.414594 -0.073646
C10   C     C_2   0.022191 0.500881 0.425803 -0.045750
C11   C     C_2   0.118546 0.519035 0.473687 0.072850
C12   C     C_R   0.550648 0.136061 0.860057 0.575152
C13   C     C_2   0.628619 0.557085 0.448384 0.060953
C14   C     C_2   0.424886 0.011383 0.463977 0.056478
C15   C     C_2   0.484969 0.076698 0.529471 0.069335
C16   C     C_2   0.637360 0.533590 0.524874 0.075550
C17   C     C_2   0.073881 0.461095 0.545269 0.052567
C18   C     C_2   0.003478 0.506047 0.920706 0.439070
C19   C     C_2   0.536597 0.463714 0.934572 0.473143
C20   C     C_2   0.537918 0.112279 0.937176 0.447283
C21   C     C_2   0.463743 0.929638 0.065712 0.470169
C22   C     C_2   0.464838 0.572715 0.062548 0.450384
C23   C     C_R   0.934352 0.456841 0.853165 0.577252
C24   C     C_2   0.997866 0.504116 0.078913 0.438218
C25   C     C_2   0.024495 0.612946 0.036348 0.140419
C26   C     C_2   0.377209 0.462843 0.024321 0.130772
C27   C     C_2   0.586394 0.043767 0.050956 0.136200
C28   C     C_2   0.624923 0.090003 0.976201 0.130993
C29   C     C_2   0.414325 0.454608 0.949583 0.135872
C30   C     C_2   0.979842 0.590564 0.961995 0.140752
C31   C     C_R   0.450359 0.585256 0.139303 0.575217
C32   C     C_R   0.065728 0.522928 0.146802 0.579089
C33   C     C_R   0.422792 0.875614 0.138121 0.588032
C34   C     C_R   0.547407 0.479073 0.646165 0.605283
C35   C     C_R   0.517171 0.057350 0.651656 0.590872
C36   C     C_R   0.941540 0.460421 0.650096 0.590258
Cr1   Cr    Cr6+3 0.464030 0.233680 0.750360 1.067008
Cr2   Cr    Cr6+3 0.766320 0.230350 0.750360 1.074584
Cr3   Cr    Cr6+3 0.769650 0.535970 0.750360 1.053376
Cr4   Cr    Cr6+3 0.233680 0.464030 0.249640 1.062152
Cr5   Cr    Cr6+3 0.230350 0.766320 0.249640 1.064736
Cr6   Cr    Cr6+3 0.535970 0.769650 0.249640 1.070699
F1    F     F_    0.922062 0.373874 0.054979 -0.670322
F2    F     F_    0.575535 0.680681 0.029001 -0.621931
F3    F     F_    0.378904 0.854252 0.012107 -0.631590
F4    F     F_    0.428308 0.110929 0.970181 -0.624035
F5    F     F_    0.623020 0.474873 0.987954 -0.628941
F6    F     F_    0.078124 0.450632 0.945506 -0.669779
H1    H     H_    0.913080 0.445518 0.439859 0.025128
H2    H     H_    0.825211 0.629880 0.411964 0.222035
H3    H     H_    0.239900 0.855441 0.499699 0.216890
H4    H     H_    0.237144 0.995172 0.468986 0.228347
H5    H     H_    0.437922 0.226505 0.529713 0.227540
H6    H     H_    0.596465 0.273714 0.496924 0.215181
H7    H     H_    0.793444 0.493473 0.521936 0.209820
H8    H     H_    0.842912 0.658567 0.541414 0.223392
H9    H     H_    0.993386 0.259261 0.525423 0.233687
H10   H     H_    0.155063 0.338381 0.557725 0.220563
H11   H     H_    0.127126 0.821891 0.019564 0.282849
H12   H     H_    0.421298 0.396846 0.440010 0.046321
H13   H     H_    0.021467 0.764274 0.091483 0.227380
H14   H     H_    0.169107 0.338967 0.027593 0.299180
H15   H     H_    0.258729 0.260939 0.049218 0.260783
H16   H     H_    0.772236 0.128581 0.098851 0.278538
H17   H     H_    0.690800 0.221248 0.104391 0.297507
H18   H     H_    0.832487 0.171959 0.973526 0.299677
H19   H     H_    0.740368 0.004115 0.952852 0.261480
H20   H     H_    0.227177 0.351791 0.903043 0.277325
H21   H     H_    0.308556 0.526225 0.895353 0.295825
H22   H     H_    0.877588 0.696514 0.977184 0.282833
H23   H     H_    0.622001 0.074239 0.420505 0.068193
H24   H     H_    0.985199 0.746999 0.905976 0.225916
H25   H     H_    0.470158 0.895942 0.574474 0.041743
H26   H     H_    0.427957 0.473016 0.552800 0.021179
H27   H     H_    0.050039 0.626684 0.572750 0.065816
H28   H     H_    0.297133 0.519161 0.465457 0.216525
H29   H     H_    0.314885 0.670869 0.488540 0.215356
H30   H     H_    0.789089 0.752635 0.437193 0.235662
N1    N     N_3   0.262589 0.587483 0.454630 -0.575770
N2    N     N_3   0.747086 0.099326 0.945485 -0.600531
N3    N     N_3   0.322172 0.441282 0.893566 -0.601417
N4    N     N_3   0.911649 0.660633 0.934951 -0.573406
N5    N     N_3   0.750678 0.659364 0.410744 -0.581677
N6    N     N_3   0.276874 0.930585 0.459180 -0.575875
N7    N     N_3   0.525473 0.218227 0.537903 -0.575976
N8    N     N_3   0.767122 0.555851 0.550621 -0.565736
N9    N     N_3   0.058212 0.329829 0.563027 -0.578759
N10   N     N_3   0.094005 0.751565 0.062321 -0.572226
N11   N     N_3   0.254076 0.350476 0.055710 -0.601119
N12   N     N_3   0.677144 0.122575 0.107174 -0.602705
O1    O     O_R   0.434100 0.092480 0.829780 -0.475649
O2    O     O_R   0.362730 0.477510 0.175360 -0.489851
O3    O     O_R   0.114780 0.637270 0.175360 -0.533582
O4    O     O_R   0.522490 0.885220 0.175360 -0.519026
O5    O     O_R   0.432250 0.092620 0.670380 -0.494309
O6    O     O_R   0.907380 0.339630 0.670380 -0.462166
O7    O     O_R   0.660370 0.567750 0.670380 -0.473898
O8    O     O_R   0.092620 0.432250 0.329620 -0.500189
O9    O     O_R   0.339630 0.907380 0.329620 -0.457839
O10   O     O_R   0.567750 0.660370 0.329620 -0.464042
O11   O     O_R   0.475790 0.362860 0.676880 -0.485095
O12   O     O_R   0.907520 0.341620 0.829780 -0.481556
O13   O     O_R   0.637140 0.112930 0.676880 -0.484244
O14   O     O_R   0.887070 0.524210 0.676880 -0.494422
O15   O     O_R   0.362860 0.475790 0.323120 -0.496499
O16   O     O_R   0.112930 0.637140 0.323120 -0.478487
O17   O     O_R   0.524210 0.887070 0.323120 -0.504543
O18   O     O_3   0.666667 0.333333 0.749450 -0.319171
O19   O     O_3   0.333333 0.666667 0.250550 -0.317883
O20   O     O_R   0.658380 0.565900 0.829780 -0.478610
O21   O     O_R   0.092480 0.434100 0.170220 -0.481834
O22   O     O_R   0.341620 0.907520 0.170220 -0.480671
O23   O     O_R   0.565900 0.658380 0.170220 -0.470542
O24   O     O_R   0.477510 0.362730 0.824640 -0.514697
O25   O     O_R   0.637270 0.114780 0.824640 -0.492734
O26   O     O_R   0.885220 0.522490 0.824640 -0.534535

loop_
_geom_bond_atom_site_label_1
_geom_bond_atom_site_label_2
_ccdc_geom_bond_type
C5    C36   S    
C5    H27   S    
C32   O21   A    
C12   O1    A    
H28   N1    S    
H16   N12   S    
C4    C8    S    
H10   N9    S    
Cr3   O14   S    
C7    H25   S    
C26   N11   S    
H20   N3    S    
Cr6   O19   S    
C35   O13   A    
Cr4   O8    S    
C19   F5    S    
Cr3   O7    S    
C23   O12   A    
C5    C17   D    
H14   N11   S    
C34   O7    A    
Cr1   O5    S    
C27   N12   S    
H4    N6    S    
C9    C13   D    
H11   N10   S    
C23   O26   A    
H30   N5    S    
Cr3   O20   S    
Cr5   O3    S    
Cr5   O22   S    
Cr5   O9    S    
C18   C30   D    
C14   N6    S    
Cr6   O17   S    
C15   N7    S    
C12   O25   A    
C7    C15   D    
C32   O3    A    
C21   C27   D    
C2    O10   A    
Cr5   O19   S    
C33   O4    A    
C16   N8    S    
H15   N11   S    
Cr3   O18   S    
C28   N2    S    
H2    N5    S    
C6    H26   S    
Cr4   O21   S    
C21   F3    S    
H29   N1    S    
C3    O16   A    
H17   N12   S    
C4    O17   A    
C22   F2    S    
C1    C19   S    
C34   O11   A    
Cr5   O16   S    
Cr1   O1    S    
C18   C23   S    
H21   N3    S    
C24   C25   D    
Cr1   O18   S    
C22   C31   S    
Cr1   O24   S    
C20   C28   D    
C25   N10   S    
H9    N9    S    
C30   N4    S    
C24   C32   S    
C29   N3    S    
Cr2   O13   S    
H13   N10   S    
Cr6   O10   S    
C1    O20   A    
C36   O6    A    
Cr6   O23   S    
H8    N8    S    
C12   C20   S    
C33   O22   A    
Cr4   O2    S    
C11   N1    S    
Cr3   O26   S    
C4    O9    A    
C1    O24   A    
C19   C29   D    
C25   C30   S    
C11   C17   S    
C8    H23   S    
C8    C14   D    
Cr6   O4    S    
C7    C35   S    
H19   N2    S    
C18   F6    S    
H6    N7    S    
Cr4   O19   S    
C35   O5    A    
H18   N2    S    
C13   N5    S    
C2    O15   A    
C36   O14   A    
C9    H12   S    
H7    N8    S    
Cr2   O12   S    
C3    C10   S    
Cr1   O11   S    
Cr2   O25   S    
C2    C9    S    
C3    O8    A    
Cr2   O18   S    
H22   N4    S    
C20   F4    S    
C17   N9    S    
C10   C11   D    
C6    C16   D    
C6    C34   S    
C21   C33   S    
C26   C29   S    
C31   O2    A    
C22   C26   D    
C13   C16   S    
Cr2   O6    S    
C27   C28   S    
C24   F1    S    
C14   C15   S    
H5    N7    S    
C10   H1    S    
H3    N6    S    
C31   O23   A    
H24   N4    S    
Cr4   O15   S    
