data_mof_unit_61914.cif
_audit_creation_date              2012-12-10T18:23:07-0500
_audit_creation_method            fapswitch 2.2
_symmetry_space_group_name_H-M    P1
_symmetry_Int_Tables_number       1
_space_group_crystal_system       triclinic
_cell_length_a                    21.630019
_cell_length_b                    21.762836
_cell_length_c                    21.98721
_cell_angle_alpha                 60.965096
_cell_angle_beta                  119.073916
_cell_angle_gamma                 89.195068
_cell_volume                      7474.16858697

loop_
_atom_site_label
_atom_site_type_symbol
_atom_type_description
_atom_site_fract_x
_atom_site_fract_y
_atom_site_fract_z
_atom_type_partial_charge
C1    C     C_R   0.622395 0.498369 0.502485 0.990574
C2    C     C_3   0.290190 0.708865 0.082776 -0.038975
C3    C     C_3   0.239388 0.705359 0.972116 -0.278563
C4    C     C_3   0.208528 0.790985 0.917341 -0.085250
C5    C     C_3   0.214065 0.704423 0.027629 -0.194170
C6    C     C_3   0.183363 0.790348 0.971820 0.313144
C7    C     C_1   0.335050 0.663234 0.173738 0.110260
C8    C     C_1   0.163209 0.836206 0.826347 0.139013
C9    C     C_3   0.706180 0.444706 0.479983 -0.322309
C10   C     C_3   0.775478 0.448758 0.476907 -0.295057
C11   C     C_3   0.680308 0.577922 0.433881 0.200296
C12   C     C_R   0.417527 0.580974 0.337937 0.963262
C13   C     C_3   0.762988 0.468604 0.596091 0.602917
C14   C     C_3   0.691402 0.497347 0.503870 -0.238364
C15   C     C_3   0.811031 0.500855 0.501773 -0.127793
C16   C     C_3   0.754077 0.580232 0.440184 -0.371216
C17   C     C_3   0.832079 0.472772 0.591176 -0.414117
C18   C     C_3   0.711038 0.214978 0.027895 0.404853
C19   C     C_3   0.685803 0.300726 0.971228 -0.211301
C20   C     C_1   0.624075 0.374951 0.751067 -0.062910
C21   C     C_1   0.874215 0.129521 0.248945 0.029965
C22   C     C_3   0.730353 0.207768 0.972139 -0.279466
C23   C     C_R   0.376990 0.502715 0.496197 0.922196
C24   C     C_3   0.707173 0.293271 0.917064 -0.049206
C25   C     C_3   0.810429 0.206072 0.027228 0.310686
C26   C     C_3   0.790966 0.212038 0.082872 -0.190226
C27   C     C_3   0.787572 0.291576 0.970549 -0.208917
C28   C     C_3   0.766924 0.296915 0.026322 0.382126
C29   C     C_1   0.661550 0.337895 0.826173 0.115335
C30   C     C_1   0.836652 0.167218 0.173881 0.201787
C31   C     C_3   0.253395 0.482433 0.437330 0.037546
C32   C     C_3   0.181094 0.489437 0.434243 -0.341252
C33   C     C_3   0.330323 0.447528 0.586167 0.041294
C34   C     C_R   0.579916 0.419111 0.662053 0.963871
C35   C     C_3   0.263552 0.588781 0.459996 0.548326
C36   C     C_3   0.308083 0.506328 0.495041 -0.220247
C37   C     C_3   0.188698 0.505800 0.498329 -0.148317
C38   C     C_3   0.260209 0.447126 0.587594 -0.408425
C39   C     C_3   0.197903 0.583582 0.472609 -0.010541
C40   C     C_R   0.000928 0.877892 0.501556 0.976653
C41   C     C_R   0.081096 0.918262 0.662223 0.975412
C42   C     C_R   0.001435 0.119985 0.502043 0.962276
C43   C     C_R   0.918856 0.083639 0.337935 0.938845
C44   C     C_R   0.999297 0.378590 0.499446 1.024404
C45   C     C_3   0.284221 0.794589 0.973209 0.390090
C46   C     C_R   0.878416 0.501357 0.500217 0.950221
C47   C     C_R   0.998201 0.621578 0.499814 0.977495
C48   C     C_R   0.121478 0.502799 0.499950 0.996802
C49   C     C_3   0.960448 0.830763 0.407813 0.109657
C50   C     C_3   0.944867 0.762026 0.405742 0.167160
C51   C     C_3   0.082276 0.757993 0.549805 0.219204
C52   C     C_3   0.961339 0.763794 0.544669 0.129443
C53   C     C_3   0.999900 0.810089 0.500740 -0.307190
C54   C     C_3   0.996155 0.689837 0.498921 -0.200456
C55   C     C_3   0.077973 0.692684 0.538358 -0.609093
C56   C     C_3   0.259581 0.794484 0.028387 -0.256136
C57   C     C_3   0.972889 0.687414 0.556774 0.100099
C58   C     C_3   0.077827 0.168198 0.591868 0.505861
C59   C     C_3   0.078150 0.245873 0.580384 0.118895
C60   C     C_3   0.995208 0.253800 0.419335 0.177282
C61   C     C_3   0.934908 0.215091 0.498767 -0.502829
C62   C     C_3   0.005521 0.186647 0.504397 -0.321819
C63   C     C_3   0.001811 0.311188 0.497787 -0.342296
C64   C     C_3   0.994421 0.326143 0.417381 0.138133
C65   C     C_3   0.931944 0.287820 0.494998 0.079122
C66   C     C_1   0.372511 0.625471 0.248862 -0.018730
C67   C     C_1   0.125646 0.873665 0.751247 0.002080
C68   C     C_3   0.315804 0.709265 0.028694 0.282752
H1    H     H_    0.268391 0.830495 0.052261 0.221471
H2    H     H_    0.757325 0.470964 0.411566 0.289924
H3    H     H_    0.745317 0.606966 0.377633 0.249502
H4    H     H_    0.877174 0.417919 0.637908 0.237594
H5    H     H_    0.858394 0.509951 0.608651 0.241101
H6    H     H_    0.664518 0.619079 0.443799 0.204922
H7    H     H_    0.776234 0.615649 0.462828 0.248643
H8    H     H_    0.633963 0.340123 0.947370 0.222720
H9    H     H_    0.818793 0.323546 0.946076 0.231197
H10   H     H_    0.714878 0.171304 0.949065 0.205451
H11   H     H_    0.240151 0.518681 0.372829 0.207224
H12   H     H_    0.133622 0.534005 0.369371 0.245052
H13   H     H_    0.167577 0.437477 0.448407 0.270920
H14   H     H_    0.356072 0.391406 0.605229 0.210584
H15   H     H_    0.256077 0.390404 0.610285 0.259059
H16   H     H_    0.213606 0.586631 0.527117 0.153226
H17   H     H_    0.265859 0.458701 0.633771 0.232228
H18   H     H_    0.004682 0.838156 0.394994 0.099436
H19   H     H_    0.185509 0.666998 0.051377 0.206661
H20   H     H_    0.965997 0.758024 0.370115 0.110654
H21   H     H_    0.110409 0.790363 0.520284 0.170893
H22   H     H_    0.096296 0.700314 0.496595 0.210087
H23   H     H_    0.989658 0.753454 0.608147 0.166720
H24   H     H_    0.020985 0.646460 0.622645 0.193092
H25   H     H_    0.117803 0.638928 0.599586 0.271250
H26   H     H_    0.230834 0.669593 0.947951 0.222189
H27   H     H_    0.078755 0.241108 0.633186 0.142947
H28   H     H_    0.884188 0.222772 0.442553 0.232509
H29   H     H_    0.930177 0.173455 0.549979 0.278145
H30   H     H_    0.935061 0.278333 0.550886 0.182673
H31   H     H_    0.936475 0.265812 0.369574 0.141882
H32   H     H_    0.938871 0.368082 0.361907 0.206614
H33   H     H_    0.657349 0.459997 0.418044 0.263528
H34   H     H_    0.713335 0.386514 0.524136 0.252020
H35   H     H_    0.817126 0.392057 0.519607 0.228324
O1    O     O_R   0.592630 0.447740 0.499990 -0.586620
O2    O     O_R   0.947670 0.907410 0.499960 -0.573211
O3    O     O_R   0.113890 0.938270 0.623230 -0.571294
O4    O     O_R   0.009320 0.938380 0.623210 -0.611921
O5    O     O_R   0.052330 0.092440 0.500040 -0.526766
O6    O     O_R   0.947760 0.092550 0.500030 -0.629822
O7    O     O_R   0.990680 0.061470 0.376790 -0.557436
O8    O     O_R   0.886110 0.061580 0.376770 -0.595951
O9    O     O_R   0.034860 0.372650 0.569600 -0.612115
O10   O     O_R   0.965300 0.442140 0.430470 -0.563537
O11   O     O_R   0.942170 0.465260 0.569550 -0.633613
O12   O     O_R   0.592590 0.552250 0.500040 -0.587756
O13   O     O_R   0.872610 0.534760 0.430420 -0.578155
O14   O     O_R   0.034700 0.557860 0.569530 -0.626089
O15   O     O_R   0.965140 0.627350 0.430400 -0.608387
O16   O     O_R   0.127390 0.465250 0.569580 -0.600303
O17   O     O_R   0.057830 0.534740 0.430450 -0.591843
O18   O     O_R   0.438420 0.509360 0.376750 -0.612762
O19   O     O_R   0.438370 0.613870 0.376810 -0.572610
O20   O     O_R   0.407410 0.447750 0.499960 -0.594907
O21   O     O_R   0.407370 0.552260 0.500010 -0.557778
O22   O     O_R   0.561630 0.386130 0.623190 -0.602732
O23   O     O_R   0.561580 0.490640 0.623250 -0.563877
O24   O     O_R   0.052240 0.907300 0.499970 -0.603112
Zn1   Zn    Zn3+2 0.500030 0.430220 0.499960 1.119650
Zn2   Zn    Zn3+2 0.499970 0.569780 0.500040 1.195023
Zn3   Zn    Zn3+2 0.069820 0.999850 0.500010 1.209276
Zn4   Zn    Zn3+2 0.930180 1.000000 0.499990 1.142518
Zn5   Zn    Zn3+2 0.046440 0.453600 0.592900 1.090591
Zn6   Zn    Zn3+2 0.953560 0.546400 0.407100 1.134192
S1    S     S_3+6 0.605368 0.612492 0.326159 0.053055
O25   O     O_2   0.541368 0.584926 0.322287 -0.307063
O26   O     O_2   0.577394 0.696063 0.275355 -0.223425
O27   O     O_3   0.635769 0.585193 0.282853 -0.502853
H36   H     H_    0.638165 0.630434 0.241309 0.400723
S2    S     S_3+6 0.755837 0.522912 0.636311 0.067148
O28   O     O_2   0.699841 0.508912 0.658856 -0.258586
O29   O     O_2   0.830730 0.498951 0.714886 -0.209895
O30   O     O_3   0.732189 0.614631 0.567510 -0.568219
H37   H     H_    0.732170 0.637495 0.596986 0.416524
S3    S     S_3+6 0.783602 0.371406 0.676489 0.047899
O31   O     O_2   0.820180 0.318861 0.668616 -0.311839
O32   O     O_2   0.836636 0.354968 0.762836 -0.194269
O33   O     O_3   0.706011 0.353694 0.668874 -0.576234
H38   H     H_    0.723656 0.301442 0.716681 0.386942
S4    S     S_3+6 0.329974 0.855257 0.935792 0.102859
O34   O     O_2   0.342244 0.841432 0.881223 -0.254955
O35   O     O_2   0.281992 0.934525 0.885364 -0.205673
O36   O     O_3   0.412802 0.838712 0.018473 -0.469300
H39   H     H_    0.435442 0.873348 0.993410 0.407970
S5    S     S_3+6 0.660983 0.163459 0.066860 0.103746
O37   O     O_2   0.703098 0.081769 0.120168 -0.182186
O38   O     O_2   0.653175 0.184697 0.119020 -0.242227
O39   O     O_3   0.575744 0.182974 0.985167 -0.503273
H40   H     H_    0.551181 0.152675 0.011084 0.407431
S6    S     S_3+6 0.792008 0.355516 0.063021 0.094649
O40   O     O_2   0.768573 0.341254 0.121522 -0.237590
O41   O     O_2   0.875317 0.338960 0.109026 -0.237501
O42   O     O_3   0.748648 0.444813 0.980274 -0.493364
H41   H     H_    0.765603 0.474047 0.004926 0.406769
S7    S     S_3+6 0.893281 0.143000 0.064814 0.122099
O43   O     O_2   0.960411 0.154213 0.121123 -0.186205
O44   O     O_2   0.894946 0.064434 0.113791 -0.226743
O45   O     O_3   0.895207 0.159061 0.982960 -0.449574
H42   H     H_    0.846935 0.156635 0.945370 0.354511
Br1   Br    Br    0.291303 0.381498 0.469116 -0.393066
Br2   Br    Br    0.087013 0.849624 0.929485 -0.314747
Br3   Br    Br    0.323119 0.632441 0.520025 -0.272565
S8    S     S_3+6 0.230498 0.656653 0.349976 0.072302
O46   O     O_2   0.290373 0.648149 0.335844 -0.341093
O47   O     O_2   0.162714 0.648592 0.290397 -0.283182
O48   O     O_3   0.207458 0.743211 0.326165 -0.431049
H43   H     H_    0.189598 0.776691 0.266254 0.404912
Br4   Br    Br    0.104286 0.668996 0.383168 -0.397206
Br5   Br    Br    0.409062 0.453687 0.676230 -0.416583
S9    S     S_3+6 0.892123 0.921895 0.319098 0.124920
O49   O     O_2   0.839216 0.946855 0.334422 -0.159011
O50   O     O_2   0.934426 0.975538 0.305174 -0.331299
O51   O     O_3   0.842512 0.924686 0.230165 -0.384160
H44   H     H_    0.879645 0.915359 0.219017 0.377877
S10   S     S_3+6 0.846559 0.769160 0.344865 0.152457
O52   O     O_2   0.833398 0.696592 0.383864 -0.302503
O53   O     O_2   0.794321 0.826179 0.333081 -0.082916
O54   O     O_3   0.822859 0.793983 0.249065 -0.465918
H45   H     H_    0.852119 0.750678 0.259178 0.357532
Br6   Br    Br    0.856421 0.815080 0.492748 -0.214857
Br7   Br    Br    0.897366 0.641554 0.561776 -0.376082
S11   S     S_3+6 0.145166 0.724345 0.659767 0.020639
O55   O     O_2   0.147370 0.787722 0.670018 -0.320008
O56   O     O_2   0.123482 0.668971 0.713913 -0.311539
O57   O     O_3   0.231393 0.682545 0.692826 -0.483517
H46   H     H_    0.264071 0.666861 0.752116 0.407486
S12   S     S_3+6 0.166621 0.108811 0.628274 0.171393
O58   O     O_2   0.176678 0.127725 0.559274 -0.187410
O59   O     O_2   0.233772 0.110011 0.695668 -0.166971
O60   O     O_3   0.169265 0.020085 0.673864 -0.515177
H47   H     H_    0.221026 0.990594 0.700860 0.404758
S13   S     S_3+6 0.070100 0.110644 0.681834 0.063189
O61   O     O_2   0.043480 0.048173 0.678857 -0.255826
O62   O     O_2   0.145652 0.077155 0.763318 -0.175708
O63   O     O_3   0.010973 0.159029 0.684432 -0.585920
H48   H     H_    0.042951 0.168009 0.728166 0.388210
S14   S     S_3+6 0.163486 0.269634 0.597698 0.098711
O64   O     O_2   0.148478 0.350802 0.559989 -0.348621
O65   O     O_2   0.220378 0.230360 0.690845 -0.221173
O66   O     O_3   0.200203 0.248514 0.555532 -0.403441
H49   H     H_    0.251043 0.252482 0.580756 0.406322
S15   S     S_3+6 0.038173 0.245090 0.368768 0.129681
O67   O     O_2   0.119048 0.239891 0.412170 -0.135971
O68   O     O_2   0.030069 0.181648 0.358992 -0.270895
O69   O     O_3   0.991511 0.323208 0.270850 -0.469060
H50   H     H_    0.019214 0.320117 0.246886 0.414225
Br8   Br    Br    0.055627 0.382467 0.385648 -0.280513
S16   S     S_3+6 0.838984 0.355097 0.404717 0.010027
O70   O     O_2   0.834973 0.433126 0.379856 -0.272234
O71   O     O_2   0.815233 0.353491 0.328983 -0.251988
O72   O     O_3   0.777433 0.332272 0.430698 -0.523784
H51   H     H_    0.777088 0.283458 0.438629 0.377517
Br9   Br    Br    0.412522 0.649626 0.071961 -0.250779

loop_
_geom_bond_atom_site_label_1
_geom_bond_atom_site_label_2
_ccdc_geom_bond_type
C58   C62   S    
C63   C65   S    
O39   H40   S    
C57   H24   S    
C38   H15   S    
C16   H7    S    
C35   Br3   S    
S13   O61   D    
C35   C36   S    
C18   C26   S    
C24   C27   S    
O33   H38   S    
C55   H25   S    
C60   H31   S    
O5    Zn3   S    
S1    O27   S    
C61   H28   S    
C41   C67   S    
C51   C55   S    
C8    C67   T    
C52   C53   S    
S16   O72   S    
C32   H13   S    
C50   C54   S    
C59   H27   S    
C13   S2    S    
C10   H35   S    
C42   O6    A    
C65   H30   S    
C18   C19   S    
C55   H22   S    
C2    C68   S    
C10   C15   S    
S4    O35   D    
S6    O40   D    
O12   Zn2   S    
C5    C6    S    
C11   C14   S    
S14   O65   D    
C25   S7    S    
C15   C16   S    
C23   C36   S    
C33   C36   S    
S10   O52   D    
C60   C62   S    
O17   Zn6   S    
C13   S3    S    
C58   S12   S    
C4    C8    S    
C49   C50   S    
O14   Zn5   S    
C24   C29   S    
C2    C7    S    
O51   H44   S    
C47   O15   A    
C12   O18   A    
C3    C68   S    
C45   C56   S    
C9    H34   S    
C22   C25   S    
O6    Zn4   S    
O22   Zn1   S    
S6    O41   D    
C43   O7    A    
C33   H14   S    
C42   C62   S    
O19   Zn2   S    
S5    O38   D    
C18   S5    S    
S8    O48   S    
C50   H20   S    
C4    C45   S    
S9    O51   S    
C20   C34   S    
O57   H46   S    
O27   H36   S    
O60   H47   S    
O10   Zn6   S    
C13   C14   S    
C17   H5    S    
C35   S8    S    
S13   O62   D    
S3    O33   S    
C16   H3    S    
C43   O8    A    
S12   O60   S    
C9    C10   S    
O72   H51   S    
C39   Br4   S    
S8    O47   D    
O66   H49   S    
C48   O16   A    
C20   C29   T    
S7    O45   S    
C44   C63   S    
C68   Br9   S    
C41   O3    A    
C46   O11   A    
C38   H17   S    
S11   O55   D    
C58   S13   S    
O18   Zn1   S    
O2    Zn4   S    
S4    O36   S    
O45   H42   S    
S14   O64   D    
S12   O58   D    
C23   O20   A    
O13   Zn6   S    
C31   Br1   S    
O23   Zn2   S    
C3    C5    S    
S16   O70   D    
C40   O24   A    
C12   C66   S    
C28   S6    S    
C63   C64   S    
C51   C53   S    
C5    H19   S    
C35   C39   S    
C9    C14   S    
S11   O56   D    
S15   O67   D    
C37   C38   S    
S7    O43   D    
C32   H12   S    
S3    O32   D    
C11   C16   S    
O48   H43   S    
O1    Zn1   S    
C64   H32   S    
C34   O23   A    
C45   C68   S    
O16   Zn5   S    
S6    O42   S    
C61   H29   S    
C32   C37   S    
O9    Zn5   S    
C37   C48   S    
C31   H11   S    
C19   C28   S    
C1    O1    A    
C22   H10   S    
S5    O37   D    
S1    O25   D    
O15   Zn6   S    
S5    O39   S    
C47   C54   S    
C10   H2    S    
C59   S14   S    
S12   O59   D    
S15   O68   D    
C44   O10   A    
C26   C30   S    
S13   O63   S    
C22   C24   S    
C59   C63   S    
C11   S1    S    
C4    C6    S    
S16   O71   D    
C3    C4    S    
C44   O9    A    
C51   S11   S    
S8    O46   D    
C48   O17   A    
O42   H41   S    
C6    Br2   S    
O8    Zn4   S    
O3    Zn3   S    
C54   C55   S    
C19   H8    S    
C41   O4    A    
C33   Br5   S    
O69   H50   S    
O11   Zn5   S    
C49   H18   S    
C64   Br8   S    
C31   C32   S    
C50   S10   S    
C6    C56   S    
S3    O31   D    
C27   H9    S    
C11   H6    S    
C39   H16   S    
S1    O26   D    
S2    O28   D    
C40   C53   S    
C15   C17   S    
C23   O21   A    
C1    C14   S    
C13   C17   S    
C25   C27   S    
C21   C30   T    
C26   C28   S    
C33   C38   S    
S10   O54   S    
C46   O13   A    
C60   C64   S    
O4    Zn4   S    
C18   C22   S    
C19   C24   S    
C25   C26   S    
S11   O57   S    
C57   Br7   S    
C37   C39   S    
C2    C56   S    
S4    O34   D    
C51   H21   S    
C7    C66   T    
C65   S16   S    
S2    O29   D    
S14   O66   S    
O20   Zn1   S    
C34   O22   A    
C49   C53   S    
S7    O44   D    
S2    O30   S    
S10   O53   D    
O21   Zn2   S    
O7    Zn3   S    
C3    H26   S    
C45   S4    S    
C52   Br6   S    
C61   C62   S    
C60   S15   S    
C58   C59   S    
O24   Zn3   S    
C52   C57   S    
S9    O49   D    
C2    C5    S    
C61   C65   S    
C47   O14   A    
S15   O69   S    
C12   O19   A    
O63   H48   S    
O54   H45   S    
C17   H4    S    
C9    H33   S    
C56   H1    S    
C27   C28   S    
O30   H37   S    
C52   H23   S    
C31   C36   S    
O36   H39   S    
C1    O12   A    
C15   C46   S    
S9    O50   D    
C42   O5    A    
C21   C43   S    
C40   O2    A    
C49   S9    S    
C54   C57   S    
