data_mof_unit_66478.cif
_audit_creation_date              2012-10-26T17:54:04-0400
_audit_creation_method            fapswitch 2.2
_symmetry_space_group_name_H-M    P1
_symmetry_Int_Tables_number       1
_space_group_crystal_system       orthorhombic
_cell_length_a                    23.482289
_cell_length_b                    23.48229
_cell_length_c                    55.966878
_cell_angle_alpha                 90.0
_cell_angle_beta                  90.0
_cell_angle_gamma                 90.0
_cell_volume                      30861.1394647

loop_
_atom_site_label
_atom_site_type_symbol
_atom_type_description
_atom_site_fract_x
_atom_site_fract_y
_atom_site_fract_z
_atom_type_partial_charge
C1    C     C_R   0.000000 0.892932 0.000000 0.558577
C2    C     C_R   0.079875 0.433975 0.775943 -0.144782
C3    C     C_R   0.977231 0.452567 0.914165 -0.010667
C4    C     C_R   0.547433 0.022769 0.085835 -0.010667
C5    C     C_R   0.022769 0.452567 0.085835 -0.010667
C6    C     C_R   0.452567 0.977231 0.085835 -0.010667
C7    C     C_R   0.977231 0.547433 0.085835 -0.010667
C8    C     C_R   0.047433 0.477231 0.414165 -0.010667
C9    C     C_R   0.522769 0.047433 0.414165 -0.010667
C10   C     C_R   0.952567 0.522769 0.414165 -0.010667
C11   C     C_R   0.477231 0.952567 0.414165 -0.010667
C12   C     C_R   0.047433 0.522769 0.585835 -0.010667
C13   C     C_R   0.566025 0.079876 0.775943 -0.144782
C14   C     C_R   0.522769 0.952567 0.585835 -0.010667
C15   C     C_R   0.952567 0.477231 0.585835 -0.010667
C16   C     C_R   0.477231 0.047433 0.585835 -0.010667
C17   C     C_R   0.500000 0.000000 0.926704 0.015181
C18   C     C_R   1.000000 0.500000 0.926704 0.015181
C19   C     C_R   0.500000 0.000000 0.073295 0.015181
C20   C     C_R   0.000000 0.500000 0.073295 0.015181
C21   C     C_R   0.000000 0.500000 0.426704 0.015180
C22   C     C_R   0.500000 0.000000 0.426704 0.015180
C23   C     C_R   1.000000 0.500000 0.573295 0.015181
C24   C     C_R   0.920125 0.566025 0.775943 -0.144782
C25   C     C_R   0.500000 0.000000 0.573295 0.015181
C26   C     C_R   0.500000 0.000000 0.876293 0.235709
C27   C     C_R   0.000000 0.500000 0.876293 0.235709
C28   C     C_R   0.500000 0.000000 0.123707 0.235709
C29   C     C_R   1.000000 0.500000 0.123707 0.235709
C30   C     C_R   0.000000 0.500000 0.376293 0.235709
C31   C     C_R   0.500000 0.000000 0.376293 0.235709
C32   C     C_R   0.000000 0.500000 0.623707 0.235709
C33   C     C_R   0.500000 0.000000 0.623707 0.235709
C34   C     C_1   0.831982 0.000000 0.000000 -0.023608
C35   C     C_R   0.433975 0.079875 0.224057 -0.144782
C36   C     C_1   0.000000 0.831982 0.000000 -0.023608
C37   C     C_1   0.168018 0.000000 0.000000 -0.023608
C38   C     C_1   0.000000 0.168018 0.000000 -0.023608
C39   C     C_1   0.331982 0.500000 0.500000 -0.023608
C40   C     C_1   0.500000 0.331982 0.500000 -0.023608
C41   C     C_1   0.668018 0.500000 0.500000 -0.023608
C42   C     C_1   0.500000 0.668018 0.500000 -0.023608
C43   C     C_1   0.780739 0.000000 0.000000 -0.041866
C44   C     C_1   0.000000 0.780739 0.000000 -0.041866
C45   C     C_1   0.219261 0.000000 0.000000 -0.041867
C46   C     C_R   0.079876 0.566025 0.224057 -0.144782
C47   C     C_1   0.000000 0.219261 0.000000 -0.041867
C48   C     C_1   0.280739 0.500000 0.500000 -0.041866
C49   C     C_1   0.500000 0.280739 0.500000 -0.041866
C50   C     C_1   0.719261 0.500000 0.500000 -0.041867
C51   C     C_1   0.500000 0.719261 0.500000 -0.041867
C52   C     C_1   0.720776 0.000000 0.000000 -0.047313
C53   C     C_1   0.000000 0.720776 0.000000 -0.047313
C54   C     C_1   0.279224 0.000000 0.000000 -0.047313
C55   C     C_1   0.000000 0.279224 0.000000 -0.047313
C56   C     C_1   0.220776 0.500000 0.500000 -0.047313
C57   C     C_R   0.566025 0.920125 0.224057 -0.144782
C58   C     C_1   0.500000 0.220776 0.500000 -0.047313
C59   C     C_1   0.779223 0.500000 0.500000 -0.047313
C60   C     C_1   0.500000 0.779223 0.500000 -0.047313
C61   C     C_1   0.669545 0.000000 0.000000 -0.028085
C62   C     C_1   1.000000 0.669545 0.000000 -0.028085
C63   C     C_1   0.330455 0.000000 0.000000 -0.028085
C64   C     C_1   0.000000 0.330455 0.000000 -0.028085
C65   C     C_1   0.169545 0.500000 0.500000 -0.028085
C66   C     C_1   0.500000 0.169545 0.500000 -0.028085
C67   C     C_1   0.830455 0.500000 0.500000 -0.028085
C68   C     C_R   0.920124 0.433975 0.224057 -0.144782
C69   C     C_1   0.500000 0.830455 0.500000 -0.028085
C70   C     C_R   0.500000 0.000000 0.953147 0.541078
C71   C     C_R   0.000000 0.500000 0.953147 0.541078
C72   C     C_R   0.500000 0.000000 0.046853 0.541078
C73   C     C_R   1.000000 0.500000 0.046853 0.541078
C74   C     C_R   1.000000 0.500000 0.453147 0.541076
C75   C     C_R   0.500000 0.000000 0.453147 0.541076
C76   C     C_R   1.000000 0.500000 0.546853 0.541078
C77   C     C_R   0.500000 0.000000 0.546853 0.541078
C78   C     C_R   0.608628 0.000000 0.000000 0.539096
C79   C     C_R   0.933975 0.420124 0.275943 -0.144782
C80   C     C_R   0.000000 0.608628 0.000000 0.539096
C81   C     C_R   0.391372 0.000000 0.000000 0.539096
C82   C     C_R   0.000000 0.391372 0.000000 0.539096
C83   C     C_R   0.108628 0.500000 0.500000 0.539096
C84   C     C_R   0.500000 0.108628 0.500000 0.539096
C85   C     C_R   0.891372 0.500000 0.500000 0.539096
C86   C     C_R   0.500000 0.891372 0.500000 0.539096
C87   C     C_R   0.464543 0.961265 0.762664 0.016097
C88   C     C_R   0.038735 0.464543 0.762664 0.016097
C89   C     C_R   0.535457 0.038735 0.762664 0.016097
C90   C     C_R   0.579876 0.933975 0.275943 -0.144782
C91   C     C_R   0.961265 0.535457 0.762664 0.016097
C92   C     C_R   0.464542 0.038735 0.237336 0.016097
C93   C     C_R   0.038735 0.535457 0.237336 0.016097
C94   C     C_R   0.535457 0.961265 0.237336 0.016097
C95   C     C_R   0.961265 0.464543 0.237336 0.016097
C96   C     C_R   0.964543 0.461265 0.262664 0.016097
C97   C     C_R   0.538735 0.964543 0.262664 0.016097
C98   C     C_R   0.035457 0.538735 0.262664 0.016097
C99   C     C_R   0.461265 0.035457 0.262664 0.016097
C100  C     C_R   0.964543 0.538735 0.737336 0.016097
C101  C     C_R   0.066025 0.579876 0.275943 -0.144782
C102  C     C_R   0.538735 0.035457 0.737336 0.016097
C103  C     C_R   0.035457 0.461265 0.737336 0.016097
C104  C     C_R   0.461265 0.964543 0.737336 0.016097
C105  C     C_R   0.500000 1.000000 0.775232 0.033126
C106  C     C_R   0.000000 0.500000 0.775232 0.033126
C107  C     C_R   0.500000 0.000000 0.224768 0.033126
C108  C     C_R   1.000000 0.500000 0.224768 0.033126
C109  C     C_R   1.000000 0.500000 0.275232 0.033126
C110  C     C_R   0.500000 0.000000 0.275232 0.033126
C111  C     C_R   1.000000 0.500000 0.724768 0.033126
C112  C     C_R   0.107068 0.000000 0.000000 0.558577
C113  C     C_R   0.420124 0.066025 0.275943 -0.144782
C114  C     C_R   0.500000 1.000000 0.724768 0.033126
C115  C     C_3   0.595045 0.948425 0.874708 -0.252482
C116  C     C_3   0.587155 0.883961 0.873122 -0.435020
C117  C     C_3   0.051576 0.595045 0.874708 -0.252482
C118  C     C_3   0.116039 0.587155 0.873122 -0.435020
C119  C     C_3   0.404955 0.051575 0.874708 -0.252482
C120  C     C_3   0.412845 0.116039 0.873122 -0.435020
C121  C     C_3   0.948424 0.404955 0.874708 -0.252482
C122  C     C_3   0.883961 0.412845 0.873122 -0.435020
C123  C     C_3   0.595045 0.051576 0.125292 -0.252482
C124  C     C_R   0.933975 0.579876 0.724057 -0.144782
C125  C     C_3   0.587155 0.116039 0.126878 -0.435020
C126  C     C_3   0.051576 0.404954 0.125292 -0.252482
C127  C     C_3   0.116039 0.412845 0.126878 -0.435020
C128  C     C_3   0.404955 0.948424 0.125292 -0.252482
C129  C     C_3   0.412845 0.883961 0.126878 -0.435020
C130  C     C_3   0.948425 0.595045 0.125292 -0.252482
C131  C     C_3   0.883961 0.587155 0.126878 -0.435020
C132  C     C_3   0.095045 0.448425 0.374708 -0.252482
C133  C     C_3   0.087155 0.383961 0.373122 -0.435020
C134  C     C_3   0.551576 0.095045 0.374708 -0.252482
C135  C     C_R   0.579876 0.066025 0.724057 -0.144782
C136  C     C_3   0.616039 0.087155 0.373122 -0.435020
C137  C     C_3   0.904954 0.551575 0.374708 -0.252482
C138  C     C_3   0.912845 0.616039 0.373122 -0.435021
C139  C     C_3   0.448424 0.904955 0.374708 -0.252482
C140  C     C_3   0.383961 0.912845 0.373122 -0.435020
C141  C     C_3   0.095045 0.551576 0.625292 -0.252482
C142  C     C_3   0.087155 0.616039 0.626878 -0.435020
C143  C     C_3   0.551576 0.904955 0.625292 -0.252482
C144  C     C_3   0.616039 0.912845 0.626878 -0.435020
C145  C     C_3   0.904955 0.448424 0.625292 -0.252482
C146  C     C_R   0.066025 0.420124 0.724057 -0.144782
C147  C     C_3   0.912845 0.383961 0.626878 -0.435020
C148  C     C_3   0.448424 0.095045 0.625292 -0.252482
C149  C     C_3   0.383961 0.087155 0.626878 -0.435020
C150  C     C_3   0.600256 0.958013 0.927999 -0.280645
C151  C     C_3   0.639090 0.008525 0.933380 -0.429956
C152  C     C_3   0.041987 0.600256 0.927999 -0.280646
C153  C     C_3   0.991476 0.639090 0.933380 -0.429956
C154  C     C_3   0.399744 0.041987 0.927999 -0.280645
C155  C     C_3   0.360910 0.991475 0.933380 -0.429955
C156  C     C_3   0.958013 0.399744 0.927999 -0.280645
C157  C     C_R   0.420124 0.933975 0.724057 -0.144782
C158  C     C_3   0.008524 0.360910 0.933380 -0.429955
C159  C     C_3   0.600256 0.041987 0.072000 -0.280646
C160  C     C_3   0.639090 0.991476 0.066620 -0.429956
C161  C     C_3   0.041987 0.399744 0.072000 -0.280645
C162  C     C_3   0.991475 0.360910 0.066620 -0.429955
C163  C     C_3   0.399744 0.958013 0.072000 -0.280645
C164  C     C_3   0.360910 0.008524 0.066620 -0.429956
C165  C     C_3   0.958013 0.600256 0.072000 -0.280645
C166  C     C_3   0.008525 0.639090 0.066620 -0.429955
C167  C     C_3   0.100256 0.458013 0.427999 -0.280646
C168  C     C_R   0.436476 0.918701 0.800780 -0.118714
C169  C     C_3   0.139090 0.508525 0.433380 -0.429956
C170  C     C_3   0.541987 0.100256 0.427999 -0.280646
C171  C     C_3   0.491475 0.139090 0.433380 -0.429956
C172  C     C_3   0.899744 0.541987 0.427999 -0.280645
C173  C     C_3   0.860910 0.491475 0.433380 -0.429955
C174  C     C_3   0.458013 0.899744 0.427999 -0.280646
C175  C     C_3   0.508525 0.860910 0.433380 -0.429955
C176  C     C_3   0.100256 0.541987 0.572001 -0.280645
C177  C     C_3   0.139090 0.491475 0.566620 -0.429955
C178  C     C_3   0.541987 0.899744 0.572001 -0.280646
C179  C     C_R   0.081299 0.436476 0.800780 -0.118715
C180  C     C_3   0.491475 0.860910 0.566620 -0.429955
C181  C     C_3   0.899744 0.458013 0.572001 -0.280645
C182  C     C_3   0.860910 0.508525 0.566620 -0.429955
C183  C     C_3   0.458013 0.100256 0.572001 -0.280645
C184  C     C_3   0.508525 0.139090 0.566620 -0.429955
C185  C     C_R   0.563524 0.081299 0.800780 -0.118715
C186  C     C_R   0.918701 0.563524 0.800780 -0.118715
C187  C     C_R   0.436476 0.081298 0.199220 -0.118715
C188  C     C_R   0.000000 0.107068 0.000000 0.558577
C189  C     C_R   0.081299 0.563524 0.199220 -0.118715
C190  C     C_R   0.563524 0.918701 0.199220 -0.118715
C191  C     C_R   0.918701 0.436476 0.199220 -0.118715
C192  C     C_R   0.936476 0.418701 0.300780 -0.118714
C193  C     C_R   0.581299 0.936476 0.300780 -0.118715
C194  C     C_R   0.063524 0.581299 0.300780 -0.118715
C195  C     C_R   0.418701 0.063524 0.300780 -0.118714
C196  C     C_R   0.936476 0.581299 0.699220 -0.118715
C197  C     C_R   0.581299 0.063524 0.699220 -0.118715
C198  C     C_R   0.063524 0.418701 0.699220 -0.118714
C199  C     C_R   0.892932 0.000000 0.000000 0.558577
C200  C     C_R   0.418701 0.936476 0.699220 -0.118715
C201  C     C_R   0.468655 0.958838 0.813353 0.020845
C202  C     C_R   0.041162 0.468655 0.813353 0.020844
C203  C     C_R   0.531345 0.041162 0.813353 0.020845
C204  C     C_R   0.958838 0.531345 0.813353 0.020845
C205  C     C_R   0.468654 0.041162 0.186646 0.020844
C206  C     C_R   0.041162 0.531345 0.186646 0.020844
C207  C     C_R   0.531346 0.958838 0.186646 0.020845
C208  C     C_R   0.958838 0.468654 0.186646 0.020845
C209  C     C_R   0.968655 0.458838 0.313353 0.020845
C210  C     C_R   0.500000 0.392932 0.500000 0.558577
C211  C     C_R   0.541162 0.968655 0.313353 0.020844
C212  C     C_R   0.031345 0.541162 0.313353 0.020845
C213  C     C_R   0.458838 0.031345 0.313353 0.020845
C214  C     C_R   0.968655 0.541162 0.686647 0.020845
C215  C     C_R   0.541162 0.031345 0.686647 0.020844
C216  C     C_R   0.031345 0.458838 0.686647 0.020845
C217  C     C_R   0.458838 0.968655 0.686647 0.020845
C218  C     C_R   0.500000 1.000000 0.800636 -0.027351
C219  C     C_R   1.000000 0.500000 0.800636 -0.027351
C220  C     C_R   0.500000 0.000000 0.199363 -0.027351
C221  C     C_R   0.607068 0.500000 0.500000 0.558577
C222  C     C_R   1.000000 0.500000 0.199363 -0.027351
C223  C     C_R   0.000000 0.500000 0.300636 -0.027351
C224  C     C_R   0.500000 0.000000 0.300636 -0.027351
C225  C     C_R   1.000000 0.500000 0.699363 -0.027351
C226  C     C_R   0.500000 1.000000 0.699363 -0.027351
C227  C     C_R   0.470326 0.958777 0.838460 0.373132
C228  C     C_R   0.041223 0.470326 0.838460 0.373132
C229  C     C_R   0.529674 0.041223 0.838460 0.373132
C230  C     C_R   0.958777 0.529674 0.838460 0.373132
C231  C     C_R   0.470326 0.041223 0.161540 0.373132
C232  C     C_R   0.500000 0.607068 0.500000 0.558577
C233  C     C_R   0.041223 0.529674 0.161540 0.373132
C234  C     C_R   0.529674 0.958777 0.161540 0.373132
C235  C     C_R   0.958777 0.470326 0.161540 0.373132
C236  C     C_R   0.970326 0.458777 0.338460 0.373132
C237  C     C_R   0.541223 0.970326 0.338460 0.373132
C238  C     C_R   0.029674 0.541223 0.338460 0.373132
C239  C     C_R   0.458777 0.029674 0.338460 0.373132
C240  C     C_R   0.970326 0.541223 0.661540 0.373132
C241  C     C_R   0.541223 0.029674 0.661540 0.373132
C242  C     C_R   0.029674 0.458777 0.661540 0.373132
C243  C     C_R   0.392932 0.500000 0.500000 0.558577
C244  C     C_R   0.458777 0.970326 0.661540 0.373132
C245  C     C_R   0.546656 0.975971 0.888777 0.065422
C246  C     C_R   0.024029 0.546656 0.888777 0.065422
C247  C     C_R   0.453344 0.024029 0.888777 0.065422
C248  C     C_R   0.975971 0.453344 0.888777 0.065422
C249  C     C_R   0.546656 0.024029 0.111223 0.065422
C250  C     C_R   0.024029 0.453344 0.111223 0.065422
C251  C     C_R   0.453344 0.975971 0.111223 0.065422
C252  C     C_R   0.975971 0.546656 0.111223 0.065422
C253  C     C_R   0.046656 0.475971 0.388777 0.065422
C254  C     C_R   0.433975 0.920124 0.775943 -0.144782
C255  C     C_R   0.524029 0.046656 0.388777 0.065422
C256  C     C_R   0.953344 0.524029 0.388777 0.065422
C257  C     C_R   0.475971 0.953344 0.388777 0.065422
C258  C     C_R   0.046656 0.524029 0.611223 0.065422
C259  C     C_R   0.524029 0.953344 0.611223 0.065422
C260  C     C_R   0.953344 0.475971 0.611223 0.065422
C261  C     C_R   0.475971 0.046656 0.611223 0.065422
C262  C     C_R   0.547433 0.977231 0.914165 -0.010667
C263  C     C_R   0.022769 0.547433 0.914165 -0.010667
C264  C     C_R   0.452567 0.022769 0.914165 -0.010667
Cu1   Cu    Cu3+1 1.000000 0.000000 0.023160 0.942364
Cu2   Cu    Cu3+1 0.442500 0.000000 0.500000 0.922990
Cu3   Cu    Cu3+1 0.000000 0.442500 0.500000 0.922990
Cu4   Cu    Cu3+1 0.557500 0.000000 0.500000 0.922989
Cu5   Cu    Cu3+1 0.000000 0.000000 0.976840 0.942364
Cu6   Cu    Cu3+1 0.500000 0.500000 0.523160 0.942364
Cu7   Cu    Cu3+1 0.500000 0.500000 0.476840 0.942364
Cu8   Cu    Cu3+1 0.500000 0.057500 0.000000 0.922989
Cu9   Cu    Cu3+1 0.942500 0.500000 0.000000 0.922989
Cu10  Cu    Cu3+1 0.500000 0.942500 0.000000 0.922989
Cu11  Cu    Cu3+1 0.057500 0.500000 0.000000 0.922989
Cu12  Cu    Cu3+1 0.000000 0.557500 0.500000 0.922989
H1    H     H_    0.409009 0.887180 0.767568 0.109610
H2    H     H_    0.612821 0.909009 0.267568 0.109610
H3    H     H_    0.635278 0.875631 0.636075 0.136532
H4    H     H_    0.540947 0.862890 0.617484 0.138978
H5    H     H_    0.535087 0.901948 0.643764 0.170652
H6    H     H_    0.875632 0.364721 0.636075 0.136533
H7    H     H_    0.916811 0.364579 0.608877 0.152299
H8    H     H_    0.951763 0.373812 0.637298 0.197409
H9    H     H_    0.901949 0.464913 0.643764 0.170652
H10   H     H_    0.862890 0.459053 0.617484 0.138978
H11   H     H_    0.364579 0.083189 0.608877 0.152300
H12   H     H_    0.373812 0.048237 0.637298 0.197409
H13   H     H_    0.090991 0.612820 0.267568 0.109610
H14   H     H_    0.364721 0.124369 0.636075 0.136533
H15   H     H_    0.459053 0.137110 0.617484 0.138978
H16   H     H_    0.464913 0.098052 0.643764 0.170653
H17   H     H_    0.652913 0.029249 0.916512 0.161964
H18   H     H_    0.616611 0.040295 0.944645 0.175302
H19   H     H_    0.677426 0.993574 0.943155 0.141771
H20   H     H_    0.588976 0.936599 0.944949 0.175811
H21   H     H_    0.625056 0.925117 0.918453 0.139119
H22   H     H_    0.970751 0.652913 0.916513 0.161965
H23   H     H_    0.959705 0.616611 0.944645 0.175301
H24   H     H_    0.387179 0.090991 0.267568 0.109610
H25   H     H_    0.006427 0.677426 0.943155 0.141771
H26   H     H_    0.063401 0.588976 0.944949 0.175811
H27   H     H_    0.074883 0.625056 0.918453 0.139119
H28   H     H_    0.347087 0.970751 0.916512 0.161964
H29   H     H_    0.383389 0.959705 0.944645 0.175302
H30   H     H_    0.322574 0.006426 0.943155 0.141771
H31   H     H_    0.411024 0.063401 0.944949 0.175811
H32   H     H_    0.374944 0.074883 0.918453 0.139119
H33   H     H_    0.040294 0.383389 0.944645 0.175301
H34   H     H_    0.993573 0.322574 0.943155 0.141771
H35   H     H_    0.909009 0.612820 0.732432 0.109610
H36   H     H_    0.029249 0.347087 0.916512 0.161965
H37   H     H_    0.936599 0.411024 0.944949 0.175811
H38   H     H_    0.925116 0.374944 0.918453 0.139119
H39   H     H_    0.616611 0.959705 0.055355 0.175301
H40   H     H_    0.677426 0.006427 0.056845 0.141771
H41   H     H_    0.652913 0.970751 0.083487 0.161965
H42   H     H_    0.588976 0.063401 0.055051 0.175811
H43   H     H_    0.625056 0.074884 0.081547 0.139119
H44   H     H_    0.970751 0.347087 0.083487 0.161965
H45   H     H_    0.959705 0.383389 0.055355 0.175302
H46   H     H_    0.612820 0.090991 0.732432 0.109610
H47   H     H_    0.006426 0.322574 0.056845 0.141771
H48   H     H_    0.063401 0.411024 0.055051 0.175811
H49   H     H_    0.074883 0.374944 0.081547 0.139119
H50   H     H_    0.347087 0.029249 0.083487 0.161965
H51   H     H_    0.383389 0.040295 0.055355 0.175301
H52   H     H_    0.322574 0.993573 0.056845 0.141771
H53   H     H_    0.411024 0.936598 0.055051 0.175811
H54   H     H_    0.374944 0.925116 0.081547 0.139119
H55   H     H_    0.029249 0.652913 0.083487 0.161965
H56   H     H_    0.040295 0.616611 0.055355 0.175301
H57   H     H_    0.090991 0.387179 0.732432 0.109610
H58   H     H_    0.993574 0.677426 0.056845 0.141771
H59   H     H_    0.936599 0.588976 0.055051 0.175810
H60   H     H_    0.925117 0.625056 0.081547 0.139119
H61   H     H_    0.152913 0.529249 0.416513 0.161964
H62   H     H_    0.116611 0.540295 0.444645 0.175302
H63   H     H_    0.177426 0.493574 0.443155 0.141771
H64   H     H_    0.088976 0.436599 0.444949 0.175811
H65   H     H_    0.125056 0.425117 0.418453 0.139119
H66   H     H_    0.470751 0.152913 0.416513 0.161965
H67   H     H_    0.459705 0.116611 0.444645 0.175301
H68   H     H_    0.387180 0.909009 0.732432 0.109610
H69   H     H_    0.506426 0.177426 0.443155 0.141771
H70   H     H_    0.563401 0.088976 0.444949 0.175810
H71   H     H_    0.574883 0.125056 0.418453 0.139119
H72   H     H_    0.847087 0.470751 0.416513 0.161964
H73   H     H_    0.883389 0.459705 0.444645 0.175302
H74   H     H_    0.822574 0.506426 0.443155 0.141771
H75   H     H_    0.911024 0.563401 0.444949 0.175810
H76   H     H_    0.874944 0.574883 0.418453 0.139119
H77   H     H_    0.540295 0.883389 0.444645 0.175301
H78   H     H_    0.493573 0.822574 0.443155 0.141771
H79   H     H_    0.412531 0.886138 0.810112 0.162220
H80   H     H_    0.529249 0.847087 0.416513 0.161965
H81   H     H_    0.436599 0.911024 0.444949 0.175811
H82   H     H_    0.425117 0.874944 0.418453 0.139119
H83   H     H_    0.116611 0.459705 0.555354 0.175301
H84   H     H_    0.177426 0.506427 0.556845 0.141771
H85   H     H_    0.152913 0.470751 0.583487 0.161965
H86   H     H_    0.088976 0.563401 0.555051 0.175810
H87   H     H_    0.125056 0.574883 0.581547 0.139119
H88   H     H_    0.470751 0.847087 0.583487 0.161965
H89   H     H_    0.459705 0.883389 0.555354 0.175302
H90   H     H_    0.113862 0.412531 0.810112 0.162220
H91   H     H_    0.506426 0.822574 0.556845 0.141771
H92   H     H_    0.563401 0.911024 0.555051 0.175811
H93   H     H_    0.574883 0.874944 0.581547 0.139119
H94   H     H_    0.847087 0.529249 0.583487 0.161965
H95   H     H_    0.883389 0.540295 0.555354 0.175301
H96   H     H_    0.822574 0.493573 0.556845 0.141771
H97   H     H_    0.911024 0.436599 0.555051 0.175811
H98   H     H_    0.874944 0.425117 0.581547 0.139119
H99   H     H_    0.529249 0.152913 0.583487 0.161965
H100  H     H_    0.540295 0.116611 0.555354 0.175301
H101  H     H_    0.587469 0.113862 0.810112 0.162220
H102  H     H_    0.493573 0.177426 0.556845 0.141771
H103  H     H_    0.436599 0.088976 0.555051 0.175810
H104  H     H_    0.425117 0.125056 0.581547 0.139119
H105  H     H_    0.112820 0.409009 0.767568 0.109610
H106  H     H_    0.886138 0.587469 0.810112 0.162220
H107  H     H_    0.412531 0.113862 0.189888 0.162220
H108  H     H_    0.113862 0.587469 0.189888 0.162220
H109  H     H_    0.587469 0.886138 0.189888 0.162220
H110  H     H_    0.886138 0.412531 0.189888 0.162220
H111  H     H_    0.912531 0.386138 0.310112 0.162220
H112  H     H_    0.613862 0.912531 0.310112 0.162220
H113  H     H_    0.087469 0.613862 0.310112 0.162220
H114  H     H_    0.386138 0.087469 0.310112 0.162220
H115  H     H_    0.912531 0.613862 0.689888 0.162220
H116  H     H_    0.590991 0.112820 0.767568 0.109610
H117  H     H_    0.613862 0.087469 0.689888 0.162220
H118  H     H_    0.087469 0.386138 0.689888 0.162220
H119  H     H_    0.386138 0.912531 0.689888 0.162220
H120  H     H_    0.583189 0.864579 0.891123 0.152300
H121  H     H_    0.548237 0.873812 0.862702 0.197409
H122  H     H_    0.624369 0.864721 0.863925 0.136532
H123  H     H_    0.637110 0.959053 0.882516 0.138978
H124  H     H_    0.598051 0.964913 0.856236 0.170652
H125  H     H_    0.135279 0.624368 0.863925 0.136532
H126  H     H_    0.135422 0.583188 0.891123 0.152300
H127  H     H_    0.887180 0.590991 0.767568 0.109610
H128  H     H_    0.126188 0.548236 0.862702 0.197409
H129  H     H_    0.035087 0.598051 0.856236 0.170652
H130  H     H_    0.040948 0.637110 0.882516 0.138978
H131  H     H_    0.416811 0.135421 0.891123 0.152300
H132  H     H_    0.451763 0.126187 0.862702 0.197409
H133  H     H_    0.375631 0.135278 0.863925 0.136533
H134  H     H_    0.362890 0.040947 0.882516 0.138978
H135  H     H_    0.401948 0.035087 0.856236 0.170652
H136  H     H_    0.864721 0.375632 0.863925 0.136533
H137  H     H_    0.864578 0.416812 0.891123 0.152299
H138  H     H_    0.409009 0.112820 0.232432 0.109610
H139  H     H_    0.873812 0.451764 0.862702 0.197409
H140  H     H_    0.964913 0.401949 0.856236 0.170653
H141  H     H_    0.959052 0.362890 0.882516 0.138977
H142  H     H_    0.624368 0.135279 0.136075 0.136532
H143  H     H_    0.583188 0.135422 0.108877 0.152300
H144  H     H_    0.548236 0.126188 0.137298 0.197409
H145  H     H_    0.598051 0.035087 0.143764 0.170652
H146  H     H_    0.637109 0.040948 0.117484 0.138977
H147  H     H_    0.135421 0.416811 0.108877 0.152300
H148  H     H_    0.126187 0.451763 0.137298 0.197409
H149  H     H_    0.112820 0.590991 0.232432 0.109610
H150  H     H_    0.135278 0.375631 0.136075 0.136532
H151  H     H_    0.040947 0.362890 0.117484 0.138978
H152  H     H_    0.035087 0.401948 0.143764 0.170652
H153  H     H_    0.375632 0.864721 0.136075 0.136532
H154  H     H_    0.416812 0.864578 0.108877 0.152300
H155  H     H_    0.451764 0.873812 0.137298 0.197409
H156  H     H_    0.401949 0.964913 0.143764 0.170652
H157  H     H_    0.362891 0.959052 0.117484 0.138978
H158  H     H_    0.864579 0.583189 0.108877 0.152300
H159  H     H_    0.873812 0.548237 0.137298 0.197409
H160  H     H_    0.590991 0.887180 0.232432 0.109610
H161  H     H_    0.864721 0.624369 0.136075 0.136533
H162  H     H_    0.959053 0.637110 0.117484 0.138978
H163  H     H_    0.964913 0.598051 0.143764 0.170653
H164  H     H_    0.083189 0.364579 0.391123 0.152300
H165  H     H_    0.048237 0.373812 0.362702 0.197409
H166  H     H_    0.124369 0.364721 0.363925 0.136532
H167  H     H_    0.137110 0.459053 0.382516 0.138978
H168  H     H_    0.098052 0.464913 0.356236 0.170652
H169  H     H_    0.635279 0.124369 0.363925 0.136532
H170  H     H_    0.635421 0.083189 0.391123 0.152299
H171  H     H_    0.887180 0.409009 0.232432 0.109610
H172  H     H_    0.626188 0.048237 0.362702 0.197409
H173  H     H_    0.535087 0.098052 0.356236 0.170652
H174  H     H_    0.540947 0.137110 0.382516 0.138978
H175  H     H_    0.916811 0.635421 0.391123 0.152300
H176  H     H_    0.951763 0.626187 0.362702 0.197409
H177  H     H_    0.875631 0.635279 0.363925 0.136533
H178  H     H_    0.862890 0.540947 0.382516 0.138978
H179  H     H_    0.901948 0.535087 0.356236 0.170652
H180  H     H_    0.364721 0.875631 0.363925 0.136533
H181  H     H_    0.364579 0.916811 0.391123 0.152299
H182  H     H_    0.909009 0.387180 0.267568 0.109610
H183  H     H_    0.373812 0.951763 0.362702 0.197409
H184  H     H_    0.464913 0.901948 0.356236 0.170652
H185  H     H_    0.459053 0.862890 0.382516 0.138978
H186  H     H_    0.124368 0.635279 0.636075 0.136533
H187  H     H_    0.083189 0.635421 0.608877 0.152299
H188  H     H_    0.048237 0.626188 0.637298 0.197409
H189  H     H_    0.098051 0.535087 0.643764 0.170653
H190  H     H_    0.137110 0.540947 0.617484 0.138978
H191  H     H_    0.635421 0.916811 0.608877 0.152300
H192  H     H_    0.626188 0.951763 0.637298 0.197409
N1    N     N_R   0.500000 0.000000 0.850488 -0.401693
N2    N     N_R   0.000000 0.500000 0.850488 -0.401693
N3    N     N_R   0.500000 0.000000 0.149512 -0.401693
N4    N     N_R   1.000000 0.500000 0.149512 -0.401693
N5    N     N_R   1.000000 0.500000 0.350488 -0.401693
N6    N     N_R   0.500000 0.000000 0.350488 -0.401693
N7    N     N_R   1.000000 0.500000 0.649512 -0.401693
N8    N     N_R   0.500000 0.000000 0.649512 -0.401693
O1    O     O_R   0.000610 0.920310 0.019440 -0.494983
O2    O     O_R   0.579690 0.500610 0.519440 -0.494983
O3    O     O_R   0.499390 0.579690 0.519440 -0.494983
O4    O     O_R   0.420310 0.499390 0.519440 -0.494983
O5    O     O_R   0.500610 0.579690 0.480560 -0.494983
O6    O     O_R   0.579690 0.499390 0.480560 -0.494983
O7    O     O_R   0.499390 0.420310 0.480560 -0.494983
O8    O     O_R   0.420310 0.500610 0.480560 -0.494983
O9    O     O_R   0.500970 0.048820 0.964370 -0.516678
O10   O     O_R   0.951180 0.500970 0.964370 -0.516678
O11   O     O_R   0.499030 0.951180 0.964370 -0.516678
O12   O     O_R   0.079690 0.000610 0.019440 -0.494983
O13   O     O_R   0.048820 0.499030 0.964370 -0.516678
O14   O     O_R   0.500970 0.951180 0.035630 -0.516678
O15   O     O_R   0.951180 0.499030 0.035630 -0.516678
O16   O     O_R   0.499030 0.048820 0.035630 -0.516678
O17   O     O_R   0.048820 0.500970 0.035630 -0.516678
O18   O     O_R   0.000970 0.548820 0.464370 -0.516677
O19   O     O_R   0.451180 0.000970 0.464370 -0.516677
O20   O     O_R   0.999030 0.451180 0.464370 -0.516677
O21   O     O_R   0.548820 0.999030 0.464370 -0.516677
O22   O     O_R   0.000970 0.451180 0.535630 -0.516678
O23   O     O_R   0.999390 0.079690 0.019440 -0.494983
O24   O     O_R   0.451180 0.999030 0.535630 -0.516678
O25   O     O_R   0.999030 0.548820 0.535630 -0.516678
O26   O     O_R   0.548820 0.000970 0.535630 -0.516678
O27   O     O_R   0.582140 0.048820 0.999240 -0.507710
O28   O     O_R   0.951180 0.582140 0.999240 -0.507710
O29   O     O_R   0.417860 0.951180 0.999240 -0.507710
O30   O     O_R   0.048820 0.417860 0.999240 -0.507710
O31   O     O_R   0.582140 0.951180 0.000760 -0.507710
O32   O     O_R   0.951180 0.417860 0.000760 -0.507710
O33   O     O_R   0.417860 0.048820 0.000760 -0.507710
O34   O     O_R   0.920310 0.999390 0.019440 -0.494983
O35   O     O_R   0.048820 0.582140 0.000760 -0.507710
O36   O     O_R   0.082140 0.548820 0.499240 -0.507710
O37   O     O_R   0.451180 0.082140 0.499240 -0.507710
O38   O     O_R   0.917860 0.451180 0.499240 -0.507710
O39   O     O_R   0.548820 0.917860 0.499240 -0.507710
O40   O     O_R   0.082140 0.451180 0.500760 -0.507710
O41   O     O_R   0.451180 0.917860 0.500760 -0.507710
O42   O     O_R   0.917860 0.548820 0.500760 -0.507710
O43   O     O_R   0.548820 0.082140 0.500760 -0.507710
O44   O     O_2   0.441800 0.918481 0.850799 -0.519037
O45   O     O_R   0.000610 0.079690 0.980560 -0.494983
O46   O     O_2   0.081518 0.441800 0.850799 -0.519038
O47   O     O_2   0.558200 0.081518 0.850799 -0.519037
O48   O     O_2   0.918482 0.558200 0.850799 -0.519038
O49   O     O_2   0.441800 0.081518 0.149201 -0.519038
O50   O     O_2   0.081518 0.558200 0.149201 -0.519038
O51   O     O_2   0.558200 0.918482 0.149201 -0.519037
O52   O     O_2   0.918481 0.441800 0.149201 -0.519037
O53   O     O_2   0.941800 0.418481 0.350798 -0.519037
O54   O     O_2   0.581519 0.941800 0.350798 -0.519037
O55   O     O_2   0.058200 0.581519 0.350798 -0.519037
O56   O     O_R   0.079690 0.999390 0.980560 -0.494983
O57   O     O_2   0.418481 0.058200 0.350798 -0.519038
O58   O     O_2   0.941800 0.581519 0.649201 -0.519037
O59   O     O_2   0.581519 0.058200 0.649201 -0.519038
O60   O     O_2   0.058200 0.418481 0.649201 -0.519037
O61   O     O_2   0.418481 0.941800 0.649201 -0.519037
O62   O     O_R   0.999390 0.920310 0.980560 -0.494983
O63   O     O_R   0.920310 0.000610 0.980560 -0.494983
O64   O     O_R   0.500610 0.420310 0.519440 -0.494983

loop_
_geom_bond_atom_site_label_1
_geom_bond_atom_site_label_2
_ccdc_geom_bond_type
C74   O18   A    
C76   O22   A    
C205  C220  A    
C126  C127  S    
C156  H38   S    
C244  N8    A    
C142  H186  S    
C104  C157  A    
C171  H67   S    
C190  H109  S    
C221  O2    A    
C206  C233  A    
C151  H19   S    
C50   C59   S    
C182  H94   S    
Cu6   O4    S    
C123  C249  S    
C119  H134  S    
C14   C259  A    
Cu11  O17   S    
Cu5   O62   S    
C193  C211  A    
C54   C63   T    
C245  C262  A    
Cu10  O29   S    
C185  H101  S    
C143  C144  S    
C231  O49   S    
C18   C71   S    
C115  H124  S    
Cu12  O42   S    
C44   C53   S    
C82   O30   A    
C141  C258  S    
C211  C237  A    
Cu4   O39   S    
C91   C100  A    
C203  C218  A    
C234  O51   S    
C136  H169  S    
C173  H73   S    
C118  H128  S    
C106  C219  A    
C35   H138  S    
C198  C216  A    
C98   C109  A    
C166  H56   S    
C140  H181  S    
C131  H161  S    
C171  H69   S    
C175  H78   S    
C71   O13   A    
C10   C21   A    
C94   C107  A    
C67   C85   S    
C68   C95   A    
C143  H5    S    
C204  C219  A    
C128  C251  S    
Cu3   O38   S    
C231  N3    A    
C193  H112  S    
Cu2   O24   S    
C173  H72   S    
C94   C97   A    
Cu6   O64   S    
C181  C182  S    
C99   C110  A    
C141  H190  S    
C100  C124  A    
C5    C161  S    
C214  C240  A    
C183  C184  S    
C138  H177  S    
C102  C114  A    
C12   C23   A    
C179  C202  A    
C161  H49   S    
C189  C206  A    
C122  H139  S    
C168  C254  A    
C30   C253  A    
C230  O48   S    
C145  H10   S    
C159  H42   S    
C154  C155  S    
C180  H89   S    
C152  C263  S    
C240  N7    A    
C164  H50   S    
C113  H24   S    
C142  H188  S    
Cu1   O12   S    
C174  H81   S    
C36   C44   T    
C3    C248  A    
C37   C45   T    
C101  C194  A    
Cu8   O27   S    
C16   C25   A    
C201  C227  A    
C181  H98   S    
C126  H151  S    
C151  H17   S    
C123  H146  S    
C5    C250  A    
Cu6   O2    S    
C121  H140  S    
C135  C197  A    
C139  C140  S    
C80   O28   A    
C84   O43   A    
C139  H185  S    
C117  H130  S    
C172  H76   S    
C96   C109  A    
C86   O41   A    
C90   H2    S    
Cu10  O11   S    
C215  C226  A    
C158  H33   S    
C156  C158  S    
C130  C131  S    
Cu3   O20   S    
C28   C251  A    
C79   C96   A    
C147  H8    S    
C125  H143  S    
C90   C193  A    
C38   C188  S    
C32   C258  A    
C3    C156  S    
C20   C73   S    
C196  H115  S    
C120  H132  S    
C95   C108  A    
C167  H65   S    
C194  C212  A    
C4    C249  A    
Cu1   O1    S    
C118  H126  S    
C6    C163  S    
C100  C111  A    
C130  H162  S    
C140  H183  S    
C131  H159  S    
C235  O52   S    
C221  O6    A    
C200  H119  S    
C33   C261  A    
C232  O3    A    
Cu1   O34   S    
C23   C76   S    
C79   H182  S    
C152  H26   S    
C128  C129  S    
C78   O27   A    
C167  C169  S    
C5    C20   A    
C142  H187  S    
C135  H46   S    
C6    C19   A    
C133  H166  S    
C169  H62   S    
C11   C257  A    
C62   C80   S    
C134  C255  S    
C197  H117  S    
C213  C224  A    
C43   C52   S    
C170  C171  S    
Cu8   O16   S    
C208  C222  A    
C238  O55   S    
C15   C181  S    
C144  H192  S    
C108  C222  A    
C124  H35   S    
C33   N8    S    
C17   C262  A    
C119  C247  S    
C102  C135  A    
C119  H135  S    
C160  H39   S    
C59   C67   T    
C28   C249  A    
C122  H136  S    
C121  C248  S    
C155  H29   S    
C227  O44   S    
C155  H30   S    
C199  O34   A    
C61   C78   S    
Cu7   O8    S    
C109  C223  A    
C12   C176  S    
C210  O64   A    
C153  H23   S    
C177  H84   S    
C33   C259  A    
C9    C255  A    
Cu11  O13   S    
C120  H133  S    
C122  H137  S    
C167  H64   S    
C39   C243  S    
Cu9   O15   S    
C216  C242  A    
C86   O39   A    
C73   O15   A    
C176  H87   S    
C187  H107  S    
C116  H121  S    
C32   C260  A    
C143  C259  S    
C137  H178  S    
C127  H147  S    
C147  H6    S    
C202  C228  A    
C68   C191  A    
C187  C205  A    
C107  C220  A    
Cu7   O7    S    
Cu4   O43   S    
C146  C198  A    
C80   O35   A    
C77   O24   A    
C196  C214  A    
C210  O7    A    
C158  H34   S    
C87   C105  A    
C242  O60   S    
C85   O42   A    
C124  C196  A    
C243  O8    A    
C138  H175  S    
C127  H150  S    
C14   C178  S    
Cu2   Cu4   S    
C16   C261  A    
C7    C20   A    
C57   C94   A    
C30   C256  A    
C205  C231  A    
C46   C189  A    
C159  H43   S    
C1    O1    A    
C11   C174  S    
C149  H14   S    
C134  H173  S    
C34   C43   T    
C170  H70   S    
C184  H102  S    
C215  C241  A    
C103  C111  A    
C217  C226  A    
Cu2   O41   S    
C31   C255  A    
C157  C200  A    
C182  H95   S    
C17   C264  A    
C162  H44   S    
C217  C244  A    
C18   C263  A    
C117  C118  S    
C228  N2    A    
C60   C69   T    
C206  C222  A    
Cu12  O18   S    
C143  H4    S    
Cu9   Cu11  S    
C186  H106  S    
C144  H3    S    
C7    C165  S    
C184  H99   S    
C115  H123  S    
C154  C264  S    
C246  C263  A    
C153  H25   S    
C190  C207  A    
C152  C153  S    
Cu8   Cu10  S    
C191  H110  S    
C89   C105  A    
Cu3   O22   S    
C183  H104  S    
C29   N4    S    
C51   C60   S    
C212  C238  A    
C15   C260  A    
C1    C36   S    
C229  N1    A    
C42   C232  S    
C162  H47   S    
C73   O17   A    
C75   O21   A    
C239  N6    A    
C149  H11   S    
C133  H164  S    
C175  H77   S    
C110  C224  A    
C101  H13   S    
C161  C162  S    
C154  H31   S    
C207  C220  A    
C228  O46   S    
C6    C251  A    
Cu7   O5    S    
C30   N5    S    
C10   C256  A    
C201  C218  A    
C189  H108  S    
C93   C108  A    
C13   H116  S    
C123  C125  S    
C4    C159  S    
C207  C234  A    
C10   C172  S    
C148  H16   S    
C141  H189  S    
C8    C253  A    
C24   C186  A    
C214  C225  A    
Cu1   Cu5   S    
C95   C96   A    
C161  H48   S    
C81   O29   A    
C194  H113  S    
C145  H9    S    
C90   C97   A    
C46   H149  S    
C35   C92   A    
C140  H180  S    
C156  H37   S    
C200  C217  A    
C174  H82   S    
C9    C170  S    
C239  O57   S    
C145  C147  S    
C71   O10   A    
C72   O14   A    
C198  H118  S    
C181  H97   S    
Cu3   Cu12  S    
C150  H21   S    
C126  H152  S    
C123  H145  S    
Cu6   O3    S    
C13   C185  A    
C172  H75   S    
Cu5   O63   S    
C188  O23   A    
C117  H129  S    
Cu7   O6    S    
Cu9   O28   S    
C117  C246  S    
C176  H86   S    
C116  H120  S    
C111  C225  A    
C29   C252  A    
C8    C167  S    
C114  C226  A    
C147  H7    S    
Cu8   O33   S    
C125  H142  S    
C229  O47   S    
C139  H184  S    
C208  C235  A    
C121  C122  S    
C132  C253  S    
C150  C262  S    
C26   N1    S    
C173  H74   S    
Cu11  O35   S    
Cu12  O25   S    
C130  H163  S    
C1    O62   A    
C209  C223  A    
C149  H12   S    
C25   C77   S    
C41   C50   T    
C26   C247  A    
C236  O53   S    
C70   O11   A    
C177  H85   S    
C180  H91   S    
Cu5   O45   S    
C99   C113  A    
C27   N2    S    
C178  C180  S    
Cu9   O10   S    
Cu10  O14   S    
Cu11  O30   S    
C130  C252  S    
C85   O38   A    
C98   C101  A    
C7    C252  A    
Cu9   O32   S    
C216  C225  A    
C133  H165  S    
C126  C250  S    
C40   C210  S    
C169  H61   S    
C185  C203  A    
C209  C236  A    
C232  O5    A    
C27   C248  A    
Cu3   O40   S    
C148  H15   S    
C129  H153  S    
C40   C49   T    
Cu4   O26   S    
C211  C224  A    
C139  C257  S    
C254  H1    S    
C179  H90   S    
C14   C25   A    
C129  H154  S    
C192  C209  A    
C195  C213  A    
C137  C256  S    
C160  H40   S    
C87   C104  A    
C84   O37   A    
C35   C187  A    
C105  C218  A    
C233  O50   S    
Cu6   Cu7   S    
C163  H53   S    
C68   H171  S    
C141  C142  S    
C171  H66   S    
C41   C221  S    
C115  C116  S    
C39   C48   T    
C115  C245  S    
C153  H22   S    
C177  H83   S    
C165  C166  S    
C97   C110  A    
C89   C102  A    
C151  H18   S    
C31   C257  A    
C243  O4    A    
C241  N8    A    
C163  C164  S    
C178  H93   S    
C121  H141  S    
C16   C183  S    
C72   O16   A    
C83   O40   A    
C233  N4    A    
C78   O31   A    
C63   C81   S    
C146  H57   S    
C116  H122  S    
C240  O58   S    
C9    C22   A    
C65   C83   S    
C125  H144  S    
C56   C65   T    
Cu8   O9    S    
C195  H114  S    
C168  C201  A    
C180  H88   S    
C3    C18   A    
C37   C112  S    
C227  N1    A    
Cu5   O56   S    
C174  C175  S    
C4    C19   A    
C34   C199  S    
C58   C66   T    
C118  H125  S    
C159  C160  S    
C132  C133  S    
C120  H131  S    
C24   H127  S    
C155  H28   S    
C57   H160  S    
C2    C88   A    
C138  H176  S    
C148  C261  S    
C247  C264  A    
C197  C215  A    
C192  H111  S    
C188  O45   A    
C168  H79   S    
C15   C23   A    
C70   O9    A    
C17   C70   S    
C145  C260  S    
C113  C195  A    
C91   C106  A    
C19   C72   S    
C12   C258  A    
C22   C75   S    
C236  N5    A    
C160  H41   S    
Cu12  O36   S    
C87   C254  A    
C74   O20   A    
Cu2   O37   S    
C169  H63   S    
C2    H105  S    
C164  H52   S    
C134  H174  S    
C148  C149  S    
C170  H71   S    
C27   C246  A    
C203  C229  A    
C129  H155  S    
C157  H68   S    
C134  C136  S    
C128  H157  S    
C81   O33   A    
C199  O63   A    
C165  H59   S    
C21   C74   S    
C144  H191  S    
C49   C58   S    
C182  H96   S    
C202  C219  A    
C88   C106  A    
C53   C62   T    
C241  O59   S    
C92   C107  A    
C75   O19   A    
C76   O25   A    
C164  H51   S    
Cu10  O31   S    
C55   C64   T    
C8    C21   A    
C244  O61   S    
C186  C204  A    
C163  H54   S    
C119  C120  S    
C32   N7    S    
C184  H100  S    
C64   C82   S    
C38   C47   T    
C104  C114  A    
C162  H45   S    
C82   O32   A    
C176  C177  S    
C136  H172  S    
C45   C54   S    
C112  O56   A    
C183  H103  S    
C2    C179  A    
Cu1   O23   S    
C24   C91   A    
C88   C103  A    
C172  C173  S    
C47   C55   S    
C77   O26   A    
C48   C56   S    
C166  H58   S    
C13   C89   A    
C150  C151  S    
C158  H36   S    
C175  H80   S    
C137  H179  S    
C127  H148  S    
C213  C239  A    
C112  O12   A    
C52   C61   T    
C132  H168  S    
C26   C245  A    
C237  O54   S    
C237  N6    A    
C42   C51   T    
C154  H32   S    
C137  C138  S    
C83   O36   A    
C11   C22   A    
C242  N7    A    
C79   C192  A    
C31   N6    S    
C150  H20   S    
C29   C250  A    
C28   N3    S    
C178  H92   S    
C57   C190  A    
C166  H55   S    
C234  N3    A    
C46   C93   A    
C132  H167  S    
C165  H60   S    
C131  H158  S    
C191  C208  A    
C204  C230  A    
C128  H156  S    
C235  N4    A    
C66   C84   S    
Cu2   O19   S    
C92   C99   A    
Cu4   O21   S    
C136  H170  S    
C238  N5    A    
C152  H27   S    
C93   C98   A    
C230  N2    A    
C69   C86   S    
C103  C146  A    
C212  C223  A    
