data_mof_unit_26908.cif
_audit_creation_date              2012-12-10T17:21:14-0500
_audit_creation_method            fapswitch 2.2
_symmetry_space_group_name_H-M    P1
_symmetry_Int_Tables_number       1
_space_group_crystal_system       triclinic
_cell_length_a                    18.346435
_cell_length_b                    25.900518
_cell_length_c                    18.305647
_cell_angle_alpha                 89.897936
_cell_angle_beta                  89.851724
_cell_angle_gamma                 89.941821
_cell_volume                      8698.46969094

loop_
_atom_site_label
_atom_site_type_symbol
_atom_type_description
_atom_site_fract_x
_atom_site_fract_y
_atom_site_fract_z
_atom_type_partial_charge
C1    C     C_R   0.390112 0.250134 0.139612 0.479741
C2    C     C_R   0.397111 0.123351 0.716224 0.271175
C3    C     C_R   0.083602 0.121193 0.285280 -0.096971
C4    C     C_R   0.428992 0.853154 0.370381 -0.099340
C5    C     C_R   0.599039 0.369063 0.797077 -0.103580
C6    C     C_R   0.431107 0.145862 0.370054 -0.096745
C7    C     C_R   0.583494 0.621180 0.785160 -0.097330
C8    C     C_R   0.978529 0.312408 0.873837 0.287303
C9    C     C_R   0.101880 0.829794 0.244188 0.302065
C10   C     C_R   0.981712 0.686346 0.872830 0.290646
C11   C     C_R   0.092848 0.162664 0.237044 0.294230
C12   C     C_R   0.480264 0.813108 0.372850 0.289658
C13   C     C_R   0.553712 0.365711 0.134433 0.268919
C14   C     C_R   0.608292 0.325940 0.751251 0.298327
C15   C     C_R   0.481662 0.186266 0.372709 0.290608
C16   C     C_R   0.592846 0.662700 0.737043 0.293957
C17   C     C_R   0.190287 0.053932 0.878925 -0.073577
C18   C     C_R   0.187958 0.946808 0.879736 -0.101855
C19   C     C_R   0.686951 0.553890 0.380710 -0.075166
C20   C     C_R   0.684837 0.446812 0.381650 -0.101575
C21   C     C_R   0.160340 0.027353 0.820200 -0.111303
C22   C     C_R   0.158980 0.973814 0.820707 -0.116430
C23   C     C_R   0.655305 0.527285 0.322941 -0.115039
C24   C     C_R   0.400172 0.876851 0.716542 0.261702
C25   C     C_R   0.654003 0.473770 0.323549 -0.120469
C26   C     C_R   0.218480 0.973037 0.940290 -0.002214
C27   C     C_R   0.219223 0.027302 0.940071 0.009896
C28   C     C_R   0.717128 0.473065 0.441301 0.001749
C29   C     C_R   0.717669 0.527314 0.441060 0.009664
C30   C     C_R   0.249958 0.946279 0.999777 0.007674
C31   C     C_R   0.250691 0.053691 0.999677 0.018183
C32   C     C_R   0.750985 0.446360 0.499545 0.005087
C33   C     C_R   0.750510 0.553752 0.499876 0.017100
C34   C     C_R   0.283138 0.972630 0.058457 0.012876
C35   C     C_R   0.063045 0.141523 0.626079 0.272912
C36   C     C_R   0.283840 0.026939 0.058239 0.016790
C37   C     C_R   0.787185 0.472862 0.556520 0.007800
C38   C     C_R   0.785604 0.527141 0.557403 0.018150
C39   C     C_R   0.315166 0.945939 0.118068 -0.080201
C40   C     C_R   0.317350 0.053178 0.117222 -0.082794
C41   C     C_R   0.824371 0.446533 0.613481 -0.105296
C42   C     C_R   0.818971 0.553557 0.616371 -0.081041
C43   C     C_R   0.350218 0.972601 0.173724 -0.124721
C44   C     C_R   0.351422 0.026064 0.173228 -0.128101
C45   C     C_R   0.858587 0.473365 0.669454 -0.129707
C46   C     C_R   0.899802 0.621765 0.219825 0.271160
C47   C     C_R   0.855748 0.526774 0.670976 -0.126761
C48   C     C_R   0.250133 0.109356 0.000122 0.490295
C49   C     C_R   0.249967 0.890633 0.999766 0.486667
C50   C     C_R   0.750089 0.609378 0.500127 0.490673
C51   C     C_R   0.750165 0.390686 0.499852 0.459112
C52   C     C_R   0.250140 0.391288 0.000119 0.497970
C53   C     C_R   0.249936 0.608672 0.999973 0.495919
C54   C     C_R   0.750006 0.891292 0.500121 0.497914
C55   C     C_R   0.749855 0.108675 0.499968 0.494573
C56   C     C_3   0.201755 0.470368 0.059940 -0.252850
C57   C     C_R   0.055117 0.864312 0.632470 0.268420
C58   C     C_3   0.217732 0.529451 0.929795 -0.247757
C59   C     C_3   0.209577 0.529339 0.065440 -0.244953
C60   C     C_3   0.226856 0.470556 0.926375 -0.244596
C61   C     C_3   0.703377 0.970398 0.561484 -0.253005
C62   C     C_3   0.715360 0.029468 0.430965 -0.247986
C63   C     C_3   0.711465 0.029365 0.566774 -0.244534
C64   C     C_3   0.724440 0.970565 0.427236 -0.244408
C65   C     C_3   0.336048 0.468848 0.016638 0.053708
C66   C     C_3   0.337375 0.530927 0.003993 0.045708
C67   C     C_3   0.836299 0.968864 0.514192 0.054550
C68   C     C_R   0.899810 0.376675 0.216398 0.262039
C69   C     C_3   0.837313 0.030922 0.501352 0.045335
C70   C     C_3   0.254985 0.448970 0.000866 0.083157
C71   C     C_3   0.254912 0.550902 0.999940 0.082443
C72   C     C_3   0.754815 0.948982 0.500825 0.082913
C73   C     C_3   0.754763 0.050914 0.499874 0.081895
C74   C     C_R   0.124241 0.181134 0.729715 -0.035813
C75   C     C_R   0.006793 0.656581 0.156817 -0.043592
C76   C     C_R   0.121111 0.821969 0.730965 -0.038340
C77   C     C_R   0.006646 0.341479 0.154857 -0.047955
C78   C     C_R   0.623578 0.680007 0.230326 -0.036571
C79   C     C_R   0.504164 0.674672 0.135421 -0.078337
C80   C     C_R   0.505447 0.157656 0.654849 -0.043184
C81   C     C_R   0.620401 0.322676 0.232081 -0.035925
C82   C     C_R   0.506593 0.841416 0.654626 -0.047569
C83   C     C_R   0.121253 0.143835 0.674337 -0.084329
C84   C     C_R   0.954436 0.617569 0.167133 -0.086379
C85   C     C_R   0.115498 0.860797 0.677631 -0.080212
C86   C     C_R   0.952927 0.379836 0.163019 -0.068826
C87   C     C_R   0.619768 0.642184 0.175735 -0.084609
C88   C     C_R   0.451891 0.119274 0.663579 -0.086374
C89   C     C_R   0.614131 0.362199 0.179908 -0.084295
C90   C     C_R   0.397376 0.165595 0.762365 -0.070351
C91   C     C_R   0.453068 0.879882 0.662934 -0.069728
C92   C     C_3   0.960988 0.270379 0.980563 -0.106224
C93   C     C_3   0.214636 0.798126 0.264411 -0.117957
C94   C     C_3   0.961220 0.728125 0.979104 -0.112832
C95   C     C_3   0.213403 0.164418 0.208706 -0.106836
C96   C     C_3   0.460429 0.770559 0.478820 -0.111787
C97   C     C_3   0.699345 0.358780 0.677941 -0.100006
C98   C     C_3   0.461195 0.228139 0.478919 -0.113000
C99   C     C_3   0.713492 0.664887 0.709242 -0.107392
C100  C     C_3   0.359297 0.453708 0.096260 -0.368873
C101  C     C_R   0.498520 0.329316 0.140443 -0.079922
C102  C     C_3   0.378387 0.546300 0.932111 -0.383717
C103  C     C_3   0.380021 0.560088 0.065098 -0.358093
C104  C     C_3   0.392032 0.439585 0.967211 -0.373708
C105  C     C_3   0.861770 0.953763 0.593123 -0.369552
C106  C     C_3   0.876087 0.046143 0.428155 -0.382624
C107  C     C_3   0.881896 0.060157 0.560998 -0.358432
C108  C     C_3   0.890836 0.939546 0.463280 -0.376217
C109  C     C_3   0.196764 0.185143 0.768359 -0.390975
C110  C     C_3   0.064897 0.643444 0.100960 -0.363086
C111  C     C_3   0.194767 0.817213 0.767246 -0.393472
C112  C     C_R   0.389672 0.750011 0.860217 0.478156
C113  C     C_R   0.397868 0.833769 0.761630 -0.090996
C114  C     C_3   0.064968 0.354988 0.099301 -0.360064
C115  C     C_3   0.696471 0.684261 0.268286 -0.390731
C116  C     C_3   0.564507 0.144013 0.600206 -0.361861
C117  C     C_3   0.694258 0.317798 0.267942 -0.392686
C118  C     C_3   0.564625 0.854700 0.598662 -0.360258
C119  C     C_3   0.608523 0.612081 0.019896 -0.138606
C120  C     C_3   0.316129 0.065195 0.664767 -0.143058
C121  C     C_3   0.594454 0.398287 0.026478 -0.137808
C122  C     C_3   0.359577 0.944290 0.784991 -0.116163
C123  C     C_3   0.111703 0.115189 0.517915 -0.137226
C124  C     C_R   0.005533 0.175893 0.634005 -0.077935
C125  C     C_3   0.817163 0.564671 0.169426 -0.143188
C126  C     C_3   0.079143 0.886178 0.515187 -0.139745
C127  C     C_3   0.856463 0.442867 0.285912 -0.115321
C128  C     C_R   0.899210 0.664581 0.264858 -0.070499
C129  C     C_R   0.999276 0.828420 0.639199 -0.086733
C130  C     C_R   0.897508 0.333509 0.261367 -0.090589
C131  C     C_R   0.504080 0.712455 0.191101 -0.043766
C132  C     C_R   0.448764 0.206019 0.755339 -0.045639
C133  C     C_R   0.501529 0.289411 0.193203 -0.043801
C134  C     C_R   0.449552 0.793351 0.755488 -0.039801
C135  C     C_R   0.004541 0.213089 0.690515 -0.045943
C136  C     C_R   0.390185 0.749802 0.139511 0.480310
C137  C     C_R   0.949648 0.705506 0.256540 -0.045101
C138  C     C_R   0.001826 0.789017 0.692706 -0.042592
C139  C     C_R   0.949442 0.293245 0.255429 -0.039264
C140  C     C_R   0.062505 0.214737 0.741950 -0.005184
C141  C     C_R   0.004472 0.702791 0.201557 -0.018831
C142  C     C_R   0.060714 0.787302 0.743080 -0.005839
C143  C     C_R   0.004764 0.295635 0.200950 -0.015035
C144  C     C_R   0.562302 0.714033 0.242271 -0.006088
C145  C     C_R   0.503865 0.203347 0.700686 -0.019047
C146  C     C_R   0.560404 0.287607 0.243558 -0.005663
C147  C     C_R   0.389630 0.250090 0.860042 0.479152
C148  C     C_R   0.504756 0.795643 0.700866 -0.014756
C149  C     C_R   0.447726 0.749696 0.194502 0.015584
C150  C     C_R   0.444291 0.249262 0.802198 0.017457
C151  C     C_R   0.447497 0.250532 0.194835 0.020130
C152  C     C_R   0.445284 0.750620 0.803325 0.020832
C153  C     C_R   0.947100 0.249381 0.694763 0.019583
C154  C     C_R   0.943972 0.749518 0.301868 0.016872
C155  C     C_R   0.947460 0.750414 0.694841 0.020406
C156  C     C_R   0.945293 0.250566 0.303350 0.020826
C157  C     C_R   0.446330 0.787283 0.249916 -0.027299
C158  C     C_R   0.890011 0.750025 0.639702 0.479557
C159  C     C_R   0.493229 0.290836 0.796325 -0.023166
C160  C     C_R   0.447287 0.212447 0.249840 -0.021141
C161  C     C_R   0.492953 0.708286 0.797374 -0.022674
C162  C     C_R   0.943480 0.285716 0.751624 -0.023040
C163  C     C_R   0.989889 0.792536 0.292468 -0.024913
C164  C     C_R   0.947243 0.712434 0.749965 -0.021718
C165  C     C_R   0.993051 0.208285 0.297479 -0.022814
C166  C     C_R   0.993238 0.282266 0.810043 0.009010
C167  C     C_R   0.048354 0.789490 0.242678 0.009156
C168  C     C_R   0.995560 0.717041 0.809238 0.011667
C169  C     C_R   0.889707 0.249966 0.360260 0.479517
C170  C     C_R   0.046610 0.207611 0.241840 0.011968
C171  C     C_R   0.494838 0.782865 0.309146 0.013083
C172  C     C_R   0.552150 0.287596 0.746970 0.028864
C173  C     C_R   0.495579 0.216972 0.309149 0.011511
C174  C     C_R   0.546570 0.707628 0.741795 0.011589
C175  C     C_R   0.054795 0.248843 0.803148 0.021099
C176  C     C_R   0.053254 0.746104 0.195031 0.003491
C177  C     C_R   0.055212 0.751870 0.803099 0.020504
C178  C     C_R   0.052887 0.251760 0.194634 0.007717
C179  C     C_R   0.555269 0.748561 0.302987 0.021064
C180  C     C_R   0.890226 0.249561 0.639308 0.489483
C181  C     C_R   0.554084 0.245950 0.695954 0.017636
C182  C     C_R   0.555168 0.251851 0.303170 0.020090
C183  C     C_R   0.552859 0.751764 0.694583 0.007822
C184  C     C_R   0.395341 0.828291 0.248829 -0.133742
C185  C     C_R   0.485626 0.335169 0.840926 -0.117878
C186  C     C_R   0.397408 0.170968 0.248491 -0.123375
C187  C     C_R   0.487568 0.666199 0.846776 -0.114036
C188  C     C_R   0.889057 0.324552 0.752442 -0.098236
C189  C     C_R   0.979843 0.838345 0.333675 -0.125744
C190  C     C_R   0.897506 0.670874 0.748626 -0.124044
C191  C     C_R   0.889834 0.750356 0.360210 0.477301
C192  C     C_R   0.987765 0.166248 0.346977 -0.114141
C193  C     C_R   0.387680 0.861177 0.308231 -0.190508
C194  C     C_R   0.536820 0.374416 0.839172 -0.182451
C195  C     C_R   0.390145 0.137759 0.307753 -0.186142
C196  C     C_R   0.531745 0.623153 0.839850 -0.187695
C197  C     C_R   0.882013 0.358024 0.811163 -0.171614
C198  C     C_R   0.027242 0.879827 0.326501 -0.190655
C199  C     C_R   0.890424 0.637617 0.807852 -0.186526
C200  C     C_R   0.031974 0.123220 0.340083 -0.187473
C201  C     C_R   0.110009 0.250055 0.860087 0.565338
C202  C     C_R   0.561135 0.639755 0.127949 0.272107
C203  C     C_R   0.108558 0.747842 0.138191 0.554739
C204  C     C_R   0.110574 0.750551 0.859691 0.564574
C205  C     C_R   0.109247 0.251054 0.138987 0.540388
C206  C     C_R   0.610339 0.749782 0.359880 0.564670
C207  C     C_R   0.608793 0.247994 0.638505 0.554330
C208  C     C_R   0.610525 0.250502 0.359750 0.567312
C209  C     C_R   0.609245 0.751051 0.638978 0.541098
C210  C     C_R   0.925765 0.351573 0.872017 -0.099058
C211  C     C_R   0.088851 0.875202 0.283226 -0.090176
C212  C     C_R   0.931319 0.645833 0.870174 -0.096854
H1    H     H_    0.210507 0.452543 0.114453 0.137399
H2    H     H_    0.440386 0.340047 0.878184 0.133764
H3    H     H_    0.437502 0.537784 0.936427 0.122608
H4    H     H_    0.357848 0.525949 0.883256 0.123468
H5    H     H_    0.373824 0.588299 0.921212 0.144652
H6    H     H_    0.353525 0.557487 0.119338 0.127633
H7    H     H_    0.436441 0.544994 0.069636 0.180642
H8    H     H_    0.385414 0.601778 0.052051 0.142472
H9    H     H_    0.379317 0.442224 0.908293 0.117027
H10   H     H_    0.447998 0.454541 0.976019 0.148120
H11   H     H_    0.393895 0.397791 0.980905 0.129812
H12   H     H_    0.830308 0.973420 0.636585 0.115245
H13   H     H_    0.364067 0.163719 0.201402 0.106793
H14   H     H_    0.857766 0.911661 0.602978 0.163337
H15   H     H_    0.920128 0.963233 0.601535 0.168828
H16   H     H_    0.853849 0.025840 0.380017 0.124470
H17   H     H_    0.871582 0.088153 0.417353 0.146874
H18   H     H_    0.935236 0.037409 0.430538 0.121352
H19   H     H_    0.938468 0.045089 0.563748 0.178752
H20   H     H_    0.886803 0.101863 0.547758 0.139952
H21   H     H_    0.857139 0.057593 0.616056 0.129108
H22   H     H_    0.947010 0.954553 0.470424 0.142600
H23   H     H_    0.893170 0.897787 0.477106 0.126115
H24   H     H_    0.448790 0.665758 0.891351 0.126310
H25   H     H_    0.876374 0.942085 0.404760 0.119512
H26   H     H_    0.220022 0.224223 0.760256 0.160798
H27   H     H_    0.191971 0.175450 0.826901 0.125647
H28   H     H_    0.237493 0.157802 0.745750 0.133656
H29   H     H_    0.071666 0.674055 0.059609 0.175364
H30   H     H_    0.116707 0.634530 0.129258 0.170690
H31   H     H_    0.051188 0.608428 0.068875 0.099241
H32   H     H_    0.191645 0.825948 0.826177 0.120268
H33   H     H_    0.217502 0.778101 0.757775 0.160176
H34   H     H_    0.234853 0.844810 0.744007 0.144412
H35   H     H_    0.851499 0.329566 0.707654 0.129170
H36   H     H_    0.116161 0.364888 0.127976 0.171396
H37   H     H_    0.073144 0.324286 0.058479 0.179030
H38   H     H_    0.050780 0.389706 0.066550 0.098452
H39   H     H_    0.719481 0.723376 0.259744 0.160710
H40   H     H_    0.692179 0.674877 0.326972 0.125049
H41   H     H_    0.737153 0.656900 0.245549 0.130979
H42   H     H_    0.572615 0.174529 0.558945 0.175661
H43   H     H_    0.615590 0.134775 0.629613 0.169859
H44   H     H_    0.551076 0.109025 0.567933 0.099811
H45   H     H_    0.691481 0.326250 0.326974 0.122596
H46   H     H_    0.935276 0.842943 0.371749 0.135547
H47   H     H_    0.717004 0.278748 0.257973 0.160438
H48   H     H_    0.734178 0.345513 0.244705 0.145014
H49   H     H_    0.615966 0.864722 0.626981 0.171415
H50   H     H_    0.572577 0.823810 0.558089 0.179735
H51   H     H_    0.550266 0.889276 0.565678 0.099030
H52   H     H_    0.665358 0.612028 0.040870 0.102463
H53   H     H_    0.596190 0.649389 0.992250 0.128040
H54   H     H_    0.605293 0.580978 0.978538 0.131010
H55   H     H_    0.303641 0.096433 0.624741 0.093128
H56   H     H_    0.263916 0.045845 0.678434 0.148238
H57   H     H_    0.864275 0.663522 0.701489 0.106825
H58   H     H_    0.352243 0.035499 0.640101 0.137023
H59   H     H_    0.581643 0.361725 0.997325 0.129668
H60   H     H_    0.652413 0.398527 0.044116 0.120922
H61   H     H_    0.587644 0.430634 0.987341 0.128202
H62   H     H_    0.416030 0.960020 0.786821 0.138009
H63   H     H_    0.347813 0.921253 0.834962 0.119300
H64   H     H_    0.321654 0.977655 0.784828 0.184828
H65   H     H_    0.168321 0.115495 0.539459 0.101759
H66   H     H_    0.098996 0.152571 0.490650 0.127887
H67   H     H_    0.109503 0.084346 0.476106 0.133444
H68   H     H_    0.949029 0.165825 0.391596 0.126184
H69   H     H_    0.852403 0.535641 0.142057 0.136097
H70   H     H_    0.803095 0.596727 0.131254 0.092864
H71   H     H_    0.765517 0.544957 0.184203 0.147471
H72   H     H_    0.044276 0.855348 0.491496 0.118473
H73   H     H_    0.136291 0.872260 0.521202 0.120173
H74   H     H_    0.080174 0.918962 0.476189 0.132516
H75   H     H_    0.912836 0.458422 0.290586 0.140385
H76   H     H_    0.842565 0.419067 0.334583 0.119191
H77   H     H_    0.818653 0.476293 0.285373 0.183654
H78   H     H_    0.840280 0.387605 0.810777 0.109726
H79   H     H_    0.017858 0.914874 0.357198 0.104760
H80   H     H_    0.850923 0.606662 0.806681 0.098200
H81   H     H_    0.239584 0.547110 0.878930 0.146763
H82   H     H_    0.025828 0.091028 0.377164 0.111889
H83   H     H_    0.346969 0.891411 0.307529 0.109538
H84   H     H_    0.529809 0.408090 0.873327 0.103824
H85   H     H_    0.350387 0.106978 0.306684 0.098559
H86   H     H_    0.525490 0.590909 0.876817 0.109675
H87   H     H_    0.378883 0.046521 0.216484 0.113325
H88   H     H_    0.376653 0.951814 0.217432 0.115340
H89   H     H_    0.882498 0.547466 0.714468 0.113449
H90   H     H_    0.887276 0.452587 0.711926 0.115125
H91   H     H_    0.191191 0.095397 0.875317 0.122682
H92   H     H_    0.234616 0.539666 0.118515 0.133703
H93   H     H_    0.186942 0.905334 0.876710 0.124056
H94   H     H_    0.687668 0.595341 0.376918 0.124407
H95   H     H_    0.684014 0.405355 0.378378 0.130718
H96   H     H_    0.138522 0.048386 0.774015 0.125083
H97   H     H_    0.136030 0.953109 0.774946 0.131466
H98   H     H_    0.632098 0.548283 0.277411 0.125427
H99   H     H_    0.629698 0.453044 0.278529 0.130950
H100  H     H_    0.144635 0.460738 0.044748 0.106200
H101  H     H_    0.158570 0.539183 0.930726 0.122065
H102  H     H_    0.154139 0.546755 0.065687 0.107356
H103  H     H_    0.264101 0.460201 0.880879 0.134471
H104  H     H_    0.173090 0.453135 0.912796 0.130739
H105  H     H_    0.645808 0.960803 0.548022 0.106340
H106  H     H_    0.656244 0.039168 0.433809 0.121345
H107  H     H_    0.656079 0.046835 0.568819 0.108423
H108  H     H_    0.670322 0.953095 0.415267 0.130278
H109  H     H_    0.313938 0.904369 0.122482 0.137472
H110  H     H_    0.318395 0.094720 0.120760 0.120357
H111  H     H_    0.828284 0.405106 0.615941 0.122036
H112  H     H_    0.817429 0.595032 0.621160 0.119079
H113  H     H_    0.916651 0.375540 0.919604 0.116477
H114  H     H_    0.713739 0.952573 0.615709 0.138772
H115  H     H_    0.128483 0.906158 0.282225 0.122215
H116  H     H_    0.922357 0.621740 0.917771 0.111665
H117  H     H_    0.116963 0.086885 0.279784 0.120041
H118  H     H_    0.419442 0.876868 0.418136 0.116889
H119  H     H_    0.641248 0.397963 0.802073 0.102521
H120  H     H_    0.422010 0.121810 0.417667 0.111681
H121  H     H_    0.616898 0.586892 0.779681 0.117577
H122  H     H_    0.165442 0.116548 0.667304 0.109743
H123  H     H_    0.957597 0.582420 0.135394 0.103966
H124  H     H_    0.159335 0.888241 0.669378 0.137694
H125  H     H_    0.735543 0.047156 0.379433 0.147460
H126  H     H_    0.952946 0.413943 0.128596 0.122497
H127  H     H_    0.663623 0.614586 0.168957 0.107998
H128  H     H_    0.454569 0.084539 0.630929 0.102667
H129  H     H_    0.657200 0.390457 0.173482 0.129654
H130  H     H_    0.453074 0.913961 0.628456 0.122258
H131  H     H_    0.460187 0.671976 0.096406 0.119361
H132  H     H_    0.355366 0.166318 0.803866 0.133897
H133  H     H_    0.453270 0.332873 0.102949 0.124194
H134  H     H_    0.354031 0.832336 0.801110 0.116324
H135  H     H_    0.961688 0.173080 0.594834 0.117371
H136  H     H_    0.738209 0.039653 0.619017 0.135216
H137  H     H_    0.856915 0.665493 0.306065 0.136550
H138  H     H_    0.954088 0.831918 0.601621 0.120002
H139  H     H_    0.853424 0.331807 0.300530 0.116144
H140  H     H_    0.945682 0.234749 0.950247 0.134926
H141  H     H_    0.911403 0.292644 0.995978 0.110517
H142  H     H_    0.987176 0.257899 0.031952 0.156846
H143  H     H_    0.187394 0.764313 0.290563 0.119153
H144  H     H_    0.233416 0.825537 0.307024 0.105207
H145  H     H_    0.262664 0.782504 0.235462 0.163402
H146  H     H_    0.986374 0.741037 0.030764 0.154884
H147  H     H_    0.760339 0.960251 0.380650 0.135546
H148  H     H_    0.912211 0.705068 0.993940 0.101164
H149  H     H_    0.945109 0.763490 0.948361 0.130835
H150  H     H_    0.233275 0.129696 0.238309 0.092382
H151  H     H_    0.216861 0.199229 0.244298 0.116992
H152  H     H_    0.249477 0.171429 0.161117 0.127991
H153  H     H_    0.445192 0.735190 0.447868 0.129113
H154  H     H_    0.410867 0.793063 0.493609 0.105746
H155  H     H_    0.485707 0.757651 0.530506 0.158218
H156  H     H_    0.728432 0.387301 0.712372 0.087398
H157  H     H_    0.653967 0.377702 0.647565 0.137297
H158  H     H_    0.360427 0.835096 0.202344 0.129010
H159  H     H_    0.738406 0.343818 0.636965 0.137379
H160  H     H_    0.412202 0.205120 0.493919 0.100670
H161  H     H_    0.445054 0.263440 0.448043 0.129738
H162  H     H_    0.486426 0.241172 0.530481 0.156316
H163  H     H_    0.733571 0.630220 0.738832 0.091430
H164  H     H_    0.716491 0.699662 0.744952 0.117949
H165  H     H_    0.749674 0.672156 0.661815 0.128213
H166  H     H_    0.417277 0.463408 0.106450 0.169658
H167  H     H_    0.326380 0.473154 0.138829 0.114037
H168  H     H_    0.355544 0.411584 0.105905 0.164805
O1    O     O_3   0.249990 0.250010 0.000000 -0.444721
O2    O     O_R   0.835430 0.219350 0.353840 -0.552987
O3    O     O_R   0.835430 0.219350 0.646160 -0.528946
O4    O     O_R   0.835430 0.780650 0.353840 -0.557988
O5    O     O_R   0.164550 0.280640 0.853840 -0.541545
O6    O     O_R   0.164550 0.719360 0.146160 -0.547032
O7    O     O_R   0.164550 0.719360 0.853840 -0.538878
O8    O     O_R   0.164550 0.280640 0.146160 -0.560738
O9    O     O_R   0.664550 0.780640 0.353840 -0.539873
O10   O     O_R   0.664550 0.219360 0.646160 -0.515108
O11   O     O_R   0.664550 0.219360 0.353840 -0.537028
O12   O     O_3   0.249990 0.749990 0.000000 -0.439965
O13   O     O_R   0.664550 0.780640 0.646160 -0.560441
O14   O     O_R   0.396160 0.219380 0.914560 -0.534024
O15   O     O_R   0.396160 0.780620 0.085440 -0.538554
O16   O     O_R   0.396160 0.780620 0.914560 -0.544584
O17   O     O_R   0.396160 0.219380 0.085440 -0.542750
O18   O     O_R   0.896160 0.719380 0.414560 -0.537929
O19   O     O_R   0.896160 0.280620 0.585440 -0.548385
O20   O     O_R   0.896160 0.280620 0.414560 -0.542448
O21   O     O_R   0.896160 0.719380 0.585440 -0.544668
O22   O     O_R   0.103840 0.219370 0.085450 -0.490850
O23   O     O_3   0.749990 0.750010 0.500000 -0.444280
O24   O     O_R   0.103840 0.780630 0.914550 -0.527689
O25   O     O_R   0.103840 0.780630 0.085450 -0.513523
O26   O     O_R   0.103840 0.219370 0.914550 -0.526703
O27   O     O_R   0.603840 0.719370 0.585450 -0.490935
O28   O     O_R   0.603840 0.280630 0.414550 -0.524007
O29   O     O_R   0.603840 0.280630 0.585450 -0.546564
O30   O     O_R   0.603840 0.719370 0.414550 -0.527350
O31   O     O_R   0.310730 0.133160 0.000000 -0.552439
O32   O     O_R   0.310730 0.866840 0.000000 -0.555489
O33   O     O_R   0.810730 0.633160 0.500000 -0.550806
O34   O     O_3   0.749990 0.249990 0.500000 -0.442491
O35   O     O_R   0.810730 0.366840 0.500000 -0.556450
O36   O     O_R   0.249970 0.366860 0.060720 -0.570581
O37   O     O_R   0.249970 0.633140 0.939280 -0.548092
O38   O     O_R   0.249970 0.633140 0.060720 -0.566276
O39   O     O_R   0.249970 0.366860 0.939280 -0.543950
O40   O     O_R   0.749970 0.866860 0.560720 -0.570241
O41   O     O_R   0.749970 0.133140 0.439280 -0.548414
O42   O     O_R   0.749970 0.133140 0.560720 -0.566638
O43   O     O_R   0.749970 0.866860 0.439280 -0.543912
O44   O     O_R   0.189290 0.133150 0.000000 -0.525406
O45   O     O_R   0.335430 0.280650 0.146160 -0.552060
O46   O     O_R   0.189290 0.866850 0.000000 -0.533393
O47   O     O_R   0.689290 0.633150 0.500000 -0.527674
O48   O     O_R   0.689290 0.366850 0.500000 -0.561880
O49   O     O_3   0.010415 0.301149 0.940148 -0.590469
O50   O     O_3   0.169955 0.823774 0.213140 -0.571349
O51   O     O_3   0.012200 0.698127 0.939563 -0.587918
O52   O     O_3   0.142796 0.155944 0.181525 -0.544003
O53   O     O_3   0.510860 0.801231 0.439561 -0.589082
O54   O     O_3   0.676149 0.316527 0.720548 -0.563835
O55   O     O_3   0.512114 0.198031 0.439461 -0.587039
O56   O     O_R   0.335430 0.719350 0.853840 -0.554276
O57   O     O_3   0.643080 0.656094 0.681758 -0.545656
O58   O     O_3   0.557189 0.601585 0.075430 -0.588844
O59   O     O_3   0.346712 0.084423 0.729964 -0.586948
O60   O     O_3   0.546400 0.406155 0.085644 -0.588203
O61   O     O_3   0.347729 0.915130 0.721109 -0.599231
O62   O     O_3   0.059946 0.103873 0.572743 -0.587386
O63   O     O_3   0.850163 0.582526 0.234227 -0.584900
O64   O     O_3   0.050296 0.903838 0.582047 -0.583730
O65   O     O_3   0.847123 0.414838 0.220587 -0.600441
O66   O     O_R   0.335430 0.719350 0.146160 -0.554099
O67   O     O_R   0.335430 0.280650 0.853840 -0.559488
O68   O     O_R   0.835430 0.780650 0.646160 -0.550882
Zn1   Zn    Zn3+2 0.249990 0.293780 0.913250 0.915440
Zn2   Zn    Zn3+2 0.336760 0.793760 0.000000 0.921276
Zn3   Zn    Zn3+2 0.836760 0.706240 0.500000 0.917166
Zn4   Zn    Zn3+2 0.836760 0.293760 0.500000 0.906457
Zn5   Zn    Zn3+2 0.163250 0.206230 0.000000 0.963167
Zn6   Zn    Zn3+2 0.163250 0.793770 0.000000 0.962839
Zn7   Zn    Zn3+2 0.663250 0.706230 0.500000 0.961647
Zn8   Zn    Zn3+2 0.663250 0.293770 0.500000 0.923927
Zn9   Zn    Zn3+2 0.249990 0.706220 0.086750 0.913372
Zn10  Zn    Zn3+2 0.249990 0.706220 0.913250 0.917632
Zn11  Zn    Zn3+2 0.249990 0.293780 0.086750 0.898407
Zn12  Zn    Zn3+2 0.749990 0.793780 0.413250 0.916443
Zn13  Zn    Zn3+2 0.749990 0.206220 0.586750 0.934888
Zn14  Zn    Zn3+2 0.749990 0.206220 0.413250 0.918828
Zn15  Zn    Zn3+2 0.749990 0.793780 0.586750 0.898943
Zn16  Zn    Zn3+2 0.336760 0.206240 0.000000 0.920471

loop_
_geom_bond_atom_site_label_1
_geom_bond_atom_site_label_2
_ccdc_geom_bond_type
C154  C191  S    
C107  H19   S    
C132  C150  A    
O23   Zn7   S    
C78   C115  S    
C133  C151  A    
C203  O6    A    
C74   C83   A    
C95   O52   S    
C53   O37   A    
O12   Zn10  S    
C124  H135  S    
C127  H77   S    
C116  H42   S    
C212  H116  S    
C14   O54   S    
C95   H151  S    
C170  C178  A    
C121  O60   S    
C35   C124  A    
C181  C207  S    
O56   Zn10  S    
C122  H62   S    
O13   Zn15  S    
C117  H47   S    
C123  H67   S    
C142  C177  A    
C58   C60   S    
C184  C193  A    
C119  H53   S    
C29   C33   A    
C120  H58   S    
C185  H2    S    
O4    Zn12  S    
C143  C178  A    
C104  H10   S    
C61   C63   S    
C184  H158  S    
C206  O30   A    
C62   C64   S    
C102  H5    S    
C80   C116  S    
C48   O44   A    
C6    H120  S    
C4    C12   A    
C104  H11   S    
O25   Zn6   S    
C100  H167  S    
C107  H21   S    
C108  H23   S    
C120  H55   S    
C21   C22   A    
C155  C158  S    
C19   H94   S    
C47   H89   S    
C190  C199  A    
C109  H27   S    
O35   Zn4   S    
C99   O57   S    
C1    O17   A    
C159  C172  A    
C15   C173  A    
O38   Zn9   S    
C27   C31   A    
O34   Zn14  S    
O27   Zn7   S    
C28   C32   A    
C147  C150  S    
O31   Zn16  S    
C208  O28   A    
C67   C105  S    
C20   C28   A    
C33   C50   S    
C17   C21   A    
C82   C91   A    
C106  H18   S    
C19   C23   A    
C43   C44   A    
O67   Zn1   S    
C37   C38   A    
C202  O58   S    
O45   Zn11  S    
C110  H30   S    
C84   H123  S    
C9    C167  A    
C198  H79   S    
C26   C27   A    
C177  C204  S    
C92   H142  S    
C58   H101  S    
C121  H60   S    
O6    Zn9   S    
C46   C84   A    
C10   C212  A    
C30   C49   S    
C173  C182  A    
C20   H95   S    
C31   C48   S    
C96   O53   S    
C206  O9    A    
C131  C149  A    
C82   C118  S    
C53   C71   S    
C93   O50   S    
O46   Zn6   S    
C116  H44   S    
O1    Zn11  S    
C124  C135  A    
C200  H82   S    
C66   C103  S    
C85   H124  S    
O5    Zn1   S    
C123  H65   S    
C101  C133  A    
C46   O63   S    
C105  H12   S    
C153  C162  A    
C33   C38   A    
C56   C59   S    
O22   Zn5   S    
C80   C88   A    
C40   H110  S    
C157  C171  A    
C42   H112  S    
C161  C174  A    
O2    Zn14  S    
C111  H34   S    
C57   C85   A    
C91   H130  S    
C182  C208  S    
C192  C200  A    
C50   O33   A    
C67   C108  S    
C3    C11   A    
C180  O19   A    
C113  H134  S    
C108  H25   S    
C10   C168  A    
C41   C45   A    
C31   C36   A    
C7    C196  A    
O16   Zn2   S    
C76   C85   A    
C5    C194  A    
C78   C87   A    
C5    H119  S    
C209  O13   A    
C81   C117  S    
C160  C173  A    
O32   Zn2   S    
C69   C107  S    
C9    O50   S    
C60   H104  S    
C195  H85   S    
C61   H105  S    
C98   H161  S    
C132  C145  A    
C156  C165  A    
O23   Zn12  S    
C122  H64   S    
C136  O15   A    
C88   H128  S    
C201  O5    A    
C75   C84   A    
C115  H39   S    
O39   Zn1   S    
C65   C70   S    
C145  C181  A    
C165  C192  A    
O28   Zn8   S    
C169  O20   A    
C2    C90   A    
C67   C72   S    
C75   C141  A    
C139  C143  A    
C172  C181  A    
C118  H51   S    
C119  H52   S    
C205  O8    A    
C92   H141  S    
O47   Zn7   S    
C62   C73   S    
O23   Zn3   S    
C157  C184  A    
C92   O49   S    
O41   Zn14  S    
C87   C202  A    
O12   Zn6   S    
C152  C161  A    
O15   Zn2   S    
C103  H8    S    
C123  O62   S    
O1    Zn5   S    
C209  O27   A    
C171  C179  A    
C164  C190  A    
C51   O35   A    
C100  H166  S    
C120  O59   S    
C108  H22   S    
C154  C163  A    
O44   Zn5   S    
C30   C34   A    
C34   C39   A    
C17   C27   A    
C25   H99   S    
O10   Zn13  S    
C54   O40   A    
C98   O55   S    
O43   Zn12  S    
C114  H37   S    
C74   C140  A    
C68   C130  A    
C77   C143  A    
C198  C211  A    
C78   C144  A    
C49   O32   A    
C191  O4    A    
C79   C131  A    
C3    C200  A    
C32   C37   A    
O23   Zn15  S    
O11   Zn14  S    
C102  H4    S    
C191  O18   A    
C125  H69   S    
C26   C30   A    
C147  O14   A    
C8    C210  A    
C16   C174  A    
C193  H83   S    
C57   O64   S    
C99   H164  S    
C18   C22   A    
O40   Zn15  S    
C63   H136  S    
C82   C148  A    
O66   Zn9   S    
C50   O47   A    
O1    Zn16  S    
C4    H118  S    
C159  C185  A    
C126  H74   S    
C12   O53   S    
C94   H148  S    
C122  H63   S    
O24   Zn6   S    
C118  H49   S    
C96   H154  S    
C76   C111  S    
O19   Zn4   S    
C83   H122  S    
C34   C36   A    
C105  H15   S    
C37   C41   A    
C204  O7    A    
C153  C180  S    
C103  H6    S    
C55   C73   S    
C40   C44   A    
C210  H113  S    
C89   H129  S    
C81   C146  A    
C93   H145  S    
C122  O61   S    
C150  C159  A    
C136  O66   A    
C24   O61   S    
C100  H168  S    
C119  O58   S    
C138  C155  A    
C43   H88   S    
C1    O45   A    
C120  H56   S    
C158  O68   A    
C187  C196  A    
C98   H160  S    
C18   C26   A    
C185  C194  A    
O36   Zn11  S    
C136  C149  S    
C109  H26   S    
C93   H144  S    
C166  C175  A    
C189  H46   S    
C63   H107  S    
C28   C29   A    
C64   H108  S    
C58   C71   S    
C20   C25   A    
C97   H157  S    
C168  C177  A    
C101  H133  S    
C23   H98   S    
C199  C212  A    
O12   Zn9   S    
C197  C210  A    
C56   H100  S    
C162  C166  A    
C110  H31   S    
C114  H36   S    
C125  H71   S    
C75   C110  S    
C126  H72   S    
C141  C176  A    
O34   Zn8   S    
C112  C152  S    
C69   C73   S    
C207  O29   A    
C121  H59   S    
O26   Zn5   S    
C187  H24   S    
C194  H84   S    
C81   C89   A    
C45   C47   A    
C107  H20   S    
C4    C193  A    
C68   O65   S    
C130  C139  A    
C130  H139  S    
C12   C171  A    
C2    O59   S    
C135  C140  A    
C199  H80   S    
C146  C182  A    
C52   O39   A    
O37   Zn10  S    
C94   H146  S    
C59   H102  S    
C138  C142  A    
C58   H81   S    
C35   C83   A    
C63   C73   S    
C45   H90   S    
C119  H54   S    
C192  H68   S    
C21   H96   S    
C9    C211  A    
C18   H93   S    
C128  H137  S    
C52   O36   A    
C64   H147  S    
C8    O49   S    
C32   C51   S    
O12   Zn2   S    
C127  H75   S    
C66   C71   S    
C164  C168  A    
C54   O43   A    
C111  H33   S    
C79   C202  A    
C134  C152  A    
C79   H131  S    
C163  C189  A    
C176  C203  S    
C11   O52   S    
C158  O21   A    
C61   C72   S    
C80   C145  A    
C113  C134  A    
C201  O26   A    
O68   Zn15  S    
C106  H16   S    
C77   C114  S    
C19   C29   A    
C92   H140  S    
C204  O24   A    
C109  H28   S    
C57   C129  A    
C165  C170  A    
C117  H48   S    
C137  C141  A    
O8    Zn11  S    
O33   Zn3   S    
O34   Zn13  S    
C127  H76   S    
C62   H125  S    
C65   C100  S    
C147  O67   A    
C174  C183  A    
C69   C106  S    
O20   Zn4   S    
C97   H159  S    
C90   C132  A    
C106  H17   S    
C7    H121  S    
C94   O51   S    
C99   H165  S    
O3    Zn13  S    
O17   Zn16  S    
C161  C187  A    
C162  C188  A    
C39   H109  S    
C110  H29   S    
C188  C197  A    
C140  C175  A    
C90   H132  S    
C137  C154  A    
C1    C151  S    
C41   H111  S    
C121  H61   S    
C23   C25   A    
C11   C170  A    
C207  O10   A    
C97   H156  S    
C55   O41   A    
C87   H127  S    
C133  C146  A    
C149  C157  A    
C169  O2    A    
C131  C144  A    
C103  H7    S    
C116  H43   S    
C189  C198  A    
C111  H32   S    
C95   H150  S    
C68   C86   A    
C66   C102  S    
C160  C186  A    
C13   O60   S    
C74   C109  S    
C123  H66   S    
O29   Zn8   S    
C186  H13   S    
C6    C195  A    
C46   C128  A    
C48   O31   A    
C208  O11   A    
C38   C42   A    
C148  C183  A    
C211  H115  S    
C114  H38   S    
C178  C205  S    
C156  C169  S    
C10   O51   S    
O7    Zn10  S    
C6    C15   A    
C196  H86   S    
C129  C138  A    
C17   H91   S    
C115  H41   S    
O18   Zn3   S    
C2    C88   A    
O42   Zn13  S    
O1    Zn1   S    
C22   H97   S    
C96   H153  S    
C125  O63   S    
C126  O64   S    
C179  C206  S    
C24   C113  A    
C62   H106  S    
C97   O54   S    
C35   O62   S    
C60   H103  S    
C3    H117  S    
C99   H163  S    
C186  C195  A    
C36   C40   A    
C175  C201  S    
C14   C172  A    
O48   Zn8   S    
O14   Zn16  S    
C39   C43   A    
C115  H40   S    
C55   O42   A    
O34   Zn4   S    
C86   H126  S    
C129  H138  S    
C67   C69   S    
C61   H114  S    
C163  C167  A    
C128  C137  A    
C94   H149  S    
C15   O55   S    
C117  H45   S    
C112  O16   A    
C118  H50   S    
C144  C179  A    
C60   C70   S    
C5    C14   A    
C44   H87   S    
C105  H14   S    
C197  H78   S    
C188  H35   S    
C56   H1    S    
C127  O65   S    
C8    C166  A    
C203  O25   A    
C51   O48   A    
C180  O3    A    
C77   C86   A    
C56   C70   S    
C49   O46   A    
C53   O38   A    
C190  H57   S    
C13   C101  A    
C24   C91   A    
C104  H9    S    
C95   H152  S    
C59   H92   S    
C7    C16   A    
C13   C89   A    
C205  O22   A    
C155  C164  A    
C183  C209  S    
C134  C148  A    
C93   H143  S    
C135  C153  A    
C112  O56   A    
C151  C160  A    
O30   Zn7   S    
C139  C156  A    
O9    Zn12  S    
C98   H162  S    
C42   C47   A    
C64   C72   S    
C96   H155  S    
O21   Zn3   S    
C52   C70   S    
C102  H3    S    
C54   C72   S    
C125  H70   S    
C65   C66   S    
C126  H73   S    
C16   O57   S    
C65   C104  S    
C59   C71   S    
C167  C176  A    
C76   C142  A    
