data_mof_unit_20164.cif
_audit_creation_date              2013-03-05T15:47:40-0500
_audit_creation_method            fapswitch 2.2
_symmetry_space_group_name_H-M    P1
_symmetry_Int_Tables_number       1
_space_group_crystal_system       triclinic
_cell_length_a                    10.251514
_cell_length_b                    10.736811
_cell_length_c                    10.582498
_cell_angle_alpha                 91.637185
_cell_angle_beta                  95.475222
_cell_angle_gamma                 80.059776
_cell_volume                      1141.99333857

loop_
_atom_site_label
_atom_site_type_symbol
_atom_site_description
_atom_site_fract_x
_atom_site_fract_y
_atom_site_fract_z
_atom_type_partial_charge
O1    O     O_R   0.568940 0.489540 0.307530 -0.614065
O2    O     O_R   0.348880 0.522880 0.340350 -0.542249
C1    C     C_R   0.444361 0.514556 0.266026 0.846839
O3    O     O_R   0.610030 0.298130 0.483570 -0.533671
O4    O     O_R   0.389960 0.331470 0.516390 -0.566650
C2    C     C_R   0.499515 0.257854 0.494971 0.969385
Zn1   Zn    Zn3+2 0.646940 0.477740 0.478080 1.155939
Zn2   Zn    Zn3+2 0.353060 0.522260 0.521920 1.147869
O5    O     O_R   0.651120 0.477120 0.659650 -0.551315
O6    O     O_R   0.431060 0.510460 0.692470 -0.570551
O7    O     O_R   0.610040 0.668530 0.483610 -0.590042
O8    O     O_R   0.389970 0.701870 0.516430 -0.563956
C3    C     C_R   0.555324 0.498673 0.733581 0.982546
C4    C     C_R   0.496652 0.742212 0.496045 0.957370
C5    C     C_3   0.581386 0.050246 0.382947 0.534035
C6    C     C_3   0.595320 0.906709 0.407073 -0.501248
H1    H     H_    0.589043 0.851687 0.316788 0.215277
H2    H     H_    0.695855 0.869411 0.453592 0.294746
C7    C     C_3   0.551154 0.066640 0.627115 0.033846
C8    C     C_3   0.349831 0.096589 0.463295 0.139490
C9    C     C_3   0.498575 0.121005 0.491793 -0.395135
H3    H     H_    0.302514 0.147480 0.376084 0.208279
C10   C     C_3   0.490526 0.879259 0.495220 -0.262004
C11   C     C_3   0.521674 0.929893 0.633282 0.197868
C12   C     C_3   0.351124 0.953306 0.438962 0.138728
H4    H     H_    0.342680 0.935776 0.334794 0.169613
H5    H     H_    0.491925 0.123207 0.698411 0.175201
H6    H     H_    0.428971 0.935136 0.681504 0.208784
H7    H     H_    0.608965 0.584848 0.120750 0.186830
C13   C     C_2   0.414969 0.542305 0.131157 0.165864
C14   C     C_2   0.512602 0.577812 0.071032 -0.314855
H8    H     H_    0.668119 0.449349 0.915895 0.184460
C15   C     C_2   0.585190 0.513482 0.868699 -0.308211
C16   C     C_2   0.502127 0.594017 0.935557 0.479398
N1    N     N_2   0.157300 0.551950 0.551120 -0.181601
C17   C     C_2   0.073601 0.494717 0.481881 0.388508
N2    N     N_2   0.842730 0.448000 0.448950 -0.042294
C18   C     C_2   0.930057 0.508391 0.509653 0.327334
H9    H     H_    0.126986 0.600664 0.631168 0.242121
Cl1   Cl    Cl    0.747835 0.080575 0.378935 -0.314131
Cl2   Cl    Cl    0.201293 0.906204 0.485720 -0.339278
Cl3   Cl    Cl    0.376055 0.713841 0.867387 -0.413403
N3    N     N_R   0.287639 0.529725 0.066683 0.264595
O9    O     O_R   0.178896 0.574404 0.118532 -0.252742
O10   O     O_R   0.280280 0.466164 0.960420 -0.285201
Cl4   Cl    Cl    0.873306 0.622811 0.622762 -0.445074
Cl5   Cl    Cl    0.128788 0.409457 0.346529 -0.412540
N4    N     N_R   0.887451 0.336069 0.385737 0.317203
O11   O     O_R   0.832759 0.315486 0.272852 -0.247469
O12   O     O_R   0.960422 0.242288 0.448230 -0.213302
N5    N     N_R   0.513064 0.087103 0.256485 0.202175
O13   O     O_R   0.496748 0.204604 0.221990 -0.339989
O14   O     O_R   0.479392 0.004037 0.173094 -0.333845
N6    N     N_R   0.690722 0.079096 0.664344 0.287986
O15   O     O_R   0.789834 0.993776 0.634667 -0.193644
O16   O     O_R   0.715762 0.171844 0.739458 -0.313168
Cl6   Cl    Cl    0.640224 0.827669 0.736433 -0.395112
Cl7   Cl    Cl    0.245034 0.157662 0.588608 -0.385542

loop_
_geom_bond_atom_site_label_1
_geom_bond_atom_site_label_2
_geom_bond_distance
_ccdc_geom_bond_type
C4    C10   1.462158 S    
O4    Zn2   2.018074 S    
N1    H9    1.027881 S    
C10   C11   1.567705 S    
C3    C15   1.443560 S    
N2    C18   1.304377 D    
C5    N5    1.481173 S    
C1    C13   1.458713 S    
C7    H5    1.113882 S    
N1    C17   1.298868 D    
C16   Cl3   1.773983 S    
Zn2   O8    2.031735 S    
N3    O9    1.300383 A    
H8    C15   1.087602 S    
N4    O12   1.301694 A    
O2    C1    1.302852 A    
Zn1   N2    2.028990 S    
C14   C16   1.440695 S    
H7    C14   1.087536 S    
C6    H2    1.112151 S    
N2    N4    1.387199 S    
Zn1   O7    2.018074 S    
N3    O10   1.301428 A    
O4    C2    1.292029 A    
O3    Zn1   2.031734 S    
C7    N6    1.475027 S    
C17   C18   1.509587 S    
N4    O11   1.300063 A    
C7    C9    1.572850 S    
C8    H3    1.112431 S    
C15   C16   1.341338 D    
C6    C10   1.558006 S    
C10   C12   1.581521 S    
C13   C14   1.348732 D    
C5    Cl1   1.796090 S    
O7    C4    1.303885 A    
N6    O16   1.301337 A    
C13   N3    1.439891 S    
C18   Cl4   1.755722 S    
C8    C12   1.550534 S    
C8    Cl7   1.822564 S    
N5    O13   1.301791 A    
C11   H6    1.113178 S    
C5    C9    1.593302 S    
C8    C9    1.590784 S    
C17   Cl5   1.763699 S    
O3    C2    1.297438 A    
C12   Cl2   1.813120 S    
Zn1   O5    1.918027 S    
O5    C3    1.299196 A    
N6    O15   1.301258 A    
C11   Cl6   1.796656 S    
N5    O14   1.302507 A    
C12   H4    1.110705 S    
O1    Zn1   1.901470 S    
C2    C9    1.470412 S    
C7    C11   1.553613 S    
Zn2   N1    2.028878 S    
Zn2   O6    1.901472 S    
O2    Zn2   1.918025 S    
C5    C6    1.549249 S    
O8    C4    1.282234 A    
C6    H1    1.111365 S    
O1    C1    1.295131 A    
O6    C3    1.292212 A    
