data_mof_unit_16071.cif
_audit_creation_date              2013-03-05T16:12:39-0500
_audit_creation_method            fapswitch 2.2
_symmetry_space_group_name_H-M    P1
_symmetry_Int_Tables_number       1
_space_group_crystal_system       triclinic
_cell_length_a                    22.938993
_cell_length_b                    22.424068
_cell_length_c                    14.726513
_cell_angle_alpha                 91.190639
_cell_angle_beta                  90.010005
_cell_angle_gamma                 89.994962
_cell_volume                      7573.46965495

loop_
_atom_site_label
_atom_site_type_symbol
_atom_site_description
_atom_site_fract_x
_atom_site_fract_y
_atom_site_fract_z
_atom_type_partial_charge
O1    O     O_R   0.060270 0.439640 0.575970 -0.554868
O2    O     O_R   0.060270 0.439640 0.424030 -0.544032
O3    O     O_R   0.060270 0.560360 0.424030 -0.554972
O4    O     O_R   0.060270 0.560360 0.575970 -0.544370
O5    O     O_R   0.560270 0.939640 0.575970 -0.554872
O6    O     O_R   0.560270 0.939640 0.424030 -0.544130
O7    O     O_R   0.560270 0.060360 0.424030 -0.554891
O8    O     O_R   0.560270 0.060360 0.575970 -0.544138
C1    C     C_R   0.080279 0.420619 0.499542 0.803867
C2    C     C_R   0.080300 0.579363 0.500466 0.803633
C3    C     C_R   0.580227 0.920552 0.499537 0.803618
C4    C     C_R   0.580298 0.079357 0.500466 0.804070
O9    O     O_R   0.939710 0.439640 0.575970 -0.560188
O10   O     O_R   0.939710 0.439640 0.424030 -0.588470
O11   O     O_R   0.939710 0.560360 0.424030 -0.560273
O12   O     O_R   0.939710 0.560360 0.575970 -0.588187
O13   O     O_R   0.439710 0.939640 0.575970 -0.560230
O14   O     O_R   0.439710 0.939640 0.424030 -0.588391
O15   O     O_R   0.439710 0.060360 0.424030 -0.560206
O16   O     O_R   0.439710 0.060360 0.575970 -0.588299
C5    C     C_R   0.921898 0.417877 0.498838 0.796545
C6    C     C_R   0.922010 0.582213 0.501150 0.796538
C7    C     C_R   0.421930 0.917854 0.498839 0.796327
C8    C     C_R   0.421941 0.082157 0.501155 0.796592
Cu1   Cu    Cu3+1 0.999990 0.500000 0.589920 1.061303
Cu2   Cu    Cu3+1 0.999990 0.500000 0.410080 1.061314
Cu3   Cu    Cu3+1 0.499990 0.000000 0.589920 1.061371
Cu4   Cu    Cu3+1 0.499990 0.000000 0.410080 1.061344
C9    C     C_3   0.808073 0.240941 0.573678 -0.272821
C10   C     C_3   0.790863 0.247649 0.397345 -0.301932
C11   C     C_3   0.807721 0.758781 0.425620 -0.273088
C12   C     C_3   0.791360 0.752818 0.602267 -0.301965
C13   C     C_3   0.308061 0.740971 0.573816 -0.272923
C14   C     C_3   0.291054 0.747484 0.397412 -0.301943
C15   C     C_3   0.307968 0.258986 0.426160 -0.272868
C16   C     C_3   0.291054 0.252528 0.602596 -0.301867
C17   C     C_3   0.244537 0.694279 0.398730 0.423995
C18   C     C_3   0.256924 0.691834 0.578738 0.399076
C19   C     C_3   0.244504 0.305711 0.601272 0.423733
C20   C     C_3   0.256803 0.308099 0.421240 0.398930
C21   C     C_3   0.744374 0.194418 0.398635 0.423957
C22   C     C_3   0.756955 0.191783 0.578603 0.398898
C23   C     C_3   0.744719 0.805914 0.600884 0.423550
C24   C     C_3   0.756440 0.807771 0.420728 0.399361
H1    H     H_    0.767206 0.279595 0.356921 0.188835
H2    H     H_    0.803373 0.270327 0.633672 0.190692
H3    H     H_    0.767986 0.721002 0.643313 0.188839
H4    H     H_    0.802823 0.729116 0.365989 0.190765
H5    H     H_    0.267464 0.779387 0.356814 0.188832
H6    H     H_    0.303299 0.770427 0.633715 0.190701
H7    H     H_    0.267495 0.220624 0.643213 0.188812
H8    H     H_    0.303198 0.229507 0.366286 0.190651
C25   C     C_1   0.126204 0.621834 0.500832 0.069949
C26   C     C_1   0.126146 0.378112 0.499186 0.069944
C27   C     C_1   0.626190 0.121829 0.500835 0.070115
C28   C     C_1   0.626008 0.877928 0.499163 0.069175
C29   C     C_3   0.796643 0.285206 0.491674 -0.027521
C30   C     C_3   0.796807 0.714876 0.508245 -0.027650
C31   C     C_3   0.296741 0.785141 0.491656 -0.027553
C32   C     C_3   0.296718 0.214845 0.508367 -0.027558
C33   C     C_3   0.211452 0.703200 0.495827 -0.315163
C34   C     C_3   0.211384 0.296742 0.504196 -0.314988
C35   C     C_3   0.711393 0.203223 0.495833 -0.315138
C36   C     C_3   0.711302 0.796587 0.504112 -0.314921
C37   C     C_3   0.182436 0.770745 0.501640 0.445779
C38   C     C_3   0.182396 0.229189 0.498460 0.445710
C39   C     C_3   0.682349 0.270749 0.501860 0.445857
C40   C     C_3   0.682438 0.728964 0.499026 0.445876
C41   C     C_3   0.735343 0.321536 0.511547 -0.145846
C42   C     C_3   0.735533 0.678270 0.489415 -0.145819
C43   C     C_3   0.235440 0.821528 0.511239 -0.145995
C44   C     C_3   0.235427 0.178424 0.488850 -0.145877
C45   C     C_1   0.164786 0.657977 0.499145 0.307298
C46   C     C_1   0.164710 0.341950 0.500872 0.307057
C47   C     C_1   0.664757 0.157981 0.499151 0.307142
C48   C     C_1   0.664545 0.841726 0.500821 0.307354
C49   C     C_1   0.844197 0.330482 0.490759 -0.015684
C50   C     C_1   0.844482 0.669746 0.509134 -0.015722
C51   C     C_1   0.344307 0.830399 0.490764 -0.015674
C52   C     C_1   0.344314 0.169614 0.509244 -0.015759
C53   C     C_1   0.880565 0.369643 0.494559 -0.193691
C54   C     C_1   0.880826 0.630568 0.505377 -0.193087
C55   C     C_1   0.380651 0.869578 0.494566 -0.193406
C56   C     C_1   0.380668 0.130442 0.505423 -0.193320
C57   C     C_3   0.967757 0.562846 0.056616 0.153492
C58   C     C_3   0.972007 0.561200 0.942111 0.144623
C59   C     C_3   0.967567 0.437402 0.943342 0.153549
C60   C     C_3   0.971727 0.439033 0.057833 0.144349
C61   C     C_3   0.467660 0.062734 0.056658 0.153483
C62   C     C_3   0.471860 0.061094 0.942156 0.144497
C63   C     C_3   0.467675 0.937291 0.943376 0.153549
C64   C     C_3   0.471865 0.938931 0.057877 0.144499
N1    N     N_1   0.000150 0.500000 0.724970 -0.142320
N2    N     N_1   0.000150 0.500000 0.275030 -0.142238
N3    N     N_1   0.500150 0.000000 0.724970 -0.142259
N4    N     N_1   0.500150 0.000000 0.275030 -0.142270
C65   C     C_3   0.003757 0.502513 0.092622 -0.318870
C66   C     C_3   0.003793 0.497569 0.907377 -0.318880
C67   C     C_3   0.503775 0.002482 0.092638 -0.318936
C68   C     C_3   0.503778 0.997542 0.907393 -0.318855
C69   C     C_3   0.072588 0.495275 0.942998 0.284912
C70   C     C_3   0.072579 0.504494 0.057086 0.284862
C71   C     C_3   0.572583 0.995399 0.942990 0.284905
C72   C     C_3   0.572584 0.004617 0.057077 0.284915
C73   C     C_1   0.001966 0.498302 0.804363 0.438237
C74   C     C_1   0.001930 0.501740 0.195638 0.438413
C75   C     C_1   0.501949 0.998292 0.804367 0.438293
C76   C     C_1   0.501949 0.001726 0.195643 0.438316
N5    N     N_R   0.280165 0.629675 0.573348 0.151648
O17   O     O_R   0.329566 0.616006 0.534906 -0.341156
O18   O     O_R   0.250201 0.585989 0.606957 -0.201788
N6    N     N_R   0.270500 0.633946 0.384032 0.163416
O19   O     O_R   0.297617 0.623501 0.307678 -0.258028
O20   O     O_R   0.244037 0.587606 0.416265 -0.239594
N7    N     N_R   0.280019 0.370266 0.426566 0.151688
O21   O     O_R   0.329422 0.383964 0.465001 -0.341022
O22   O     O_R   0.250033 0.413928 0.392903 -0.201807
N8    N     N_R   0.270435 0.366061 0.615922 0.163355
O23   O     O_R   0.297547 0.376548 0.692283 -0.257962
O24   O     O_R   0.243951 0.412379 0.583630 -0.239759
N9    N     N_R   0.780215 0.129636 0.572999 0.151620
O25   O     O_R   0.829574 0.116025 0.534376 -0.341156
O26   O     O_R   0.750312 0.085905 0.606597 -0.201793
N10   N     N_R   0.770345 0.134108 0.383715 0.163409
O27   O     O_R   0.797359 0.123750 0.307246 -0.257934
O28   O     O_R   0.743946 0.087722 0.415921 -0.239546
N11   N     N_R   0.779535 0.869997 0.425424 0.151781
O29   O     O_R   0.829061 0.883916 0.463299 -0.340880
O30   O     O_R   0.749293 0.913501 0.391825 -0.201878
N12   N     N_R   0.770600 0.866345 0.614881 0.163251
O31   O     O_R   0.797988 0.877110 0.690925 -0.258150
O32   O     O_R   0.743913 0.912518 0.582514 -0.239926
C77   C     C_R   0.871090 0.218672 0.596099 0.172822
C78   C     C_R   0.880142 0.184633 0.675087 -0.011607
C79   C     C_R   0.933797 0.157890 0.693191 -0.151756
C80   C     C_R   0.980544 0.165443 0.634457 -0.080745
C81   C     C_R   0.974145 0.201734 0.559792 -0.087944
C82   C     C_R   0.921240 0.230132 0.543283 -0.183275
H9    H     H_    0.845242 0.175013 0.720962 0.205950
H10   H     H_    0.938755 0.130384 0.752243 0.151582
H11   H     H_    0.021782 0.143669 0.647200 0.173790
H12   H     H_    0.009835 0.207221 0.512846 0.222440
H13   H     H_    0.920953 0.257817 0.485124 0.145357
C83   C     C_R   0.845874 0.236711 0.338723 0.130900
C84   C     C_R   0.886816 0.191696 0.357463 -0.063037
C85   C     C_R   0.932402 0.178129 0.297654 -0.099280
C86   C     C_R   0.937126 0.207981 0.216090 -0.128365
C87   C     C_R   0.897208 0.252509 0.195512 -0.096804
C88   C     C_R   0.852538 0.267353 0.256324 -0.073275
H14   H     H_    0.881799 0.164208 0.415679 0.205754
H15   H     H_    0.962969 0.143045 0.313382 0.161899
H16   H     H_    0.971577 0.196511 0.168649 0.134957
H17   H     H_    0.900547 0.275217 0.131833 0.165204
H18   H     H_    0.821693 0.301118 0.236339 0.162107
C89   C     C_R   0.870562 0.781115 0.402249 0.172405
C90   C     C_R   0.879145 0.814771 0.322753 -0.011198
C91   C     C_R   0.932590 0.841701 0.303887 -0.148927
C92   C     C_R   0.979557 0.834785 0.362431 -0.083524
C93   C     C_R   0.973641 0.798805 0.437532 -0.088667
C94   C     C_R   0.920980 0.770126 0.454714 -0.181819
H19   H     H_    0.844034 0.823966 0.277036 0.205903
H20   H     H_    0.937197 0.868902 0.244436 0.151625
H21   H     H_    0.020607 0.856772 0.349165 0.172168
H22   H     H_    0.009504 0.793823 0.484317 0.222027
H23   H     H_    0.921073 0.742639 0.513097 0.145616
C95   C     C_R   0.846638 0.764124 0.660169 0.131452
C96   C     C_R   0.887375 0.809132 0.640497 -0.063160
C97   C     C_R   0.933417 0.822832 0.699393 -0.098274
C98   C     C_R   0.938818 0.793134 0.780994 -0.127740
C99   C     C_R   0.899055 0.748690 0.802590 -0.098500
C100  C     C_R   0.853900 0.733731 0.742683 -0.073380
H24   H     H_    0.881919 0.836443 0.582166 0.205736
H25   H     H_    0.963857 0.857860 0.682892 0.162123
H26   H     H_    0.973670 0.804683 0.827691 0.135125
H27   H     H_    0.902945 0.726084 0.866317 0.164365
H28   H     H_    0.823222 0.700029 0.763417 0.162450
C101  C     C_R   0.371050 0.718713 0.596467 0.172808
C102  C     C_R   0.380006 0.684758 0.675566 -0.011371
C103  C     C_R   0.433638 0.658030 0.693885 -0.151224
C104  C     C_R   0.480449 0.665506 0.635248 -0.081188
C105  C     C_R   0.474147 0.701733 0.560494 -0.088128
C106  C     C_R   0.421266 0.730119 0.543771 -0.183266
H29   H     H_    0.345053 0.675189 0.721368 0.205956
H30   H     H_    0.438526 0.630590 0.753023 0.151580
H31   H     H_    0.521667 0.643735 0.648149 0.173420
H32   H     H_    0.509896 0.707184 0.513646 0.222813
H33   H     H_    0.421059 0.757748 0.485550 0.145454
C107  C     C_R   0.346147 0.736465 0.339002 0.131044
C108  C     C_R   0.387053 0.691469 0.358005 -0.062898
C109  C     C_R   0.432800 0.677918 0.298489 -0.098981
C110  C     C_R   0.437727 0.707764 0.216949 -0.128382
C111  C     C_R   0.397822 0.752243 0.196077 -0.097278
C112  C     C_R   0.352981 0.767064 0.256597 -0.073275
H34   H     H_    0.381924 0.664019 0.416239 0.205809
H35   H     H_    0.463352 0.642866 0.314436 0.162098
H36   H     H_    0.472317 0.696319 0.169745 0.135019
H37   H     H_    0.401315 0.774939 0.132404 0.165167
H38   H     H_    0.322163 0.800796 0.236397 0.162218
C113  C     C_R   0.370927 0.281274 0.403466 0.172743
C114  C     C_R   0.379834 0.315179 0.324309 -0.011570
C115  C     C_R   0.433419 0.341990 0.306001 -0.150854
C116  C     C_R   0.480224 0.334666 0.364727 -0.081437
C117  C     C_R   0.473973 0.298491 0.439546 -0.088042
C118  C     C_R   0.421155 0.269986 0.456222 -0.182792
H39   H     H_    0.344873 0.324644 0.278449 0.205946
H40   H     H_    0.438268 0.369389 0.246814 0.151635
H41   H     H_    0.521397 0.356519 0.351853 0.173444
H42   H     H_    0.509702 0.293191 0.486491 0.222259
H43   H     H_    0.420987 0.242370 0.514460 0.145430
C119  C     C_R   0.346150 0.263585 0.661010 0.130889
C120  C     C_R   0.387009 0.308618 0.642019 -0.063080
C121  C     C_R   0.432724 0.322239 0.701580 -0.098904
C122  C     C_R   0.437665 0.292429 0.783152 -0.128262
C123  C     C_R   0.397814 0.247907 0.804006 -0.097224
C124  C     C_R   0.353009 0.233013 0.743440 -0.073250
H44   H     H_    0.381852 0.336055 0.583771 0.205783
H45   H     H_    0.463234 0.357324 0.685646 0.161955
H46   H     H_    0.472225 0.303934 0.830394 0.135025
H47   H     H_    0.401322 0.225234 0.867700 0.165088
H48   H     H_    0.322228 0.199254 0.763633 0.162295
N13   N     N_R   0.204033 0.699020 0.320082 0.187374
O33   O     O_R   0.159262 0.663490 0.314004 -0.273624
O34   O     O_R   0.222562 0.721356 0.244333 -0.285189
N14   N     N_R   0.226554 0.696668 0.668405 0.100120
O35   O     O_R   0.253851 0.716655 0.740322 -0.408683
O36   O     O_R   0.180941 0.663861 0.683751 -0.249534
N15   N     N_R   0.204038 0.300973 0.679948 0.187574
O37   O     O_R   0.159246 0.336481 0.686031 -0.272670
O38   O     O_R   0.222614 0.278658 0.755698 -0.284779
N16   N     N_R   0.226386 0.303225 0.331597 0.100333
O39   O     O_R   0.253652 0.283216 0.259676 -0.408409
O40   O     O_R   0.180751 0.336012 0.316252 -0.248871
N17   N     N_R   0.703784 0.199225 0.320102 0.187461
O41   O     O_R   0.659058 0.163636 0.314007 -0.273319
O42   O     O_R   0.722200 0.221709 0.244391 -0.285344
N18   N     N_R   0.726677 0.196509 0.668357 0.100241
O43   O     O_R   0.754043 0.216436 0.740249 -0.408410
O44   O     O_R   0.681091 0.163673 0.683741 -0.248673
N19   N     N_R   0.704521 0.801354 0.679918 0.187644
O45   O     O_R   0.659590 0.836679 0.685989 -0.272711
O46   O     O_R   0.723464 0.779484 0.755772 -0.284108
N20   N     N_R   0.725745 0.802555 0.331349 0.100120
O47   O     O_R   0.752818 0.782391 0.259351 -0.408950
O48   O     O_R   0.679993 0.835198 0.316131 -0.250710
C125  C     C_R   0.742000 0.356509 0.607138 0.077333
C126  C     C_R   0.775026 0.410453 0.611024 -0.158784
C127  C     C_R   0.788548 0.439773 0.692624 -0.075009
C128  C     C_R   0.765829 0.419704 0.773708 -0.049393
C129  C     C_R   0.731340 0.368954 0.773416 -0.143098
C130  C     C_R   0.720120 0.337604 0.692312 -0.051396
H49   H     H_    0.791311 0.430870 0.550345 0.129790
H50   H     H_    0.816046 0.478965 0.692386 0.180330
H51   H     H_    0.774517 0.443739 0.836627 0.204624
H52   H     H_    0.713717 0.353122 0.836727 0.163634
H53   H     H_    0.694767 0.298500 0.700816 0.217119
C131  C     C_R   0.722700 0.374841 0.444818 0.166741
C132  C     C_R   0.756347 0.388467 0.366699 -0.135807
C133  C     C_R   0.736198 0.428420 0.302312 -0.104766
C134  C     C_R   0.685202 0.460615 0.317635 -0.081767
C135  C     C_R   0.655295 0.454270 0.398796 -0.150490
C136  C     C_R   0.674122 0.412828 0.461884 -0.068485
H54   H     H_    0.797610 0.368195 0.351489 0.125177
H55   H     H_    0.760917 0.435102 0.240721 0.169065
H56   H     H_    0.670079 0.492080 0.268116 0.139092
H57   H     H_    0.617241 0.481440 0.413000 0.134543
H58   H     H_    0.650804 0.412035 0.524854 0.179051
C137  C     C_R   0.741918 0.642814 0.394168 0.078304
C138  C     C_R   0.719798 0.661291 0.308897 -0.052051
C139  C     C_R   0.731153 0.629772 0.227982 -0.143357
C140  C     C_R   0.765994 0.579263 0.227986 -0.048954
C141  C     C_R   0.788812 0.559523 0.309211 -0.076274
C142  C     C_R   0.775109 0.588965 0.390638 -0.158603
H59   H     H_    0.694194 0.700210 0.300175 0.217091
H60   H     H_    0.713393 0.645304 0.164573 0.163876
H61   H     H_    0.774843 0.555127 0.165206 0.204878
H62   H     H_    0.816496 0.520460 0.309703 0.179614
H63   H     H_    0.791511 0.568797 0.451453 0.129524
C143  C     C_R   0.723340 0.625292 0.556947 0.166287
C144  C     C_R   0.674714 0.587186 0.540981 -0.068655
C145  C     C_R   0.656295 0.546063 0.604827 -0.149718
C146  C     C_R   0.686692 0.540134 0.685649 -0.082668
C147  C     C_R   0.737779 0.572378 0.699855 -0.104783
C148  C     C_R   0.757462 0.612073 0.634769 -0.135751
H64   H     H_    0.651000 0.587675 0.478349 0.179095
H65   H     H_    0.618173 0.518817 0.591488 0.134151
H66   H     H_    0.671878 0.508937 0.735771 0.138803
H67   H     H_    0.762903 0.565961 0.761141 0.171654
H68   H     H_    0.798766 0.632477 0.649219 0.125527
C149  C     C_R   0.242033 0.856669 0.606706 0.077874
C150  C     C_R   0.220169 0.837866 0.691944 -0.051894
C151  C     C_R   0.231418 0.869301 0.772964 -0.143122
C152  C     C_R   0.265930 0.920037 0.773108 -0.048954
C153  C     C_R   0.288622 0.940014 0.691953 -0.075754
C154  C     C_R   0.275045 0.910625 0.610430 -0.158619
H69   H     H_    0.194812 0.798775 0.700546 0.216937
H70   H     H_    0.213813 0.853540 0.836329 0.163647
H71   H     H_    0.274658 0.944130 0.835964 0.204748
H72   H     H_    0.316132 0.979198 0.691597 0.179949
H73   H     H_    0.291323 0.930971 0.549688 0.129745
C155  C     C_R   0.222892 0.874714 0.444240 0.166499
C156  C     C_R   0.174260 0.912690 0.460932 -0.068040
C157  C     C_R   0.155558 0.954050 0.397628 -0.149927
C158  C     C_R   0.185663 0.960345 0.316636 -0.082494
C159  C     C_R   0.236707 0.928165 0.301678 -0.105024
C160  C     C_R   0.256700 0.888261 0.366249 -0.135885
H74   H     H_    0.150780 0.911933 0.523751 0.179029
H75   H     H_    0.117446 0.981196 0.411531 0.134195
H76   H     H_    0.170646 0.991754 0.266959 0.139033
H77   H     H_    0.261570 0.934800 0.240214 0.169907
H78   H     H_    0.297989 0.867972 0.351282 0.125356
C161  C     C_R   0.241990 0.143256 0.393402 0.077810
C162  C     C_R   0.275037 0.089316 0.389691 -0.158610
C163  C     C_R   0.288612 0.059923 0.308175 -0.075859
C164  C     C_R   0.265885 0.079879 0.227015 -0.049092
C165  C     C_R   0.231324 0.130587 0.227152 -0.143003
C166  C     C_R   0.220070 0.162024 0.308166 -0.051728
H79   H     H_    0.291350 0.068990 0.450437 0.129716
H80   H     H_    0.316147 0.020753 0.308541 0.179906
H81   H     H_    0.274623 0.055788 0.164163 0.204746
H82   H     H_    0.213685 0.146325 0.163785 0.163865
H83   H     H_    0.194670 0.201091 0.299559 0.217267
C167  C     C_R   0.222948 0.125252 0.555892 0.166557
C168  C     C_R   0.256806 0.111745 0.633868 -0.135889
C169  C     C_R   0.236858 0.071871 0.698500 -0.104860
C170  C     C_R   0.185812 0.039682 0.683618 -0.082298
C171  C     C_R   0.155666 0.045928 0.602635 -0.150251
C172  C     C_R   0.174323 0.087258 0.539268 -0.068445
H84   H     H_    0.298095 0.132050 0.648781 0.125365
H85   H     H_    0.261757 0.065266 0.759953 0.170139
H86   H     H_    0.170827 0.008301 0.733345 0.138960
H87   H     H_    0.117555 0.018771 0.588790 0.134075
H88   H     H_    0.150810 0.087984 0.476464 0.179121
N21   N     N_R   0.139494 0.777901 0.576920 0.091422
O49   O     O_R   0.115417 0.829712 0.590826 -0.435150
O50   O     O_R   0.109011 0.733059 0.604606 -0.387237
N22   N     N_R   0.145147 0.777275 0.419010 0.133369
O51   O     O_R   0.160132 0.805658 0.346522 -0.354597
O52   O     O_R   0.095965 0.748515 0.415244 -0.389478
N23   N     N_R   0.139414 0.221994 0.423221 0.091089
O53   O     O_R   0.108914 0.266820 0.395474 -0.387350
O54   O     O_R   0.115355 0.170171 0.409368 -0.435526
N24   N     N_R   0.145162 0.222673 0.581137 0.133098
O55   O     O_R   0.096004 0.251476 0.584992 -0.389481
O56   O     O_R   0.160197 0.194289 0.653611 -0.354412
N25   N     N_R   0.639433 0.277813 0.577185 0.091082
O57   O     O_R   0.615285 0.329583 0.591158 -0.435332
O58   O     O_R   0.609066 0.232911 0.604953 -0.387348
N26   N     N_R   0.645021 0.277355 0.419288 0.133234
O59   O     O_R   0.659915 0.305921 0.346924 -0.354727
O60   O     O_R   0.595901 0.248490 0.415424 -0.389606
N27   N     N_R   0.639266 0.721480 0.424102 0.091281
O61   O     O_R   0.608479 0.766140 0.396475 -0.387967
O62   O     O_R   0.615357 0.669545 0.410618 -0.435459
N28   N     N_R   0.645463 0.722600 0.582007 0.133163
O63   O     O_R   0.596183 0.751175 0.585924 -0.389529
O64   O     O_R   0.660852 0.694600 0.654671 -0.354209
N29   N     N_R   0.911570 0.567659 0.903044 0.180619
O65   O     O_R   0.880527 0.614465 0.924127 -0.376481
O66   O     O_R   0.895601 0.540697 0.828111 -0.364550
N30   N     N_R   0.907226 0.559422 0.094711 0.196875
O67   O     O_R   0.861015 0.545015 0.048833 -0.231568
O68   O     O_R   0.898482 0.574498 0.179770 -0.371037
N31   N     N_R   0.911207 0.432907 0.096664 0.180341
O69   O     O_R   0.895320 0.459811 0.171677 -0.364498
O70   O     O_R   0.879857 0.386401 0.075145 -0.376854
N32   N     N_R   0.907053 0.441093 0.905255 0.196589
O71   O     O_R   0.861051 0.456480 0.950914 -0.231977
O72   O     O_R   0.898159 0.425808 0.820315 -0.371731
N33   N     N_R   0.411379 0.067377 0.903198 0.180545
O73   O     O_R   0.380169 0.114021 0.924510 -0.376807
O74   O     O_R   0.395461 0.040454 0.828206 -0.364451
N34   N     N_R   0.407140 0.059181 0.094749 0.196751
O75   O     O_R   0.361026 0.044295 0.048983 -0.231716
O76   O     O_R   0.398331 0.074356 0.179752 -0.371333
N35   N     N_R   0.411377 0.932659 0.096775 0.180500
O77   O     O_R   0.395449 0.959571 0.171764 -0.364400
O78   O     O_R   0.380161 0.886031 0.075403 -0.376814
N36   N     N_R   0.407156 0.940840 0.905250 0.196704
O79   O     O_R   0.361055 0.955813 0.950965 -0.231797
O80   O     O_R   0.398344 0.925639 0.820254 -0.371404
C173  C     C_R   0.005476 0.384800 0.104516 0.010569
C174  C     C_R   0.991088 0.368365 0.195270 -0.075734
C175  C     C_R   0.019968 0.322780 0.240373 -0.081868
C176  C     C_R   0.063266 0.289967 0.196562 -0.034060
C177  C     C_R   0.078952 0.303953 0.108845 -0.058990
C178  C     C_R   0.051279 0.350527 0.064535 -0.093445
H89   H     H_    0.957683 0.390533 0.234364 0.180330
H90   H     H_    0.007573 0.312085 0.309099 0.157860
H91   H     H_    0.084299 0.253213 0.229772 0.186224
H92   H     H_    0.112674 0.278389 0.074386 0.165112
H93   H     H_    0.065535 0.356538 0.997493 0.188127
C179  C     C_R   0.984230 0.373017 0.901632 0.024469
C180  C     C_R   0.961299 0.320303 0.941189 -0.098206
C181  C     C_R   0.975143 0.263001 0.909011 -0.178788
C182  C     C_R   0.007438 0.255610 0.830211 -0.095987
C183  C     C_R   0.021199 0.305261 0.780126 -0.037150
C184  C     C_R   0.007313 0.362382 0.812999 0.004256
H94   H     H_    0.936202 0.321393 0.001636 0.186937
H95   H     H_    0.960728 0.224329 0.945680 0.150711
H96   H     H_    0.019377 0.211455 0.805991 0.154604
H97   H     H_    0.041249 0.299701 0.714223 0.209757
H98   H     H_    0.013729 0.396060 0.764570 0.162885
C185  C     C_R   0.006072 0.615259 0.895556 0.010822
C186  C     C_R   0.991864 0.631756 0.804757 -0.076128
C187  C     C_R   0.020971 0.677230 0.759776 -0.081875
C188  C     C_R   0.064340 0.709858 0.803747 -0.033475
C189  C     C_R   0.079884 0.695780 0.891492 -0.059025
C190  C     C_R   0.051979 0.649316 0.935689 -0.093547
H99   H     H_    0.958414 0.609727 0.765557 0.180257
H100  H     H_    0.008691 0.687981 0.691017 0.159188
H101  H     H_    0.085559 0.746532 0.770634 0.186167
H102  H     H_    0.113672 0.721189 0.926068 0.165248
H103  H     H_    0.066136 0.643248 0.002775 0.188179
C191  C     C_R   0.984649 0.627154 0.098332 0.024295
C192  C     C_R   0.961996 0.679989 0.058715 -0.097923
C193  C     C_R   0.976167 0.737214 0.090853 -0.179927
C194  C     C_R   0.008504 0.744430 0.169657 -0.095705
C195  C     C_R   0.021934 0.694716 0.219825 -0.036258
C196  C     C_R   0.007732 0.637672 0.186992 0.003761
H104  H     H_    0.936915 0.679059 0.998231 0.187713
H105  H     H_    0.961987 0.775963 0.054139 0.150679
H106  H     H_    0.020709 0.788519 0.193825 0.154896
H107  H     H_    0.041979 0.700172 0.285747 0.210271
H108  H     H_    0.013927 0.603959 0.235445 0.162946
C197  C     C_R   0.505756 0.884783 0.104553 0.010671
C198  C     C_R   0.491438 0.868338 0.195331 -0.075950
C199  C     C_R   0.520461 0.822862 0.240466 -0.082486
C200  C     C_R   0.563848 0.790168 0.196673 -0.032985
C201  C     C_R   0.579452 0.804145 0.108915 -0.058401
C202  C     C_R   0.551626 0.850609 0.064561 -0.093963
H109  H     H_    0.457983 0.890424 0.234427 0.180387
H110  H     H_    0.508124 0.812174 0.309219 0.158267
H111  H     H_    0.585036 0.753532 0.229953 0.186330
H112  H     H_    0.613243 0.778671 0.074466 0.165454
H113  H     H_    0.565837 0.856625 0.997494 0.188198
C203  C     C_R   0.484469 0.872947 0.901690 0.024465
C204  C     C_R   0.461673 0.820177 0.941270 -0.098197
C205  C     C_R   0.475643 0.762910 0.909086 -0.179121
C206  C     C_R   0.507927 0.755601 0.830260 -0.095614
C207  C     C_R   0.521544 0.805288 0.780164 -0.036979
C208  C     C_R   0.507542 0.862371 0.813046 0.004043
H114  H     H_    0.436591 0.821199 0.001735 0.187111
H115  H     H_    0.461333 0.724202 0.945764 0.150696
H116  H     H_    0.519958 0.711475 0.806027 0.154710
H117  H     H_    0.541566 0.799794 0.714244 0.209879
H118  H     H_    0.513857 0.896067 0.764614 0.162853
C209  C     C_R   0.505750 0.115249 0.895550 0.010655
C210  C     C_R   0.491429 0.131736 0.804786 -0.075769
C211  C     C_R   0.520369 0.177317 0.759795 -0.081631
C212  C     C_R   0.563685 0.210051 0.803715 -0.034081
C213  C     C_R   0.579342 0.195977 0.891415 -0.059258
C214  C     C_R   0.551599 0.149416 0.935622 -0.093257
H119  H     H_    0.458016 0.109627 0.765618 0.180263
H120  H     H_    0.508002 0.188072 0.691074 0.158389
H121  H     H_    0.584761 0.246811 0.770601 0.186076
H122  H     H_    0.613086 0.221471 0.925951 0.165045
H123  H     H_    0.565825 0.143352 0.002673 0.188131
C215  C     C_R   0.484438 0.127077 0.098390 0.024304
C216  C     C_R   0.461625 0.179848 0.058814 -0.098116
C217  C     C_R   0.475573 0.237115 0.091024 -0.179138
C218  C     C_R   0.507853 0.244424 0.169870 -0.095864
C219  C     C_R   0.521492 0.194736 0.219963 -0.036696
C220  C     C_R   0.507513 0.137649 0.187053 0.004176
H124  H     H_    0.436544 0.178827 0.998336 0.187164
H125  H     H_    0.461247 0.275823 0.054348 0.150686
H126  H     H_    0.519866 0.288550 0.194120 0.154738
H127  H     H_    0.541518 0.200245 0.285899 0.209978
H128  H     H_    0.513845 0.103947 0.235477 0.162930
N37   N     N_R   0.098853 0.561520 0.092357 0.089520
O81   O     O_R   0.102748 0.567340 0.180262 -0.286486
O82   O     O_R   0.141036 0.587874 0.050384 -0.247335
N38   N     N_R   0.111749 0.539377 0.898957 0.174546
O83   O     O_R   0.167531 0.533539 0.913660 -0.141692
O84   O     O_R   0.099235 0.560221 0.819552 -0.305359
N39   N     N_R   0.098639 0.438129 0.907761 0.089545
O85   O     O_R   0.140644 0.411537 0.949841 -0.247530
O86   O     O_R   0.102606 0.432328 0.819864 -0.286320
N40   N     N_R   0.111544 0.460216 0.101173 0.174559
O87   O     O_R   0.098914 0.439393 0.180538 -0.305431
O88   O     O_R   0.167355 0.465806 0.086544 -0.141626
N41   N     N_R   0.598747 0.061701 0.092335 0.089523
O89   O     O_R   0.602681 0.067512 0.180237 -0.286338
O90   O     O_R   0.640840 0.088170 0.050317 -0.247433
N42   N     N_R   0.611643 0.039590 0.898939 0.174550
O91   O     O_R   0.667441 0.033865 0.913601 -0.141667
O92   O     O_R   0.599059 0.060448 0.819570 -0.305438
N43   N     N_R   0.598745 0.938310 0.907738 0.089580
O93   O     O_R   0.640811 0.911804 0.949798 -0.247546
O94   O     O_R   0.602701 0.932515 0.819838 -0.286389
N44   N     N_R   0.611649 0.960425 0.101149 0.174566
O95   O     O_R   0.599085 0.939604 0.180541 -0.305317
O96   O     O_R   0.667444 0.966129 0.086482 -0.141767

loop_
_geom_bond_atom_site_label_1
_geom_bond_atom_site_label_2
_geom_bond_distance
_ccdc_geom_bond_type
C9    C77   1.566702 S    
C199  C200  1.387225 A    
Cu1   N1    1.988818 S    
N29   O65   1.300566 A    
C12   C95   1.545942 S    
C9    C22   1.612120 S    
C197  C198  1.432370 A    
C10   H1    1.086091 S    
Cu3   N3    1.988818 S    
C151  C152  1.386058 A    
C78   H9    1.072429 S    
C64   C197  1.607965 S    
C125  C130  1.423836 A    
C63   C203  1.603213 S    
C84   C85   1.396752 A    
C163  H80   1.081941 S    
N37   O81   1.301442 A    
C24   C36   1.629768 S    
C147  C148  1.396619 A    
C91   C92   1.390421 A    
C57   N30   1.500224 S    
C61   C67   1.679862 S    
C6    C54   1.438465 S    
O10   C5    1.281124 A    
C213  H122  1.082824 S    
C82   H13   1.068225 S    
C32   C44   1.648202 S    
C141  C142  1.392767 A    
O12   Cu1   1.948683 S    
N34   O75   1.294240 A    
C160  H78   1.071659 S    
C145  H65   1.082406 S    
N42   O91   1.304764 A    
C26   C46   1.200578 T    
C108  H34   1.072460 S    
C38   C44   1.669980 S    
C178  H93   1.051435 S    
C169  C170  1.390543 A    
C38   N24   1.497004 S    
N20   O48   1.301575 A    
C115  H40   1.082523 S    
C171  C172  1.396070 A    
C63   C68   1.679926 S    
C194  H106  1.080687 S    
N4    C76   1.171276 T    
C113  C114  1.419712 A    
C13   C31   1.600643 S    
C125  C126  1.427474 A    
C152  H71   1.080729 S    
C141  H62   1.082023 S    
C60   C173  1.607896 S    
C116  C117  1.389187 A    
C110  C111  1.392723 A    
O6    C3    1.284064 A    
N24   O55   1.300137 A    
C30   C42   1.648296 S    
C13   H6    1.096427 S    
C127  H50   1.081885 S    
O7    Cu4   1.942915 S    
C150  H69   1.061829 S    
C15   C32   1.600598 S    
C61   C215  1.603354 S    
C187  H100  1.082974 S    
C80   H11   1.082628 S    
N39   O86   1.301456 A    
C137  C142  1.427494 A    
C50   C54   1.211524 T    
C158  C159  1.390530 A    
O9    C5    1.293124 A    
C72   N41   1.496917 S    
N43   O94   1.301458 A    
C186  C187  1.397412 A    
C18   N5    1.492873 S    
N16   O40   1.301589 A    
C23   N19   1.490206 S    
C184  H98   1.059744 S    
C41   C125  1.604405 S    
C97   C98   1.391445 A    
C113  C118  1.415264 A    
C11   H4    1.096359 S    
C173  C174  1.432346 A    
C12   H3    1.086272 S    
N44   O95   1.300322 A    
C21   C35   1.627527 S    
C69   N38   1.494196 S    
C175  C176  1.387255 A    
C61   C62   1.688622 S    
C39   N25   1.489222 S    
C155  C156  1.421758 A    
C85   C86   1.391433 A    
C199  H110  1.082987 S    
C146  H66   1.082270 S    
C38   N23   1.489320 S    
C148  H68   1.071572 S    
O3    Cu2   1.942915 S    
C110  H36   1.082324 S    
N22   O51   1.300465 A    
N35   O77   1.299852 A    
C19   N8    1.489882 S    
C180  C181  1.396836 A    
C191  C192  1.429186 A    
C13   C18   1.612122 S    
C42   C143  1.589919 S    
Cu4   N4    1.988820 S    
C83   C84   1.410127 A    
C193  C194  1.383875 A    
C15   C20   1.612042 S    
Cu1   Cu2   2.648415 S    
C17   N13   1.490223 S    
C145  C146  1.388084 A    
C37   C43   1.669916 S    
C124  H48   1.081475 S    
C210  C211  1.397433 A    
C212  H121  1.080677 S    
C21   N17   1.490272 S    
C122  C123  1.392723 A    
N26   O59   1.300471 A    
N12   O31   1.302155 A    
N8    O24   1.301651 A    
N9    O26   1.302840 A    
C57   C65   1.680162 S    
C181  C182  1.383917 A    
C195  H107  1.078783 S    
C33   C37   1.654966 S    
C136  H58   1.071088 S    
C121  C122  1.391431 A    
C121  H45   1.082434 S    
C89   C90   1.419754 A    
C60   N31   1.508875 S    
C207  H117  1.078752 S    
C1    C26   1.419576 S    
C189  H102  1.082832 S    
N36   O79   1.294238 A    
C187  C188  1.387283 A    
C91   H20   1.082574 S    
C3    C28   1.419865 S    
C101  C106  1.415331 A    
C127  C128  1.386565 A    
C155  C160  1.423967 A    
C81   H12   1.080328 S    
C109  C110  1.391433 A    
C86   C87   1.392708 A    
N6    O20   1.301650 A    
O4    Cu1   1.948904 S    
C15   C113  1.566679 S    
C208  H118  1.059753 S    
C201  C202  1.395592 A    
C67   C76   1.517934 S    
C165  H82   1.082866 S    
C179  C184  1.424144 A    
C139  H60   1.082878 S    
C36   C40   1.654956 S    
N5    O18   1.302843 A    
C93   C94   1.394219 A    
C57   C58   1.688728 S    
C99   C100  1.396848 A    
N7    O21   1.300607 A    
N18   O43   1.301834 A    
C132  C133  1.396577 A    
C153  H72   1.081930 S    
C175  H90   1.083004 S    
O5    Cu3   1.942798 S    
C173  C178  1.422151 A    
O6    Cu4   1.948686 S    
C167  C172  1.421752 A    
C57   C191  1.603202 S    
C60   C65   1.672814 S    
C197  C202  1.422172 A    
C10   C21   1.601117 S    
N17   O41   1.301794 A    
C84   H14   1.072469 S    
C27   C47   1.200590 T    
C120  H44   1.072482 S    
C147  H67   1.082869 S    
N16   O39   1.301815 A    
N30   O67   1.294313 A    
C149  C150  1.423816 A    
C126  H49   1.079262 S    
O7    C4    1.280444 A    
C215  C216  1.429075 A    
C34   C38   1.654941 S    
C13   C101  1.566743 S    
O13   Cu3   1.942915 S    
C69   C70   1.688518 S    
O14   Cu4   1.948904 S    
N38   O83   1.304766 A    
C63   C64   1.688552 S    
C128  H51   1.080704 S    
C169  H85   1.082830 S    
C193  H105  1.082831 S    
C58   N29   1.509016 S    
N40   O88   1.304768 A    
N11   O30   1.302894 A    
C153  C154  1.392713 A    
C182  H96   1.080684 S    
O8    C4    1.284047 A    
C58   C185  1.607803 S    
N41   O89   1.301446 A    
N19   O46   1.303729 A    
C217  C218  1.383909 A    
O15   Cu4   1.942795 S    
C109  H35   1.082435 S    
C92   H21   1.082623 S    
N15   O38   1.303589 A    
C64   N35   1.508920 S    
C107  C112  1.415186 A    
C116  H41   1.082627 S    
C220  H128  1.059772 S    
C174  C175  1.397462 A    
C71   C72   1.688499 S    
C200  C201  1.383327 A    
N10   O28   1.301647 A    
C103  H30   1.082522 S    
C62   N33   1.508926 S    
C164  H81   1.080743 S    
C190  H103  1.051424 S    
C32   C52   1.490382 S    
C14   H5    1.086116 S    
C140  C141  1.386535 A    
C140  H61   1.080794 S    
C16   C19   1.601104 S    
C102  H29   1.072419 S    
C135  C136  1.396045 A    
C90   H19   1.072390 S    
C105  H32   1.080324 S    
C78   C79   1.397140 A    
C100  H28   1.081368 S    
C203  C204  1.429085 A    
C143  C148  1.423995 A    
C122  H46   1.082327 S    
C185  C190  1.422190 A    
C135  H57   1.082405 S    
C61   N34   1.500158 S    
C154  H73   1.079275 S    
C37   N22   1.496945 S    
C176  H91   1.080682 S    
C35   C47   1.475917 S    
C174  H89   1.074205 S    
C12   C23   1.601077 S    
N34   O76   1.306141 A    
C67   C72   1.664107 S    
C62   C209  1.607827 S    
N40   O87   1.300315 A    
C40   N27   1.489374 S    
C203  C208  1.424012 A    
C213  C214  1.395509 A    
C129  H52   1.082875 S    
N28   O63   1.300067 A    
N43   O93   1.297323 A    
C71   N42   1.494202 S    
C143  C144  1.421750 A    
C131  C136  1.421795 A    
O2    C1    1.284017 A    
O4    C2    1.284107 A    
C202  H113  1.051477 S    
C204  C205  1.396826 A    
C44   C161  1.604463 S    
N33   O74   1.299861 A    
C200  H111  1.080706 S    
Cu2   N2    1.988820 S    
C180  H94   1.060056 S    
C24   N11   1.492848 S    
C114  H39   1.072409 S    
C14   C17   1.601126 S    
C69   N39   1.496938 S    
C70   N37   1.496894 S    
N19   O45   1.301813 A    
C12   C30   1.614864 S    
C52   C56   1.211623 T    
N14   O35   1.301821 A    
C79   C80   1.390376 A    
C105  C106  1.394113 A    
C7    C55   1.438676 S    
N21   O49   1.298783 A    
C205  C206  1.383900 A    
C21   N10   1.489880 S    
O5    C3    1.280573 A    
C181  H95   1.082825 S    
N24   O56   1.300465 A    
C20   N7    1.492882 S    
C198  C199  1.397440 A    
C112  H38   1.081479 S    
C10   C29   1.614891 S    
C10   C83   1.545758 S    
C207  C208  1.396554 A    
C70   N40   1.494221 S    
C150  C151  1.397164 A    
C98   C99   1.392768 A    
C18   N14   1.495036 S    
C2    C25   1.419802 S    
N32   O71   1.294308 A    
C126  C127  1.392692 A    
O11   C6    1.292977 A    
C185  C186  1.432281 A    
N7    O22   1.302844 A    
C118  H43   1.068233 S    
N31   O69   1.299814 A    
N25   O58   1.297531 A    
C19   N15   1.490256 S    
C65   C70   1.664157 S    
C59   C66   1.679711 S    
N21   O50   1.297533 A    
C167  C168  1.423966 A    
C77   C82   1.415301 A    
N29   O66   1.299858 A    
C139  C140  1.386158 A    
C159  H77   1.082823 S    
N44   O96   1.304760 A    
N30   O68   1.306159 A    
C39   N26   1.496956 S    
C23   C36   1.627744 S    
C102  C103  1.397152 A    
C99   H27   1.079536 S    
N37   O82   1.297356 A    
C79   H10   1.082531 S    
C40   N28   1.496889 S    
C24   N20   1.495068 S    
C132  H54   1.071685 S    
C29   C49   1.490537 S    
O1    C1    1.280465 A    
C183  C184  1.396678 A    
N22   O52   1.300159 A    
C134  H56   1.082224 S    
C31   C51   1.490439 S    
C96   C97   1.396717 A    
C219  C220  1.396665 A    
C80   C81   1.389216 A    
C33   C45   1.476124 S    
C218  C219  1.384746 A    
C157  H75   1.082381 S    
C68   C71   1.664031 S    
C209  C210  1.432324 A    
N12   O32   1.301636 A    
C206  C207  1.384754 A    
N23   O53   1.297573 A    
C49   C53   1.211728 T    
C137  C138  1.423867 A    
N26   O60   1.300148 A    
N20   O47   1.301758 A    
C129  C130  1.397136 A    
C170  H86   1.082208 S    
O13   C7    1.293072 A    
C111  H37   1.079150 S    
N9    O25   1.300607 A    
C158  H76   1.082213 S    
N3    C75   1.171384 T    
C65   C74   1.518122 S    
C9    C29   1.600634 S    
C166  H83   1.061839 S    
C215  C220  1.424122 A    
C14   C31   1.614804 S    
C186  H99   1.074281 S    
N36   O80   1.306131 A    
N11   O29   1.300707 A    
C128  C129  1.386016 A    
C177  C178  1.395549 A    
C117  H42   1.080290 S    
C19   C34   1.627590 S    
C152  C153  1.386546 A    
O12   C6    1.281125 A    
C156  C157  1.396076 A    
C179  C180  1.429047 A    
C63   N36   1.500118 S    
C183  H97   1.078940 S    
C11   C89   1.566735 S    
C182  C183  1.384750 A    
N27   O62   1.298844 A    
C64   C67   1.672848 S    
C96   H24   1.072582 S    
O16   Cu3   1.948683 S    
C66   C69   1.664027 S    
C216  H124  1.060061 S    
C149  C154  1.427504 A    
C9    H2    1.096458 S    
C151  H70   1.082867 S    
C164  C165  1.386078 A    
C144  C145  1.396125 A    
N5    O17   1.300594 A    
C51   C55   1.211660 T    
C163  C164  1.386546 A    
C156  H74   1.070994 S    
N18   O44   1.301593 A    
C196  H108  1.059811 S    
C71   N43   1.496944 S    
C108  C109  1.396746 A    
C58   C66   1.672974 S    
C37   N21   1.489301 S    
C30   C50   1.490180 S    
C103  C104  1.390380 A    
C138  C139  1.397274 A    
C59   C60   1.688380 S    
C101  C102  1.419718 A    
C133  C134  1.390590 A    
C15   H8    1.096434 S    
O8    Cu3   1.948904 S    
C192  H104  1.060136 S    
C34   C46   1.475892 S    
C214  H123  1.051412 S    
C22   C35   1.629842 S    
C104  C105  1.389187 A    
C119  C124  1.415206 A    
C117  C118  1.394134 A    
C142  H63   1.079277 S    
C28   C48   1.200735 T    
C115  C116  1.390394 A    
C133  H55   1.082819 S    
C88   H18   1.081483 S    
C176  C177  1.383280 A    
N42   O92   1.300323 A    
C194  C195  1.384762 A    
C206  H116  1.080691 S    
C42   C137  1.604607 S    
C162  C163  1.392723 A    
C41   C131  1.589724 S    
C66   C73   1.518050 S    
C201  H112  1.082820 S    
C11   C30   1.600767 S    
C90   C91   1.397177 A    
N38   O84   1.300326 A    
N33   O73   1.300533 A    
C123  H47   1.079166 S    
C172  H88   1.071000 S    
C211  H120  1.082990 S    
C20   C34   1.629794 S    
C168  H84   1.071665 S    
C43   C155  1.589815 S    
C17   N6    1.489855 S    
N1    C73   1.171322 T    
N8    O23   1.302088 A    
C22   N18   1.495049 S    
C59   C179  1.603436 S    
N15   O37   1.301794 A    
C114  C115  1.397154 A    
C217  H125  1.082827 S    
C189  C190  1.395479 A    
C205  H115  1.082823 S    
C18   C33   1.629793 S    
C212  C213  1.383243 A    
C95   C100  1.415323 A    
C161  C166  1.423807 A    
O1    Cu1   1.942798 S    
N31   O70   1.300546 A    
O9    Cu1   1.942915 S    
C219  H127  1.078896 S    
C62   C68   1.672926 S    
N6    O19   1.302076 A    
C198  H109  1.074210 S    
N35   O78   1.300531 A    
C44   C167  1.589783 S    
C97   H25   1.082431 S    
C35   C39   1.654944 S    
C11   C24   1.612089 S    
O14   C7    1.281111 A    
C4    C27   1.419596 S    
O16   C8    1.281065 A    
C170  C171  1.388086 A    
C87   C88   1.396667 A    
O2    Cu2   1.948686 S    
N39   O85   1.297329 A    
C123  C124  1.396702 A    
O11   Cu2   1.942795 S    
C161  C162  1.427517 A    
C146  C147  1.390545 A    
C94   H23   1.068237 S    
O10   Cu2   1.948904 S    
C85   H15   1.082432 S    
C107  C108  1.410108 A    
C39   C41   1.669893 S    
C92   C93   1.389141 A    
C138  H59   1.061891 S    
C98   H26   1.082385 S    
C120  C121  1.396747 A    
C83   C88   1.415161 A    
N13   O33   1.301781 A    
C192  C193  1.396819 A    
C209  C214  1.422155 A    
C131  C132  1.423900 A    
C144  H64   1.070971 S    
C36   C48   1.476190 S    
C59   N32   1.499990 S    
C210  H119  1.074247 S    
C14   C107  1.545807 S    
N17   O42   1.303596 A    
C16   H7    1.086111 S    
C191  C196  1.423989 A    
C159  C160  1.396560 A    
N23   O54   1.298797 A    
C5    C53   1.438798 S    
C211  C212  1.387289 A    
N28   O64   1.300642 A    
C95   C96   1.410019 A    
C20   N16   1.495075 S    
C134  C135  1.388084 A    
C171  H87   1.082383 S    
C195  C196  1.396603 A    
C130  H53   1.061822 S    
C188  C189  1.383217 A    
C157  C158  1.388076 A    
N2    C74   1.171341 T    
C68   C75   1.518230 S    
C89   C94   1.415218 A    
C93   H22   1.080252 S    
O15   C8    1.293097 A    
C23   N12   1.489865 S    
C25   C45   1.200711 T    
C16   C32   1.614896 S    
N14   O36   1.301592 A    
C17   C33   1.627599 S    
C204  H114  1.060069 S    
C81   C82   1.394139 A    
C188  H101  1.080665 S    
C111  C112  1.396699 A    
C72   N44   1.494195 S    
C86   H16   1.082332 S    
C8    C56   1.438626 S    
C165  C166  1.397183 A    
N13   O34   1.303586 A    
O3    C2    1.280492 A    
N27   O61   1.297646 A    
C77   C78   1.419717 A    
C218  H126  1.080694 S    
N41   O90   1.297336 A    
C216  C217  1.396826 A    
C168  C169  1.396562 A    
C106  H33   1.068210 S    
N32   O72   1.306100 A    
C104  H31   1.082629 S    
C177  H92   1.082821 S    
C22   N9    1.492876 S    
C40   C42   1.669975 S    
C119  C120  1.410121 A    
C87   H17   1.079087 S    
C16   C119  1.545828 S    
Cu3   Cu4   2.648415 S    
C162  H79   1.079276 S    
C43   C149  1.604455 S    
C29   C41   1.648225 S    
N25   O57   1.298798 A    
C31   C43   1.648140 S    
N10   O27   1.302087 A    
