data_mof_unit_25082.cif
_audit_creation_date              2013-03-05T16:03:53-0500
_audit_creation_method            fapswitch 2.2
_symmetry_space_group_name_H-M    P1
_symmetry_Int_Tables_number       1
_space_group_crystal_system       triclinic
_cell_length_a                    11.062627
_cell_length_b                    10.847116
_cell_length_c                    9.598661
_cell_angle_alpha                 89.915546
_cell_angle_beta                  102.809842
_cell_angle_gamma                 92.325742
_cell_volume                      1122.19040265

loop_
_atom_site_label
_atom_site_type_symbol
_atom_site_description
_atom_site_fract_x
_atom_site_fract_y
_atom_site_fract_z
_atom_type_partial_charge
O1    O     O_R   0.499990 0.319660 0.618740 -0.570705
O2    O     O_R   0.500010 0.680340 0.381260 -0.571076
O3    O     O_R   0.499990 0.319630 0.381170 -0.561053
O4    O     O_R   0.500010 0.680370 0.618830 -0.560894
C1    C     C_R   0.501311 0.262348 0.500328 0.828018
C2    C     C_R   0.498675 0.737651 0.499671 0.828167
O5    O     O_R   0.320690 0.500020 0.575130 -0.528669
O6    O     O_R   0.679310 0.499980 0.424870 -0.528221
O7    O     O_R   0.320680 0.499990 0.337560 -0.547824
O8    O     O_R   0.679320 0.500010 0.662440 -0.548055
C3    C     C_R   0.263244 0.499740 0.441848 0.880923
C4    C     C_R   0.736766 0.500124 0.558149 0.881077
Cu1   Cu    Cu3+1 0.500000 0.500020 0.640660 1.102312
Cu2   Cu    Cu3+1 0.500000 0.499980 0.359340 1.102406
C5    C     C_R   0.413814 0.429934 0.052217 0.298208
C6    C     C_R   0.586196 0.570044 0.947791 0.298359
C7    C     C_R   0.414867 0.428608 0.904202 0.316860
C8    C     C_R   0.585012 0.571527 0.095766 0.317176
C9    C     C_2   0.128965 0.483283 0.410571 -0.274507
C10   C     C_2   0.871107 0.516123 0.589412 -0.275291
C11   C     C_2   0.063268 0.526429 0.501108 0.271900
C12   C     C_2   0.936554 0.473422 0.498343 0.271796
H1    H     H_    0.911415 0.579639 0.675531 0.210087
H2    H     H_    0.088999 0.419048 0.325089 0.209644
C13   C     C_R   0.494151 0.063662 0.372380 -0.082473
C14   C     C_R   0.505790 0.936335 0.627624 -0.082516
H3    H     H_    0.490988 0.111076 0.272659 0.212852
H4    H     H_    0.508945 0.888920 0.727345 0.212805
C15   C     C_R   0.489810 0.936028 0.371522 -0.096252
C16   C     C_R   0.510122 0.063970 0.628483 -0.096180
H5    H     H_    0.479772 0.888313 0.270580 0.208810
H6    H     H_    0.520122 0.111683 0.729426 0.208675
C17   C     C_R   0.497440 0.871601 0.499455 -0.043253
C18   C     C_R   0.502517 0.128397 0.500549 -0.043188
N1    N     N_R   0.500030 0.500030 0.852080 -0.319451
N2    N     N_R   0.499970 0.499970 0.147920 -0.319460
N3    N     N_R   0.884147 0.373699 0.401114 0.130418
O9    O     O_R   0.868496 0.387592 0.263704 -0.281527
O10   O     O_R   0.838716 0.274104 0.449579 -0.319157
N4    N     N_R   0.115293 0.626813 0.597486 0.130180
O11   O     O_R   0.131663 0.613529 0.735038 -0.281892
O12   O     O_R   0.160055 0.726309 0.548091 -0.318618
N5    N     N_R   0.318793 0.359453 0.099480 0.176926
O13   O     O_R   0.207965 0.402104 0.077164 -0.265698
O14   O     O_R   0.331592 0.241990 0.121124 -0.327097
N6    N     N_R   0.681375 0.640320 0.900586 0.177084
O15   O     O_R   0.792253 0.597713 0.923538 -0.265655
O16   O     O_R   0.668512 0.757681 0.878122 -0.326700
N7    N     N_R   0.328859 0.347017 0.811088 0.178784
O17   O     O_R   0.213180 0.375343 0.773619 -0.265030
O18   O     O_R   0.355332 0.231795 0.805339 -0.333269
N8    N     N_R   0.670434 0.653762 0.188688 0.178543
O19   O     O_R   0.786049 0.625461 0.227824 -0.265065
O20   O     O_R   0.643911 0.769172 0.192380 -0.333230

loop_
_geom_bond_atom_site_label_1
_geom_bond_atom_site_label_2
_geom_bond_distance
_ccdc_geom_bond_type
C16   H6    1.080837 S    
O7    Cu2   1.948099 S    
C10   H1    1.081724 S    
Cu1   N1    2.029276 S    
N3    O9    1.300994 A    
C13   H3    1.080326 S    
N5    O14   1.299022 A    
C6    N1    1.372730 A    
C14   C17   1.400712 A    
C14   H4    1.080336 S    
C2    C17   1.453579 S    
O5    Cu1   1.943501 S    
C13   C18   1.400693 A    
O6    C4    1.296140 A    
C1    C18   1.453575 S    
C4    C10   1.452693 S    
N4    O12   1.301540 A    
C9    H2    1.081670 S    
C8    N8    1.429828 S    
C15   H5    1.080788 S    
C11   C12   1.488106 S    
O5    C3    1.296111 A    
O7    C3    1.299107 A    
C3    C9    1.452415 S    
O2    C2    1.299535 A    
O3    Cu2   1.967158 S    
O8    C4    1.299228 A    
O1    C1    1.299514 A    
C6    C8    1.423444 A    
N4    O11   1.300888 A    
C9    C11   1.345862 D    
C10   C12   1.346070 D    
C14   C16   1.383324 A    
N5    O13   1.300924 A    
C13   C15   1.383312 A    
O2    Cu2   1.967968 S    
N6    O16   1.299093 A    
O1    Cu1   1.967967 S    
C16   C18   1.399953 A    
C5    N5    1.428459 S    
C15   C17   1.399918 A    
C5    N2    1.372753 A    
N3    O10   1.301623 A    
N8    O19   1.299872 A    
O4    C2    1.298320 A    
N7    O17   1.299586 A    
C7    N7    1.429792 S    
O4    Cu1   1.967158 S    
C5    C7    1.423478 A    
N6    O15   1.300982 A    
C6    N6    1.428436 S    
Cu2   N2    2.029275 S    
O6    Cu2   1.943500 S    
C7    N1    1.373575 A    
N7    O18   1.299204 A    
Cu1   Cu2   2.700296 S    
C12   N3    1.445462 S    
C8    N2    1.373532 A    
N8    O20   1.299645 A    
O3    C1    1.298340 A    
O8    Cu1   1.948097 S    
C11   N4    1.445234 S    
