data_mof_unit_68359.cif
_audit_creation_date              2012-12-11T19:28:05-0500
_audit_creation_method            fapswitch 2.2
_symmetry_space_group_name_H-M    P1
_symmetry_Int_Tables_number       1
_space_group_crystal_system       triclinic
_cell_length_a                    8.637835
_cell_length_b                    15.197901
_cell_length_c                    16.708513
_cell_angle_alpha                 111.790732
_cell_angle_beta                  98.254695
_cell_angle_gamma                 80.429451
_cell_volume                      2000.32313737

loop_
_atom_site_label
_atom_site_type_symbol
_atom_type_description
_atom_site_fract_x
_atom_site_fract_y
_atom_site_fract_z
_atom_type_partial_charge
Ba1   Ba    Ba6+2 0.364200 0.465260 0.540900 1.707335
Ba2   Ba    Ba6+2 0.825630 0.534670 0.459090 1.717616
C1    C     C_3   0.205372 0.169007 0.768154 -0.165819
C2    C     C_R   0.901895 0.533052 0.754073 -0.098409
C3    C     C_2   0.501200 0.421405 0.140964 -0.133958
C4    C     C_3   0.628276 0.300266 0.752037 0.263777
C5    C     C_2   0.468097 0.438783 0.222982 -0.004917
C6    C     C_2   0.196640 0.517503 0.195540 0.018085
C7    C     C_3   0.223650 0.483935 0.100102 0.035971
C8    C     C_3   0.398125 0.473066 0.086904 -0.020496
C9    C     C_2   0.121179 0.531774 0.040904 0.138952
C10   C     C_2   0.072380 0.474973 0.959853 0.170765
C11   C     C_R   0.816053 0.553878 0.915740 0.038813
C12   C     C_3   0.190391 0.244220 0.724295 0.520979
C13   C     C_R   0.969506 0.512211 0.895124 -0.079702
C14   C     C_R   0.705296 0.581905 0.857033 -0.158610
C15   C     C_R   0.743662 0.570473 0.774708 0.040307
C16   C     C_3   0.610650 0.274975 0.830450 -0.045999
C17   C     C_R   0.011098 0.498351 0.811016 0.017431
C18   C     C_R   0.327102 0.815649 0.442850 -0.023058
C19   C     C_R   0.261556 0.909307 0.448353 -0.040082
C20   C     C_R   0.127193 0.095882 0.450387 0.006287
C21   C     C_R   0.265727 0.048561 0.409641 0.156165
C22   C     C_R   0.337337 0.962272 0.416719 -0.121648
C23   C     C_3   0.044844 0.788805 0.757704 0.517815
C24   C     C_R   0.065395 0.193260 0.461385 -0.019170
C25   C     C_R   0.923099 0.231509 0.500770 -0.298237
C26   C     C_R   0.102246 0.804511 0.513174 0.009450
C27   C     C_R   0.033914 0.897919 0.516213 0.036870
C28   C     C_3   0.703988 0.185560 0.256824 0.441191
C29   C     C_R   0.112909 0.948955 0.480956 0.016751
C30   C     C_R   0.891643 0.944535 0.554597 0.176325
C31   C     C_R   0.821701 0.029484 0.546216 -0.126923
C32   C     C_R   0.900668 0.082720 0.516987 -0.049346
C33   C     C_R   0.047350 0.042809 0.482974 0.000234
C34   C     C_3   0.057862 0.876866 0.843507 -0.073005
C35   C     C_R   0.839930 0.177486 0.527415 0.065376
C36   C     C_R   0.243030 0.763339 0.472192 -0.276462
C37   C     C_3   0.716129 0.096632 0.170276 0.027153
C38   C     C_3   0.540687 0.801387 0.698881 0.348360
C39   C     C_3   0.528861 0.911057 0.754811 -0.194802
C40   C     C_3   0.232233 0.284653 0.278199 0.261324
C41   C     C_3   0.240775 0.237400 0.178431 -0.202104
C42   C     C_2   0.419017 0.940036 0.824255 0.501549
C43   C     C_2   0.679125 0.945646 0.801073 0.464621
C44   C     C_2   0.307252 0.133851 0.151400 0.453653
C45   C     C_3   0.446167 0.727525 0.232191 0.445850
C46   C     C_2   0.084448 0.246148 0.127073 0.559238
C47   C     C_2   0.114381 0.087832 0.716301 0.457098
C48   C     C_2   0.316288 0.803325 0.221287 0.436591
C49   C     C_2   0.640178 0.357330 0.102101 0.602443
C50   C     C_2   0.858448 0.330626 0.516942 0.618960
C51   C     C_2   0.300825 0.663656 0.461111 0.486096
C52   C     C_2   0.660405 0.153336 0.324049 0.444475
C53   C     C_3   0.530972 0.673903 0.149115 0.020244
C54   C     C_3   0.958311 0.744145 0.284883 0.425128
C55   C     C_3   0.905939 0.834407 0.263657 -0.324635
C56   C     C_2   0.317376 0.498566 0.250953 -0.199040
H1    H     H_    0.609189 0.060203 0.158412 0.109984
H2    H     H_    0.389960 0.673429 0.244329 -0.247700
H3    H     H_    0.610997 0.612500 0.158472 0.129201
H4    H     H_    0.444284 0.644859 0.093090 0.028171
H5    H     H_    0.089066 0.735536 0.296039 -0.175227
H6    H     H_    0.906482 0.753421 0.345090 0.065845
H7    H     H_    0.961176 0.895217 0.312905 0.052406
H8    H     H_    0.776300 0.852829 0.263893 0.157495
H9    H     H_    0.511075 0.329674 0.730338 0.108594
H10   H     H_    0.941447 0.824154 0.199192 0.147285
H11   H     H_    0.588988 0.614130 0.876851 0.116541
H12   H     H_    0.636335 0.783374 0.656014 0.093601
H13   H     H_    0.301268 0.516566 0.316603 0.022369
H14   H     H_    0.448821 0.934048 0.389504 0.090025
H15   H     H_    0.708512 0.056492 0.571385 0.126922
H16   H     H_    0.707935 0.356287 0.770864 -0.010636
H17   H     H_    0.547007 0.337240 0.878710 0.127910
H18   H     H_    0.540165 0.214807 0.809994 0.138979
H19   H     H_    0.272445 0.249292 0.616306 0.206660
H20   H     H_    0.390053 0.177796 0.662160 0.193705
H21   H     H_    0.744085 0.063706 0.041875 0.219988
H22   H     H_    0.610573 0.157114 0.081887 0.208761
H23   H     H_    0.485153 0.951792 0.711041 0.074375
H24   H     H_    0.954106 0.047884 0.164582 0.211108
H25   H     H_    0.836314 0.961280 0.127340 0.205917
H26   H     H_    0.313353 0.842650 0.654087 0.186071
H27   H     H_    0.342553 0.731313 0.655258 0.215193
H28   H     H_    0.316480 0.991808 0.824136 0.036404
H29   H     H_    0.742786 0.912127 0.844537 0.066370
H30   H     H_    0.195744 0.423786 0.360460 0.186555
H31   H     H_    0.033659 0.381932 0.297369 0.249574
H32   H     H_    0.346599 0.100941 0.199201 0.023504
H33   H     H_    0.001078 0.196164 0.116193 0.010285
H34   H     H_    0.352810 0.286594 0.309918 0.126155
H35   H     H_    0.962489 0.305076 0.754672 0.124600
H36   H     H_    0.010516 0.312024 0.664472 0.118090
H37   H     H_    0.987047 0.099843 0.708853 0.042030
H38   H     H_    0.888569 0.723339 0.792007 0.118344
H39   H     H_    0.871899 0.707228 0.686964 0.161149
H40   H     H_    0.154437 0.686922 0.808381 0.129800
H41   H     H_    0.276429 0.745473 0.784954 0.202504
H42   H     H_    0.921652 0.839597 0.917231 0.182072
H43   H     H_    0.118671 0.808967 0.932793 0.204944
H44   H     H_    0.819738 0.308026 0.899519 0.223494
H45   H     H_    0.330580 0.140397 0.777342 0.085006
H46   H     H_    0.831058 0.196814 0.823823 0.215896
H47   H     H_    0.236560 0.837955 0.270914 -0.043154
H48   H     H_    0.550173 0.774211 0.096741 0.223264
H49   H     H_    0.704243 0.690472 0.086583 0.203732
H50   H     H_    0.707331 0.307933 0.130341 0.024050
H51   H     H_    0.893941 0.558923 0.636015 0.196292
H52   H     H_    0.056900 0.570961 0.696514 0.203555
H53   H     H_    0.134329 0.664616 0.129938 0.170985
H54   H     H_    0.171152 0.651564 0.030285 0.183717
H55   H     H_    0.223705 0.353515 0.934491 0.202109
H56   H     H_    0.321705 0.274572 0.159713 0.066281
H57   H     H_    0.042311 0.340596 0.882990 0.152528
H58   H     H_    0.314126 0.027993 0.290254 0.167222
H59   H     H_    0.448084 0.080378 0.369528 0.206138
H60   H     H_    0.865807 0.962968 0.676661 0.224693
H61   H     H_    0.705608 0.927887 0.608831 0.187053
H62   H     H_    0.877498 0.384190 0.579485 -0.042409
H63   H     H_    0.223831 0.611569 0.427157 0.012941
H64   H     H_    0.930768 0.168354 0.299313 0.142250
H65   H     H_    0.890442 0.235567 0.235967 0.176859
H66   H     H_    0.688971 0.079372 0.319511 -0.076354
H67   H     H_    0.981322 0.940520 0.838409 0.142389
H68   H     H_    0.174913 0.898074 0.853788 0.137888
H69   H     H_    0.162640 0.199267 0.833102 0.051038
N1    N     N_3   0.272768 0.199739 0.645656 -0.478759
N2    N     N_3   0.762479 0.247266 0.870786 -0.410177
N3    N     N_3   0.623621 0.734900 0.130100 -0.456793
N4    N     N_3   0.962665 0.531547 0.677849 -0.478812
N5    N     N_3   0.097020 0.633662 0.064617 -0.488832
N6    N     N_3   0.103293 0.374280 0.941077 -0.448946
N7    N     N_3   0.327613 0.080058 0.351924 -0.457364
N8    N     N_3   0.828843 0.917435 0.615356 -0.428719
N9    N     N_3   0.852859 0.222795 0.286554 -0.432132
N10   N     N_3   0.722668 0.125247 0.096261 -0.486702
N11   N     N_3   0.852911 0.026876 0.176479 -0.532730
N12   N     N_3   0.394873 0.781757 0.643882 -0.490147
N13   N     N_3   0.153966 0.381808 0.298476 -0.515632
N14   N     N_3   0.023024 0.268252 0.700455 -0.510753
N15   N     N_3   0.891342 0.756951 0.748139 -0.503692
N16   N     N_3   0.172327 0.714130 0.761880 -0.476688
N17   N     N_3   0.032105 0.861069 0.921851 -0.482947
O1    O     O_2   0.428380 0.595300 0.716110 -0.454404
O2    O     O_2   0.652456 0.813486 0.462023 -0.480515
O3    O     O_3   0.557947 0.769640 0.300696 -0.618264
O4    O     O_3   0.649320 0.571650 0.606870 -0.452154
O5    O     O_3   0.067580 0.379340 0.450790 -0.483969
O6    O     O_2   0.850900 0.734750 0.551740 -0.446878
O7    O     O_3   0.060871 0.819546 0.688945 -0.624697
O8    O     O_2   0.879488 0.486994 0.186476 -0.425639
O9    O     O_3   0.905636 0.664936 0.216148 -0.581800
O10   O     O_3   0.202060 0.415880 0.655570 -0.478830
O11   O     O_2   0.338914 0.496180 0.813332 -0.499453
O12   O     O_3   0.153707 0.230936 0.308364 -0.643877
O13   O     O_3   0.570143 0.746901 0.753330 -0.622265
O14   O     O_3   0.263892 0.324478 0.783388 -0.653060
O15   O     O_2   0.338790 0.265210 0.448200 -0.391931
O16   O     O_3   0.612600 0.359140 0.609510 -0.487209
O17   O     O_2   0.517217 0.186112 0.539490 -0.474363
O18   O     O_2   0.449221 0.910543 0.884348 -0.551985
O19   O     O_2   0.717539 0.018932 0.800029 -0.617067
O20   O     O_2   0.321193 0.086199 0.075134 -0.550492
O21   O     O_2   0.053855 0.306206 0.093047 -0.540282
O22   O     O_2   0.182766 0.008250 0.682825 -0.632244
O23   O     O_3   0.686912 0.217393 0.686343 -0.639278
O24   O     O_2   0.294821 0.824968 0.156763 -0.601153
O25   O     O_2   0.684258 0.361120 0.037607 -0.557238
O26   O     O_2   0.777646 0.352367 0.460236 -0.496901
O27   O     O_2   0.421301 0.640503 0.499966 -0.513074
O28   O     O_2   0.602474 0.211434 0.387638 -0.543167
O29   O     O_2   0.761310 0.404660 0.283830 -0.490562
O30   O     O_3   0.540390 0.428270 0.393120 -0.396678
O31   O     O_3   0.987650 0.584040 0.344420 -0.515494
O32   O     O_3   0.583866 0.255302 0.243137 -0.696728
O33   O     O_3   0.122130 0.620580 0.549200 -0.489518
O34   O     O_3   0.577110 0.640790 0.390470 -0.416338
P1    P     P_3+3 0.592580 0.619750 0.703570 1.020405
P2    P     P_3+3 0.156510 0.273300 0.422380 1.020709
P3    P     P_3+3 0.662250 0.236660 0.587961 0.973127
P4    P     P_3+3 0.597130 0.380170 0.296420 1.054819
P5    P     P_3+3 0.523191 0.759638 0.398167 0.979770
P6    P     P_3+3 0.204051 0.434338 0.767047 0.914775
P7    P     P_3+3 0.033994 0.742000 0.577922 0.975516
P8    P     P_3+3 0.995136 0.561315 0.234540 0.991964

loop_
_geom_bond_atom_site_label_1
_geom_bond_atom_site_label_2
_ccdc_geom_bond_type
Ba2   O6    S    
C37   N10   S    
C16   H17   S    
H40   N16   S    
C32   C35   A    
Ba1   P1    S    
Ba1   O1    S    
C23   N15   S    
H44   N2    S    
O15   P2    D    
H20   N1    S    
C9    N5    S    
O30   P4    S    
O6    P7    D    
C1    C47   S    
C12   N1    S    
C40   O12   S    
C13   C17   A    
C20   C33   A    
C28   C52   S    
C24   C25   A    
C38   H12   S    
O2    P5    D    
C12   O14   S    
H41   N16   S    
C26   C27   A    
C43   H29   S    
C32   C33   A    
C27   C30   A    
C41   H56   S    
Ba2   P4    S    
H43   N17   S    
C1    H69   S    
C56   H13   S    
H58   N7    S    
O9    P8    S    
Ba2   O4    S    
H22   N10   S    
C53   H4    S    
O33   P7    S    
C54   C55   S    
O7    P7    S    
Ba1   Ba2   S    
O13   P1    S    
H30   N13   S    
C6    C56   D    
C45   H2    S    
C2    C17   A    
Ba1   O33   S    
C46   O21   D    
C34   H67   S    
H26   N12   S    
C6    C7    S    
C46   H33   S    
O10   P6    S    
H51   N4    S    
C48   H47   S    
C21   C22   A    
C54   H6    S    
Ba1   O5    S    
Ba2   O33   S    
C2    N4    S    
C41   C46   S    
C55   H8    S    
C5    C56   S    
O34   P5    S    
C5    P4    S    
C15   P1    S    
Ba2   O5    S    
C37   N11   S    
C37   H1    S    
C44   O20   D    
O17   P3    D    
O1    P1    D    
C23   N16   S    
C42   O18   D    
H49   N3    S    
C42   H28   S    
H59   N7    S    
C28   O32   S    
C4    H16   S    
C45   C48   S    
C4    C16   S    
C45   O3    S    
Ba1   O30   S    
C38   N12   S    
C40   N13   S    
C52   O28   D    
C38   O13   S    
Ba1   O15   S    
O8    P8    D    
H42   N17   S    
C50   O26   D    
H27   N12   S    
C3    C5    D    
O11   P6    D    
C14   C15   A    
H57   N6    S    
C6    P8    S    
O5    P2    S    
H61   N8    S    
H54   N5    S    
O32   P4    S    
Ba2   O31   S    
C18   C36   A    
C10   C13   S    
C26   C36   A    
C39   H23   S    
C27   C29   A    
C53   N3    S    
C35   P3    S    
C19   C29   A    
C31   C32   A    
C54   H5    S    
H52   N4    S    
C47   H37   S    
H19   N1    S    
C7    C9    S    
H64   N9    S    
C1    C12   S    
C18   P5    S    
C2    C15   A    
C50   H62   S    
C31   H15   S    
C4    H9    S    
H21   N10   S    
O29   P4    D    
C49   H50   S    
O4    P1    S    
C28   N9    S    
H46   N2    S    
C11   C13   A    
C48   O24   D    
C39   C42   S    
C29   C33   A    
C19   C22   A    
C40   C41   S    
C55   H10   S    
O16   P3    S    
H35   N14   S    
C25   C50   S    
C22   H14   S    
C45   C53   S    
C7    C8    S    
O3    P5    S    
H48   N3    S    
C52   H66   S    
C4    O23   S    
C38   C39   S    
C16   H18   S    
C21   N7    S    
H36   N14   S    
Ba1   O16   S    
C34   H68   S    
C14   H11   S    
C55   H7    S    
C54   O9    S    
C16   N2    S    
C17   P6    S    
C30   N8    S    
C9    C10   D    
C44   H32   S    
C24   P2    S    
C23   O7    S    
H65   N9    S    
C10   N6    S    
C30   C31   A    
C43   O19   D    
C47   O22   D    
Ba2   O29   S    
C51   H63   S    
C26   P7    S    
Ba2   O30   S    
O31   P8    S    
O12   P2    S    
O23   P3    S    
C36   C51   S    
C25   C35   A    
C1    H45   S    
C53   H3    S    
Ba1   P2    S    
C28   C37   S    
C40   H34   S    
C34   N17   S    
Ba1   O10   S    
C41   C44   S    
H39   N15   S    
C12   N14   S    
C51   O27   D    
C23   C34   S    
H38   N15   S    
H53   N5    S    
C3    C8    S    
C18   C19   A    
H24   N11   S    
C20   C24   A    
C11   C14   A    
C39   C43   S    
C20   C21   A    
C3    C49   S    
Ba1   O4    S    
H55   N6    S    
Ba2   O34   S    
O14   P6    S    
H31   N13   S    
H25   N11   S    
H60   N8    S    
C49   O25   D    
