data_mof_unit_33668.cif
_audit_creation_date              2012-12-11T14:27:06-0500
_audit_creation_method            fapswitch 2.2
_symmetry_space_group_name_H-M    P1
_symmetry_Int_Tables_number       1
_space_group_crystal_system       triclinic
_cell_length_a                    15.115065
_cell_length_b                    14.890484
_cell_length_c                    15.147235
_cell_angle_alpha                 109.764255
_cell_angle_beta                  109.771753
_cell_angle_gamma                 109.02359
_cell_volume                      2619.55407198

loop_
_atom_site_label
_atom_site_type_symbol
_atom_type_description
_atom_site_fract_x
_atom_site_fract_y
_atom_site_fract_z
_atom_type_partial_charge
C1    C     C_R   0.928772 0.744209 0.024546 -0.099087
C2    C     C_R   0.222831 0.755058 0.312967 -0.044675
C3    C     C_R   0.931479 0.409065 0.217662 0.433828
C4    C     C_R   0.785019 0.202740 0.695566 -0.147890
C5    C     C_R   0.313164 0.591607 0.035522 -0.111901
C6    C     C_R   0.985414 0.500726 0.318729 0.020517
C7    C     C_R   0.325586 0.500465 0.013723 0.021138
C8    C     C_R   0.324148 0.780809 0.322674 0.135070
C9    C     C_R   0.972356 0.151287 0.968413 0.051313
C10   C     C_3   0.546291 0.494878 0.951287 0.230757
C11   C     C_3   0.434607 0.481116 0.928547 0.247767
C12   C     C_R   0.688992 0.145186 0.690239 0.027930
C13   C     C_3   0.532629 0.403570 0.065317 -0.310921
C14   C     C_3   0.630941 0.612734 0.155361 -0.323394
C15   C     C_3   0.607527 0.504832 0.064259 0.082925
C16   C     C_R   0.098333 0.591909 0.796297 -0.087702
C17   C     C_3   0.426476 0.500214 0.032391 0.147024
C18   C     C_3   0.431910 0.410326 0.060642 -0.403367
C19   C     C_3   0.524560 0.613287 0.131236 -0.455261
C20   C     C_2   0.449326 0.854759 0.518607 -0.122205
C21   C     C_2   0.429709 0.830854 0.417801 -0.272811
C22   C     C_2   0.557738 0.947072 0.609695 -0.095964
C23   C     C_R   0.071243 0.500960 0.704880 -0.161633
C24   C     C_2   0.598497 0.038202 0.601755 -0.206138
C25   C     C_2   0.042233 0.420005 0.525673 -0.429451
C26   C     C_2   0.112448 0.496197 0.629801 0.567739
C27   C     C_2   0.052664 0.439597 0.442279 -0.076066
C28   C     C_R   0.705474 0.411951 0.010512 -0.077558
C29   C     C_2   0.008690 0.499172 0.417834 -0.123323
C30   C     C_2   0.911082 0.957241 0.850520 -0.052591
C31   C     C_2   0.950686 0.041733 0.949451 -0.187644
C32   C     C_2   0.910913 0.856077 0.840320 -0.108250
C33   C     C_2   0.885439 0.818141 0.901305 -0.128829
C34   C     C_R   0.706392 0.503969 0.073697 -0.029278
C35   C     C_R   0.007445 0.409452 0.704195 -0.079246
C36   C     C_R   0.796242 0.593171 0.100594 -0.009605
C37   C     C_R   0.695268 0.204869 0.785808 0.511626
C38   C     C_R   0.017207 0.743333 0.931951 -0.062135
C39   C     C_R   0.939677 0.766975 0.947009 0.100862
C40   C     C_2   0.035682 0.154569 0.834736 0.950917
C41   C     C_2   0.588861 0.389086 0.159336 1.074782
C42   C     C_2   0.366656 0.798369 0.541988 1.110737
C43   C     C_2   0.183836 0.706122 0.845752 1.050713
C44   C     C_2   0.615196 0.935100 0.703266 1.141422
C45   C     C_R   0.023525 0.592206 0.309627 -0.128808
C46   C     C_2   0.105187 0.391593 0.387752 1.189779
C47   C     C_2   0.001499 0.303255 0.650321 1.011942
C48   C     C_R   0.224547 0.408398 0.953584 -0.004329
C49   C     C_R   0.312529 0.755286 0.222085 -0.089883
C50   C     C_R   0.930441 0.208363 0.016960 -0.024016
C51   C     C_R   0.016305 0.205437 0.922583 -0.060890
Cl1   Cl    Cl    0.829330 0.280595 0.178226 -0.627050
Cl2   Cl    Cl    0.618770 0.609505 0.939876 -0.639993
Cl3   Cl    Cl    0.331681 0.348086 0.811581 -0.589564
Cl4   Cl    Cl    0.246751 0.589648 0.672936 -0.520072
Cl5   Cl    Cl    0.603844 0.155500 0.827195 -0.601775
H1    H     H_    0.875130 0.753384 0.054704 0.147812
H2    H     H_    0.502475 0.327853 0.988979 0.170758
H3    H     H_    0.359497 0.327835 0.999576 0.206289
H4    H     H_    0.670724 0.621315 0.236363 0.211895
H5    H     H_    0.686609 0.686881 0.160138 0.192698
H6    H     H_    0.529104 0.680708 0.113446 0.186660
H7    H     H_    0.516083 0.632209 0.204637 0.198246
H8    H     H_    0.433925 0.430844 0.139400 0.202895
H9    H     H_    0.498214 0.862934 0.406334 0.153498
H10   H     H_    0.554975 0.039686 0.529128 0.161967
H11   H     H_    0.959959 0.363415 0.500465 0.188655
H12   H     H_    0.205249 0.324646 0.912872 0.154305
H13   H     H_    0.980247 0.539448 0.467165 0.155259
H14   H     H_    0.890166 0.965946 0.779215 0.155492
H15   H     H_    0.970451 0.031792 0.020220 0.160936
H16   H     H_    0.950607 0.826899 0.799175 0.149319
H17   H     H_    0.653578 0.329620 0.988291 0.203273
H18   H     H_    0.840493 0.844952 0.936584 0.167595
H19   H     H_    0.828478 0.678696 0.156871 0.091099
H20   H     H_    0.042753 0.751039 0.875441 0.093589
H21   H     H_    0.058127 0.676374 0.371057 0.125548
H22   H     H_    0.991700 0.098228 0.677481 0.338337
H23   H     H_    0.377585 0.774312 0.205041 0.106088
H24   H     H_    0.661561 0.446356 0.320672 0.336603
H25   H     H_    0.306376 0.810277 0.642995 0.370622
H26   H     H_    0.304852 0.847593 0.983361 0.344438
H27   H     H_    0.742242 0.001957 0.850388 0.332134
H28   H     H_    0.071146 0.265567 0.418486 0.312203
H29   H     H_    0.085837 0.224053 0.635647 0.355268
H30   H     H_    0.875315 0.176404 0.042433 0.183621
H31   H     H_    0.205136 0.773844 0.377731 0.097508
H32   H     H_    0.371886 0.674080 0.063398 0.127400
H33   H     H_    0.536422 0.421976 0.886457 0.160454
H34   H     H_    0.422762 0.542196 0.906593 0.171482
H35   H     H_    0.809210 0.170041 0.639101 0.211948
N1    N     N_R   0.993980 0.704500 0.053430 -0.061071
N2    N     N_R   0.053690 0.556380 0.849240 -0.069731
N3    N     N_R   0.790390 0.443640 0.997160 -0.045700
N4    N     N_R   0.998260 0.443670 0.792970 -0.070769
N5    N     N_R   0.845830 0.556350 0.053430 -0.053962
N6    N     N_R   0.792820 0.295510 0.849240 -0.099639
N7    N     N_R   0.051260 0.704510 0.997160 -0.037809
N8    N     N_R   0.001740 0.556330 0.207030 -0.076002
N9    N     N_R   0.154170 0.443650 0.946570 -0.059451
N10   N     N_R   0.207180 0.704490 0.150760 -0.036114
N11   N     N_R   0.948740 0.295490 0.002840 -0.055087
N12   N     N_R   0.006020 0.295500 0.946570 -0.080734
N13   N     N_R   0.149890 0.704480 0.207030 -0.061188
N14   N     N_R   0.946310 0.443620 0.150760 -0.083471
N15   N     N_R   0.209610 0.556360 0.002840 -0.035758
N16   N     N_R   0.850110 0.295520 0.792970 -0.078536
Ni1   Ni    Ni4+2 0.997880 0.629240 0.129060 0.220142
Ni2   Ni    Ni4+2 0.002120 0.370760 0.870940 0.271909
Ni3   Ni    Ni4+2 0.129260 0.629260 0.000000 0.276556
Ni4   Ni    Ni4+2 0.870740 0.370740 0.000000 0.306151
O1    O     O_2   0.096544 0.116680 0.848401 -0.614742
O2    O     O_R   0.718274 0.018475 0.789608 -0.810061
O3    O     O_2   0.147190 0.435036 0.346341 -0.571548
O4    O     O_R   0.110767 0.299011 0.385796 -0.739697
O5    O     O_2   0.918312 0.225981 0.567596 -0.661222
O6    O     O_R   0.095854 0.296457 0.686073 -0.725347
O7    O     O_R   0.979419 0.143769 0.734139 -0.805964
O8    O     O_2   0.600331 0.308352 0.141206 -0.566787
O9    O     O_R   0.625668 0.465900 0.265954 -0.808389
O10   O     O_2   0.302760 0.699605 0.482546 -0.587633
O11   O     O_R   0.365233 0.857730 0.634910 -0.727195
O12   O     O_2   0.193452 0.746028 0.788804 -0.589183
O13   O     O_R   0.250440 0.770150 0.958617 -0.815161
O14   O     O_2   0.572438 0.849961 0.703570 -0.588182

loop_
_geom_bond_atom_site_label_1
_geom_bond_atom_site_label_2
_ccdc_geom_bond_type
C40   O7    S    
H24   O9    S    
N7    Ni3   S    
C6    C45   A    
C27   C29   D    
H27   O2    S    
C25   H11   S    
C38   N7    A    
C3    C6    A    
C35   C47   S    
C26   Cl4   S    
C13   C41   S    
N1    N7    A    
C40   O1    D    
C38   H20   S    
C3    N14   A    
N8    Ni1   S    
C16   N2    A    
C33   C39   S    
C46   O4    S    
H22   O7    S    
C10   C15   S    
C49   N10   A    
C30   C31   D    
N6    Ni4   S    
C19   H6    S    
C51   N12   A    
N3    Ni4   S    
C28   N3    A    
C23   C26   S    
C12   C37   A    
C10   Cl2   S    
C1    N1    A    
C37   Cl5   S    
N1    Ni1   S    
C22   C44   S    
C10   H33   S    
C19   H7    S    
C7    C17   S    
C9    C51   A    
C4    C12   A    
C15   C34   S    
C24   H10   S    
N2    Ni3   S    
C4    H35   S    
C31   H15   S    
N5    Ni1   S    
C28   C34   A    
N9    Ni2   S    
N2    N4    A    
N16   Ni2   S    
N11   Ni4   S    
N8    N14   A    
C28   H17   S    
H26   O13   S    
C30   H14   S    
C8    C21   S    
C29   H13   S    
C5    N15   A    
C47   O5    D    
C48   N9    A    
C4    N16   A    
C44   O14   D    
C46   O3    D    
C32   H16   S    
N4    Ni2   S    
C5    C7    A    
C9    C31   S    
C13   H2    S    
C25   C26   D    
C14   H5    S    
C41   O8    D    
C49   H23   S    
N3    N5    A    
C36   H19   S    
C1    H1    S    
C33   H18   S    
C36   N5    A    
C1    C39   A    
C2    N13   A    
C17   C18   S    
C2    H31   S    
C48   H12   S    
H29   O6    S    
C16   C43   S    
C11   Cl3   S    
C13   C18   S    
C27   C46   S    
C20   C22   S    
C44   O2    S    
C50   N11   A    
H28   O4    S    
C23   C35   A    
C13   C15   S    
C45   N8    A    
C22   C24   D    
C25   C27   S    
C43   O12   D    
N13   Ni1   S    
C42   O11   S    
N15   Ni3   S    
C11   C17   S    
C21   H9    S    
C37   N6    A    
C14   C19   S    
C2    C8    A    
C9    C50   A    
C20   C42   S    
C3    Cl1   S    
C35   N4    A    
C16   C23   A    
C40   C51   S    
C14   H4    S    
C12   C24   S    
N9    N15   A    
H25   O11   S    
N12   Ni2   S    
C7    C48   A    
N10   Ni3   S    
C32   C33   D    
C30   C32   S    
C11   H34   S    
C18   H8    S    
C38   C39   A    
C43   O13   S    
C17   C19   S    
C34   C36   A    
C41   O9    S    
N14   Ni4   S    
N11   N12   A    
C10   C11   S    
C50   H30   S    
N6    N16   A    
C18   H3    S    
C47   O6    S    
C6    C29   S    
C20   C21   D    
C5    H32   S    
C14   C15   S    
C45   H21   S    
N10   N13   A    
C8    C49   A    
C42   O10   D    
