data_mof_unit_65933.cif
_audit_creation_date              2013-03-05T16:03:45-0500
_audit_creation_method            fapswitch 2.2
_symmetry_space_group_name_H-M    P1
_symmetry_Int_Tables_number       1
_space_group_crystal_system       triclinic
_cell_length_a                    21.700721
_cell_length_b                    21.709219
_cell_length_c                    22.085341
_cell_angle_alpha                 60.424768
_cell_angle_beta                  119.674217
_cell_angle_gamma                 90.878041
_cell_volume                      7492.37870451

loop_
_atom_site_label
_atom_site_type_symbol
_atom_site_description
_atom_site_fract_x
_atom_site_fract_y
_atom_site_fract_z
_atom_type_partial_charge
O1    O     O_R   0.592630 0.447740 0.499990 -0.609055
O2    O     O_R   0.592590 0.552250 0.500040 -0.604190
C1    C     C_R   0.621527 0.499966 0.501040 0.905079
O3    O     O_R   0.438420 0.509360 0.376750 -0.596978
O4    O     O_R   0.438370 0.613870 0.376810 -0.612118
C2    C     C_R   0.419004 0.580810 0.337989 0.851387
Zn1   Zn    Zn3+2 0.500030 0.430220 0.499960 1.126312
Zn2   Zn    Zn3+2 0.499970 0.569780 0.500040 1.097630
O5    O     O_R   0.407410 0.447750 0.499960 -0.517553
O6    O     O_R   0.407370 0.552260 0.500010 -0.614533
O7    O     O_R   0.561630 0.386130 0.623190 -0.578753
O8    O     O_R   0.561580 0.490640 0.623250 -0.587871
C3    C     C_R   0.378091 0.500628 0.498136 0.954158
C4    C     C_R   0.581516 0.419220 0.662019 0.935071
C5    C     C_3   0.291180 0.757077 0.972252 0.301466
C6    C     C_3   0.296500 0.781682 0.028401 0.379125
H1    H     H_    0.181867 0.873869 0.949835 0.198755
C7    C     C_1   0.373938 0.624714 0.249261 -0.089195
C8    C     C_1   0.124801 0.874472 0.750834 -0.106690
C9    C     C_3   0.283009 0.683170 0.026602 0.271988
C10   C     C_3   0.288950 0.707357 0.083627 -0.016304
C11   C     C_3   0.198216 0.717885 0.971283 0.326466
C12   C     C_3   0.206232 0.792008 0.916506 -0.009898
C13   C     C_3   0.203444 0.742391 0.027914 -0.162774
C14   C     C_3   0.211002 0.818017 0.972449 -0.386554
C15   C     C_1   0.335600 0.661948 0.174353 0.183941
C16   C     C_1   0.161673 0.837110 0.825785 0.137373
C17   C     C_3   0.727310 0.423015 0.523799 0.185098
C18   C     C_3   0.806576 0.422597 0.540917 0.143920
H2    H     H_    0.817524 0.399801 0.511378 0.151472
H3    H     H_    0.733709 0.530031 0.376220 0.211802
C19   C     C_3   0.668332 0.566017 0.410126 0.163189
C20   C     C_3   0.747985 0.518716 0.568546 0.183968
C21   C     C_3   0.689936 0.501472 0.501442 -0.224982
C22   C     C_3   0.811172 0.503763 0.502116 -0.149517
C23   C     C_3   0.739889 0.557031 0.409898 0.046886
C24   C     C_3   0.814226 0.531029 0.556784 0.238649
H4    H     H_    0.806850 0.591767 0.520841 0.192166
C25   C     C_3   0.712062 0.215087 0.026940 0.328108
C26   C     C_3   0.690611 0.301004 0.972249 -0.340433
H5    H     H_    0.641098 0.341050 0.949817 0.203213
C27   C     C_1   0.626371 0.375465 0.750784 -0.080729
C28   C     C_1   0.875198 0.125668 0.249207 -0.083769
C29   C     C_3   0.730318 0.209104 0.970985 0.351431
C30   C     C_3   0.710296 0.294269 0.916461 -0.048641
C31   C     C_3   0.811344 0.204197 0.026768 0.249799
C32   C     C_3   0.793370 0.209373 0.083553 0.014607
C33   C     C_3   0.792158 0.289448 0.972294 -0.207561
C34   C     C_3   0.773204 0.294414 0.028730 0.354513
C35   C     C_1   0.664303 0.338745 0.825713 0.158206
C36   C     C_1   0.838189 0.163550 0.174275 0.187732
C37   C     C_3   0.269003 0.447759 0.470816 0.324115
C38   C     C_3   0.193201 0.456762 0.462970 -0.007416
H6    H     H_    0.189922 0.400801 0.502013 0.129520
H7    H     H_    0.261048 0.403535 0.621529 0.144294
C39   C     C_3   0.333487 0.468434 0.592803 -0.170189
C40   C     C_3   0.253538 0.584723 0.432257 0.075063
C41   C     C_3   0.310199 0.500648 0.498678 -0.282650
C42   C     C_3   0.189076 0.502742 0.498181 -0.064113
C43   C     C_3   0.260397 0.462951 0.590820 -0.055989
C44   C     C_3   0.184874 0.585157 0.439535 0.766831
O9    O     O_R   0.052240 0.907300 0.499970 -0.637428
O10   O     O_R   0.947670 0.907410 0.499960 -0.542179
C45   C     C_R   0.000679 0.877929 0.502341 0.994560
O11   O     O_R   0.113890 0.938270 0.623230 -0.609202
O12   O     O_R   0.009320 0.938380 0.623210 -0.605695
C46   C     C_R   0.080858 0.918849 0.662043 0.871795
Zn3   Zn    Zn3+2 0.069820 0.999850 0.500010 1.087921
Zn4   Zn    Zn3+2 0.930180 0.000000 0.499990 1.107519
O13   O     O_R   0.052330 0.092440 0.500040 -0.635013
O14   O     O_R   0.947760 0.092550 0.500030 -0.554890
O15   O     O_R   0.990680 0.061470 0.376790 -0.563171
O16   O     O_R   0.886110 0.061580 0.376770 -0.609105
C47   C     C_R   0.001283 0.119973 0.501886 0.872068
C48   C     C_R   0.919150 0.080878 0.337969 0.896436
O17   O     O_R   0.034860 0.372650 0.569600 -0.595428
O18   O     O_R   0.965300 0.442140 0.430470 -0.635491
C49   C     C_R   0.001652 0.378797 0.499199 0.927498
O19   O     O_R   0.942170 0.465260 0.569550 -0.516458
O20   O     O_R   0.872610 0.534760 0.430420 -0.595700
C50   C     C_R   0.878715 0.503162 0.500420 0.982278
Zn5   Zn    Zn3+2 0.046440 0.453600 0.592900 1.105277
Zn6   Zn    Zn3+2 0.953560 0.546400 0.407100 1.098512
O21   O     O_R   0.034700 0.557860 0.569530 -0.590941
O22   O     O_R   0.965140 0.627350 0.430400 -0.635637
O23   O     O_R   0.127390 0.465250 0.569580 -0.619184
O24   O     O_R   0.057830 0.534740 0.430450 -0.538036
C51   C     C_R   0.999430 0.621654 0.499891 0.805224
C52   C     C_R   0.121466 0.501482 0.499680 0.993497
C53   C     C_3   0.993252 0.830083 0.418028 0.295180
C54   C     C_3   0.979169 0.761504 0.408842 -0.295306
C55   C     C_3   0.073441 0.745580 0.582963 -0.509206
C56   C     C_3   0.930118 0.784583 0.501505 0.820422
C57   C     C_3   0.000021 0.810434 0.501372 -0.265388
C58   C     C_3   0.998286 0.690519 0.499277 -0.307253
C59   C     C_3   0.078269 0.676635 0.577917 0.271280
C60   C     C_3   0.933811 0.707098 0.510563 0.228528
H8    H     H_    0.065777 0.727643 0.634251 0.207087
C61   C     C_3   0.076241 0.179667 0.571061 -0.560894
H9    H     H_    0.123394 0.156668 0.573438 0.219756
H10   H     H_    0.084742 0.137636 0.632336 0.191809
C62   C     C_3   0.079446 0.254269 0.562992 0.110502
H11   H     H_    0.101172 0.243522 0.625920 0.164893
C63   C     C_3   0.984604 0.255487 0.410350 -0.218323
C64   C     C_3   0.937591 0.207997 0.510817 0.676129
C65   C     C_3   0.999394 0.190133 0.497746 -0.090312
C66   C     C_3   0.998847 0.311704 0.496203 -0.129476
C67   C     C_3   0.971023 0.330913 0.404184 0.324210
C68   C     C_3   0.945530 0.273902 0.523677 -0.213698
O25   O     O_3   0.349434 0.813777 0.059989 -0.716388
H12   H     H_    0.340149 0.861003 0.009864 0.356994
O26   O     O_3   0.611280 0.556731 0.349253 -0.818933
H13   H     H_    0.602111 0.594558 0.293685 0.345839
O27   O     O_3   0.714285 0.585270 0.551627 -0.746495
H14   H     H_    0.752245 0.595662 0.591961 0.364392
C69   C     C_2   0.769206 0.458778 0.657161 0.514431
H15   H     H_    0.725457 0.450810 0.668370 0.054910
O28   O     O_2   0.832928 0.419856 0.716259 -0.456636
O29   O     O_3   0.884161 0.497897 0.633567 -0.650257
H16   H     H_    0.885116 0.524743 0.659445 0.369096
C70   C     C_2   0.635790 0.643201 0.385568 0.639357
H17   H     H_    0.577830 0.660681 0.362774 0.073317
O30   O     O_2   0.672303 0.685823 0.391116 -0.475694
O31   O     O_3   0.749822 0.626219 0.367191 -0.708522
H18   H     H_    0.712520 0.649659 0.306161 0.360311
O32   O     O_3   0.336298 0.765750 0.942099 -0.706179
H19   H     H_    0.387634 0.736820 0.992877 0.366207
O33   O     O_3   0.671735 0.174651 0.056992 -0.699996
H20   H     H_    0.621603 0.190476 0.006211 0.360098
O34   O     O_3   0.797086 0.337754 0.061277 -0.674521
H21   H     H_    0.774393 0.389840 0.011600 0.358445
C71   C     C_2   0.838943 0.330297 0.944681 0.519354
H22   H     H_    0.895876 0.321311 0.991418 0.113553
O35   O     O_2   0.813576 0.373566 0.870131 -0.540301
O36   O     O_3   0.873809 0.152954 0.056326 -0.701038
H23   H     H_    0.869466 0.162835 0.005285 0.365946
O37   O     O_3   0.707040 0.164941 0.939489 -0.708426
H24   H     H_    0.728912 0.113192 0.989686 0.371069
O38   O     O_3   0.313204 0.372798 0.534372 -0.730714
H25   H     H_    0.286359 0.340410 0.518287 0.350801
C72   C     C_2   0.257288 0.463307 0.389194 0.443117
H26   H     H_    0.213315 0.510376 0.327946 0.167572
O39   O     O_2   0.295540 0.420865 0.391009 -0.515599
O40   O     O_3   0.131335 0.489639 0.379625 -0.676521
H27   H     H_    0.128750 0.451874 0.366212 0.339143
C73   C     C_2   0.389973 0.390246 0.659681 0.622812
H28   H     H_    0.382242 0.348074 0.706882 0.020341
O41   O     O_2   0.447173 0.374527 0.665395 -0.527827
C74   C     C_2   0.285961 0.646117 0.440101 0.545075
H29   H     H_    0.312515 0.643988 0.497510 0.044941
O42   O     O_2   0.281288 0.700744 0.380026 -0.490221
O43   O     O_3   0.226918 0.605727 0.349910 -0.692207
H30   H     H_    0.269608 0.605765 0.344280 0.342458
O44   O     O_3   0.118695 0.618574 0.358582 -0.569169
H31   H     H_    0.113165 0.672440 0.326048 0.404662
O45   O     O_3   0.180413 0.627320 0.470171 -0.845701
H32   H     H_    0.227150 0.609281 0.524502 0.337640
C75   C     C_2   0.371371 0.515192 0.625931 0.332267
H33   H     H_    0.343133 0.550670 0.631591 0.139568
O46   O     O_2   0.435774 0.513156 0.648528 -0.519176
O47   O     O_3   0.253837 0.488047 0.635942 -0.763446
H34   H     H_    0.289750 0.449062 0.696640 0.350787
C76   C     C_2   0.062792 0.848629 0.419876 0.367434
H35   H     H_    0.115503 0.806353 0.461389 0.076719
O48   O     O_2   0.059880 0.911839 0.372962 -0.483607
O49   O     O_3   0.933283 0.896075 0.349324 -0.635693
H36   H     H_    0.929718 0.909905 0.297268 0.378466
C77   C     C_2   0.897940 0.779636 0.335670 0.732235
H37   H     H_    0.884853 0.744937 0.311473 0.105972
O50   O     O_2   0.845726 0.831609 0.302112 -0.457733
C78   C     C_2   0.152378 0.734560 0.056594 0.521427
H38   H     H_    0.093042 0.761868 0.010424 0.089793
O51   O     O_2   0.176888 0.697742 0.131351 -0.525752
C79   C     C_2   0.027899 0.743808 0.383376 0.316127
H39   H     H_    0.087276 0.729907 0.421523 0.150744
O52   O     O_2   0.001472 0.747389 0.317864 -0.521908
C80   C     C_2   0.145689 0.765005 0.617859 0.563917
H40   H     H_    0.165903 0.796588 0.579503 0.119092
O53   O     O_2   0.182545 0.745597 0.691183 -0.536590
C81   C     C_2   0.141818 0.654227 0.573789 0.386200
H41   H     H_    0.143783 0.608667 0.566576 0.169263
O54   O     O_2   0.193231 0.680768 0.584289 -0.599825
O55   O     O_3   0.925049 0.782641 0.564252 -0.724714
H42   H     H_    0.968096 0.745262 0.621464 0.331537
O56   O     O_3   0.864841 0.839235 0.424082 -0.581246
H43   H     H_    0.821821 0.830894 0.428800 0.408953
O57   O     O_3   0.863950 0.713637 0.446705 -0.689454
H44   H     H_    0.865054 0.665348 0.452326 0.339550
C82   C     C_2   0.943546 0.644974 0.592314 0.384450
H45   H     H_    0.981381 0.589900 0.630359 0.172689
O58   O     O_2   0.901170 0.653379 0.610730 -0.526772
O59   O     O_3   0.092724 0.614658 0.654109 -0.774572
H46   H     H_    0.141335 0.607901 0.701528 0.380737
O60   O     O_3   0.146128 0.685182 0.939579 -0.712839
H47   H     H_    0.155279 0.638010 0.989668 0.361404
O61   O     O_3   0.129770 0.281692 0.541923 -0.847327
H48   H     H_    0.180664 0.249474 0.592371 0.352713
C83   C     C_2   0.051868 0.240726 0.406801 0.446226
H49   H     H_    0.104370 0.246128 0.445226 0.128857
O62   O     O_2   0.048218 0.222923 0.360766 -0.509911
C84   C     C_2   0.009714 0.381850 0.367180 0.405056
H50   H     H_    0.053529 0.397285 0.403667 0.106965
O63   O     O_2   0.990660 0.406692 0.295332 -0.479867
O64   O     O_3   0.866948 0.227518 0.438362 -0.759197
H51   H     H_    0.830355 0.214618 0.453472 0.340186
O65   O     O_3   0.946766 0.142927 0.582177 -0.792316
H52   H     H_    0.906793 0.153519 0.588626 0.317696
C85   C     C_2   0.980135 0.244278 0.616534 0.269606
H53   H     H_    0.020753 0.189699 0.666477 0.136936
O66   O     O_2   0.965930 0.282241 0.636929 -0.538469
C86   C     C_2   0.867566 0.325374 0.475562 0.603114
H54   H     H_    0.828070 0.301604 0.489160 0.055726
O67   O     O_2   0.848114 0.392117 0.424113 -0.538277
C87   C     C_2   0.916956 0.259049 0.335376 0.733907
H55   H     H_    0.890127 0.215788 0.344466 0.032293
O68   O     O_2   0.893951 0.309481 0.263227 -0.442181
O69   O     O_3   0.320409 0.612978 0.055475 -0.706984
H56   H     H_    0.305146 0.614752 0.004133 0.377067
O70   O     O_3   0.893508 0.368211 0.348376 -0.655939
H57   H     H_    0.883654 0.422774 0.320588 0.391678
C88   C     C_2   0.680636 0.411354 0.452687 0.586762
H58   H     H_    0.627921 0.401060 0.440011 0.141106
O71   O     O_2   0.700559 0.411671 0.409630 -0.601013
O72   O     O_3   0.729867 0.361449 0.592544 -0.780559
H59   H     H_    0.768485 0.353139 0.646708 0.382079
O73   O     O_3   0.863522 0.377892 0.627280 -0.608301
H60   H     H_    0.867777 0.325334 0.645551 0.381976

loop_
_geom_bond_atom_site_label_1
_geom_bond_atom_site_label_2
_geom_bond_distance
_ccdc_geom_bond_type
Zn6   O24   2.045312 S    
C78   H38   1.084378 S    
C44   O45   1.408526 S    
C56   C57   1.610227 S    
C66   C68   1.598364 S    
C84   H50   1.078817 S    
C11   O60   1.398031 S    
C58   C59   1.623077 S    
C7    C15   1.191736 T    
C10   C15   1.443553 S    
O72   H59   0.982266 S    
O19   Zn5   2.045312 S    
C63   C65   1.593390 S    
O27   H14   0.994536 S    
C38   C42   1.564324 S    
C6    O25   1.397692 S    
C64   O65   1.420984 S    
C32   C34   1.536041 S    
O15   C48   1.291434 A    
O18   C49   1.266692 A    
C37   C38   1.571082 S    
Zn1   O7    1.993892 S    
C78   O51   1.220053 D    
C43   O47   1.410307 S    
C20   O27   1.410991 S    
C24   H4    1.114367 S    
C9    O69   1.397717 S    
C19   C23   1.570808 S    
C17   C18   1.566847 S    
C76   O48   1.222661 D    
O17   C49   1.281929 A    
C34   O34   1.397985 S    
C74   O42   1.222412 D    
O4    C2    1.291583 A    
O7    C4    1.292230 A    
C87   O68   1.222271 D    
O61   H48   0.993164 S    
C30   C33   1.548118 S    
O12   Zn4   1.998505 S    
O18   Zn6   2.046603 S    
C26   C34   1.551421 S    
C40   O43   1.413643 S    
C55   C59   1.563527 S    
C37   O38   1.413681 S    
C69   H15   1.085330 S    
C82   O58   1.221914 D    
C42   C52   1.483383 S    
Zn4   O14   2.039682 S    
C13   C78   1.497034 S    
O5    C3    1.294436 A    
O25   H12   0.991120 S    
O9    C45   1.290129 A    
C31   O36   1.397974 S    
C79   H39   1.071103 S    
C67   O70   1.417077 S    
C74   H29   1.077641 S    
O10   Zn4   2.051666 S    
C29   C31   1.533674 S    
C85   H53   1.084775 S    
O11   C46   1.291814 A    
C5    O32   1.397740 S    
C40   C74   1.542712 S    
O13   C47   1.294261 A    
C39   C75   1.534143 S    
C66   C67   1.620125 S    
C8    C46   1.412325 S    
C83   H49   1.081112 S    
C12   C16   1.443025 S    
C17   O72   1.417846 S    
C18   H2    1.096709 S    
C8    C16   1.192175 T    
H3    C23   1.115326 S    
Zn6   O22   2.041417 S    
Zn2   O8    1.999275 S    
C4    C27   1.411976 S    
C60   C82   1.533213 S    
O12   C46   1.291607 A    
C51   C58   1.488853 S    
C17   C21   1.618113 S    
C42   C43   1.577540 S    
H7    C43   1.118699 S    
O33   H20   0.991146 S    
C75   O46   1.222216 D    
O64   H51   0.991814 S    
O16   C48   1.291780 A    
C26   C30   1.556536 S    
C18   O73   1.408074 S    
O20   Zn6   2.041754 S    
O26   H13   0.994216 S    
C81   O54   1.219253 D    
C53   C57   1.597097 S    
C73   O41   1.220047 D    
C39   C41   1.612885 S    
C28   C48   1.411955 S    
C5    C9    1.532141 S    
C2    C7    1.411464 S    
O38   H25   0.994504 S    
C31   C33   1.541327 S    
C42   C44   1.577180 S    
C55   H8    1.100689 S    
C77   H37   1.083608 S    
C54   C77   1.564134 S    
O36   H23   0.991139 S    
C13   C14   1.558301 S    
O3    C2    1.291706 A    
O17   Zn5   2.041417 S    
O70   H57   0.992820 S    
O19   C50   1.271688 A    
O65   H52   0.993171 S    
C17   C88   1.538218 S    
C64   O64   1.418419 S    
C32   C36   1.443164 S    
C3    C41   1.479269 S    
C1    C21   1.480123 S    
C80   O53   1.222300 D    
O69   H56   0.991134 S    
C38   H6    1.117372 S    
C54   C58   1.642228 S    
O6    C3    1.288307 A    
C82   H45   1.079325 S    
C20   C24   1.579466 S    
C39   C43   1.569197 S    
C54   C79   1.548147 S    
C49   C66   1.489292 S    
O1    C1    1.291909 A    
C22   C23   1.577540 S    
C19   C21   1.595260 S    
C68   C85   1.539889 S    
O55   H42   0.984926 S    
C67   C84   1.534446 S    
C71   H22   1.084357 S    
C47   C65   1.480090 S    
C88   H58   1.083421 S    
C86   H54   1.086013 S    
C24   O29   1.406237 S    
Zn3   O15   1.998505 S    
O11   Zn3   1.994645 S    
C55   C57   1.577817 S    
C20   C21   1.614951 S    
C70   H17   1.085599 S    
C62   C66   1.576861 S    
C59   C81   1.528264 S    
Zn4   O16   1.994644 S    
O44   H31   0.993797 S    
C37   C41   1.617837 S    
C27   C35   1.191939 T    
C29   O37   1.397789 S    
C85   O66   1.220178 D    
C33   C34   1.541397 S    
C86   O67   1.219574 D    
O8    C4    1.291336 A    
C80   H40   1.079568 S    
Zn5   O21   2.046603 S    
O24   C52   1.271338 A    
C75   H33   1.081510 S    
C11   C13   1.540968 S    
O4    Zn2   1.993894 S    
C84   O63   1.221547 D    
C56   C60   1.591246 S    
C63   C67   1.594212 S    
C81   H41   1.081205 S    
C22   C24   1.561251 S    
C25   C32   1.536630 S    
C73   H28   1.085994 S    
C64   C65   1.594452 S    
O22   C51   1.268510 A    
C6    C14   1.550528 S    
C60   O57   1.414042 S    
C61   C65   1.558614 S    
C64   C68   1.581932 S    
C31   C32   1.536979 S    
C26   H5    1.110005 S    
C20   C69   1.532175 S    
C25   O33   1.397626 S    
C19   O26   1.411635 S    
C23   O31   1.408924 S    
O1    Zn1   2.039168 S    
C63   C83   1.546571 S    
C19   C70   1.536372 S    
Zn2   O6    2.039167 S    
O2    Zn2   2.051354 S    
C29   C30   1.538175 S    
O21   C51   1.278119 A    
C9    C11   1.534327 S    
O20   C50   1.277222 A    
O23   C52   1.275299 A    
C62   O61   1.404749 S    
O14   C47   1.288764 A    
O29   H16   0.991678 S    
C58   C60   1.612037 S    
C6    C10   1.537879 S    
C40   C44   1.576480 S    
C25   C29   1.531574 S    
O37   H24   0.991128 S    
C18   C22   1.561359 S    
O56   H43   0.993838 S    
C37   C72   1.541560 S    
C22   C50   1.485057 S    
C61   H9    1.111613 S    
O9    Zn3   2.039683 S    
C53   C76   1.541981 S    
O40   H27   0.992433 S    
C38   O40   1.409141 S    
H1    C14   1.110126 S    
O59   H46   0.995159 S    
C59   O59   1.412681 S    
C72   O39   1.222132 D    
O34   H21   0.991102 S    
C45   C57   1.475703 S    
O57   H44   0.992128 S    
C88   O71   1.221364 D    
Zn5   O23   2.041749 S    
C72   H26   1.082521 S    
O60   H47   0.991127 S    
C56   O55   1.423874 S    
C28   C36   1.191984 T    
C53   C54   1.604341 S    
O49   H36   0.994884 S    
O47   H34   0.993245 S    
C30   C35   1.443585 S    
O32   H19   0.991136 S    
C71   O35   1.219834 D    
C87   H55   1.083568 S    
C5    C12   1.537243 S    
C69   O28   1.220580 D    
O2    C1    1.290917 A    
C12   C14   1.554440 S    
C39   C73   1.536748 S    
C62   H11   1.114787 S    
C79   O52   1.223567 D    
C70   O30   1.221620 D    
C76   H35   1.074466 S    
C55   C80   1.527756 S    
C63   C87   1.540485 S    
O10   C45   1.290385 A    
C25   C26   1.549379 S    
Zn1   O5    2.051354 S    
C61   C62   1.543845 S    
O45   H32   0.982420 S    
C9    C10   1.538950 S    
O3    Zn1   1.999275 S    
Zn3   O13   2.051666 S    
O73   H60   0.992512 S    
C10   C13   1.547353 S    
C77   O50   1.220024 D    
C11   C12   1.536652 S    
C33   C71   1.496891 S    
C83   O62   1.223334 D    
O43   H30   0.993801 S    
C44   O44   1.412277 S    
C40   C41   1.623263 S    
C68   C86   1.531649 S    
C61   H10   1.112216 S    
C53   O49   1.415807 S    
C5    C6    1.531873 S    
O31   H18   0.993093 S    
C56   O56   1.410206 S    
