data_mof_unit_58079.cif
_audit_creation_date              2013-03-05T15:48:37-0500
_audit_creation_method            fapswitch 2.2
_symmetry_space_group_name_H-M    P1
_symmetry_Int_Tables_number       1
_space_group_crystal_system       triclinic
_cell_length_a                    16.64656
_cell_length_b                    16.646574
_cell_length_c                    42.907834
_cell_angle_alpha                 90.064493
_cell_angle_beta                  90.064941
_cell_angle_gamma                 120.099578
_cell_volume                      10286.7651734

loop_
_atom_site_label
_atom_site_type_symbol
_atom_site_description
_atom_site_fract_x
_atom_site_fract_y
_atom_site_fract_z
_atom_type_partial_charge
O1    O     O_R   0.509640 0.171340 0.784000 -0.486974
O2    O     O_R   0.661700 0.490360 0.716000 -0.437973
O3    O     O_R   0.828660 0.338300 0.784000 -0.490546
O4    O     O_R   0.509640 0.171340 0.716000 -0.505201
O5    O     O_R   0.661700 0.490360 0.784000 -0.484380
O6    O     O_R   0.828660 0.338300 0.716000 -0.489011
O7    O     O_R   0.171340 0.509640 0.284000 -0.487012
O8    O     O_R   0.490360 0.661700 0.216000 -0.437982
O9    O     O_R   0.338300 0.828660 0.284000 -0.490557
O10   O     O_R   0.171340 0.509640 0.216000 -0.505200
O11   O     O_R   0.490360 0.661700 0.284000 -0.484351
O12   O     O_R   0.338300 0.828660 0.216000 -0.489023
O13   O     O_R   0.539230 0.345420 0.781810 -0.458935
O14   O     O_R   0.806190 0.460770 0.718190 -0.451727
O15   O     O_R   0.654580 0.193810 0.781810 -0.458224
O16   O     O_R   0.539230 0.345420 0.718190 -0.500888
O17   O     O_R   0.806190 0.460770 0.781810 -0.459189
O18   O     O_R   0.654580 0.193810 0.718190 -0.451685
O19   O     O_R   0.345420 0.539230 0.281810 -0.458942
O20   O     O_R   0.460770 0.806190 0.218190 -0.451731
O21   O     O_R   0.193810 0.654580 0.281810 -0.458197
O22   O     O_R   0.345420 0.539230 0.218190 -0.500878
O23   O     O_R   0.460770 0.806190 0.281810 -0.459175
O24   O     O_R   0.193810 0.654580 0.218190 -0.451678
C1    C     C_R   0.583513 0.426645 0.794473 0.570941
C2    C     C_R   0.842790 0.416581 0.705409 0.568516
C3    C     C_R   0.573658 0.156967 0.794501 0.568890
C4    C     C_R   0.582721 0.426741 0.705784 0.570752
C5    C     C_R   0.842350 0.416354 0.794700 0.567577
C6    C     C_R   0.573277 0.156119 0.705633 0.565178
C7    C     C_R   0.426645 0.583513 0.294473 0.570970
C8    C     C_R   0.416584 0.842794 0.205410 0.568489
C9    C     C_R   0.156966 0.573657 0.294501 0.568878
C10   C     C_R   0.426740 0.582720 0.205784 0.570803
C11   C     C_R   0.416355 0.842353 0.294699 0.567555
C12   C     C_R   0.156118 0.573277 0.205633 0.565160
Cr1   Cr    Cr6+3 0.530290 0.262330 0.750000 1.119816
Cr2   Cr    Cr6+3 0.732040 0.469710 0.750000 1.191595
Cr3   Cr    Cr6+3 0.737670 0.267960 0.750000 1.163097
Cr4   Cr    Cr6+3 0.262330 0.530290 0.250000 1.119811
Cr5   Cr    Cr6+3 0.469710 0.732040 0.250000 1.191613
Cr6   Cr    Cr6+3 0.267960 0.737670 0.250000 1.163102
O25   O     O_3   0.666667 0.333333 0.750000 -0.311063
O26   O     O_3   0.333333 0.666667 0.250000 -0.311061
H1    H     H_    0.734766 0.410553 0.987238 0.169621
H2    H     H_    0.420513 0.762548 0.542888 0.171967
H3    H     H_    0.542571 0.695474 0.965255 0.167052
H4    H     H_    0.747607 0.409081 0.513237 0.210595
H5    H     H_    0.421650 0.776208 0.957726 0.202069
H6    H     H_    0.710820 0.543169 0.521256 0.166023
H7    H     H_    0.410533 0.734832 0.487234 0.169747
H8    H     H_    0.762482 0.420539 0.042893 0.171946
H9    H     H_    0.695507 0.542661 0.465258 0.167048
H10   H     H_    0.408957 0.747618 0.013243 0.210637
H11   H     H_    0.776201 0.421807 0.457720 0.202037
H12   H     H_    0.543068 0.710790 0.021253 0.166031
C13   C     C_R   0.885788 0.447721 0.825775 -0.002675
C14   C     C_R   0.556929 0.103264 0.676182 -0.000165
C15   C     C_R   0.552249 0.443050 0.824813 -0.000175
C16   C     C_R   0.889189 0.449617 0.674837 -0.002431
C17   C     C_R   0.559346 0.108494 0.824651 -0.004615
C18   C     C_R   0.546486 0.442641 0.676428 0.004550
C19   C     C_R   0.447722 0.885804 0.325772 -0.002674
C20   C     C_R   0.103253 0.556925 0.176183 -0.000174
C21   C     C_R   0.443051 0.552249 0.324813 -0.000167
C22   C     C_R   0.449638 0.889208 0.174840 -0.002434
C23   C     C_R   0.108491 0.559340 0.324651 -0.004622
C24   C     C_R   0.442633 0.546485 0.176427 0.004567
C25   C     C_R   0.078689 0.607966 0.030432 -0.014455
C26   C     C_R   0.591005 0.047320 0.465203 -0.017026
C27   C     C_R   0.471401 0.407704 0.037046 -0.019228
C28   C     C_R   0.090118 0.621915 0.471165 -0.030524
C29   C     C_R   0.601636 0.057778 0.036379 -0.017992
C30   C     C_R   0.389506 0.470924 0.471174 -0.006774
C31   C     C_R   0.607950 0.078755 0.530427 -0.014462
C32   C     C_R   0.047251 0.591042 0.965208 -0.017046
C33   C     C_R   0.407694 0.471370 0.537043 -0.019229
C34   C     C_R   0.621983 0.090080 0.971161 -0.030775
C35   C     C_R   0.057789 0.601606 0.536381 -0.018463
C36   C     C_R   0.470978 0.389517 0.971177 -0.006775
C37   C     C_R   0.094065 0.602728 0.062555 0.427157
C38   C     C_R   0.572275 0.030184 0.432945 0.438273
C39   C     C_R   0.462491 0.416495 0.069495 0.435993
C40   C     C_R   0.106518 0.618445 0.438983 0.406323
C41   C     C_R   0.581796 0.040532 0.068593 0.429260
C42   C     C_R   0.383315 0.471317 0.438270 0.452286
C43   C     C_R   0.602729 0.094129 0.562550 0.427172
C44   C     C_R   0.030119 0.572309 0.932950 0.438220
C45   C     C_R   0.416487 0.462470 0.569493 0.435993
C46   C     C_R   0.618591 0.106474 0.938973 0.406361
C47   C     C_R   0.040543 0.581690 0.568591 0.428749
C48   C     C_R   0.471373 0.383324 0.938273 0.452291
O27   O     O_2   0.173193 0.640956 0.072904 -0.451848
O28   O     O_2   0.604317 0.094704 0.414503 -0.440906
O29   O     O_2   0.437005 0.349505 0.086638 -0.445507
O30   O     O_2   0.185626 0.660758 0.428772 -0.469384
O31   O     O_2   0.616210 0.104567 0.087282 -0.467255
O32   O     O_2   0.310796 0.455193 0.425728 -0.470611
O33   O     O_2   0.640957 0.173256 0.572900 -0.451847
O34   O     O_2   0.094641 0.604343 0.914509 -0.440895
O35   O     O_2   0.349493 0.436969 0.586635 -0.445502
O36   O     O_2   0.661105 0.185559 0.928749 -0.468864
O37   O     O_2   0.104597 0.615966 0.587276 -0.467304
O38   O     O_2   0.455281 0.310814 0.925733 -0.470640
N1    N     N_R   0.020263 0.552325 0.082381 -0.396941
N2    N     N_R   0.516047 0.940754 0.422055 -0.399747
N3    N     N_R   0.480325 0.500277 0.081991 -0.397640
N4    N     N_R   0.033865 0.564908 0.418976 -0.394168
N5    N     N_R   0.522011 0.951568 0.079138 -0.394892
N6    N     N_R   0.459860 0.492725 0.420036 -0.390215
N7    N     N_R   0.552344 0.020324 0.582377 -0.396942
N8    N     N_R   0.940688 0.516085 0.922059 -0.399790
N9    N     N_R   0.500275 0.480331 0.581990 -0.397635
N10   N     N_R   0.564946 0.033844 0.918972 -0.394201
N11   N     N_R   0.951563 0.521970 0.579135 -0.394846
N12   N     N_R   0.492745 0.459857 0.920038 -0.390212
C49   C     C_R   0.930143 0.506368 0.071469 0.422024
C50   C     C_R   0.478658 0.866059 0.442211 0.429740
C51   C     C_R   0.504540 0.576416 0.063347 0.438310
C52   C     C_R   0.943806 0.515165 0.429678 0.427243
C53   C     C_R   0.482261 0.877446 0.058674 0.434121
C54   C     C_R   0.542274 0.508968 0.433231 0.437354
C55   C     C_R   0.506390 0.930204 0.571465 0.422030
C56   C     C_R   0.865991 0.478709 0.942214 0.429588
C57   C     C_R   0.576423 0.504573 0.563347 0.438311
C58   C     C_R   0.515099 0.943799 0.929679 0.427253
C59   C     C_R   0.877436 0.482295 0.558671 0.434144
C60   C     C_R   0.508953 0.542261 0.933232 0.437352
O39   O     O_2   0.865823 0.464710 0.089654 -0.492197
O40   O     O_2   0.432366 0.787151 0.431952 -0.482731
O41   O     O_2   0.520628 0.650058 0.075074 -0.472983
O42   O     O_2   0.880280 0.470904 0.411351 -0.482122
O43   O     O_2   0.433191 0.798673 0.068600 -0.446757
O44   O     O_2   0.607930 0.524190 0.416539 -0.477951
O45   O     O_2   0.464776 0.865882 0.589652 -0.492370
O46   O     O_2   0.787082 0.432431 0.931955 -0.482766
O47   O     O_2   0.650073 0.520686 0.575075 -0.472981
O48   O     O_2   0.470759 0.880286 0.911356 -0.482140
O49   O     O_2   0.798654 0.433274 0.568596 -0.446744
O50   O     O_2   0.524147 0.607906 0.916538 -0.477970
C61   C     C_R   0.912430 0.505716 0.039382 0.034653
C62   C     C_R   0.492440 0.880459 0.474506 0.043827
C63   C     C_R   0.508434 0.569003 0.030927 0.051785
C64   C     C_R   0.925312 0.513232 0.461706 0.031508
C65   C     C_R   0.496853 0.892219 0.026457 0.027758
C66   C     C_R   0.551321 0.508860 0.465703 0.049276
C67   C     C_R   0.505701 0.912496 0.539377 0.034953
C68   C     C_R   0.880392 0.492476 0.974510 0.043873
C69   C     C_R   0.569012 0.508466 0.530927 0.051792
C70   C     C_R   0.513165 0.925305 0.961708 0.031516
C71   C     C_R   0.892217 0.496901 0.526455 0.027800
C72   C     C_R   0.508840 0.551309 0.965703 0.049275
C73   C     C_R   0.987645 0.554190 0.018668 -0.095254
C74   C     C_R   0.546870 0.971800 0.486073 -0.103476
C75   C     C_R   0.490536 0.483806 0.017637 -0.089728
C76   C     C_R   0.999538 0.564151 0.482664 -0.090308
C77   C     C_R   0.555167 0.983122 0.015220 -0.093826
C78   C     C_R   0.474901 0.490793 0.484814 -0.090015
C79   C     C_R   0.554167 0.987712 0.518662 -0.095285
C80   C     C_R   0.971732 0.546903 0.986078 -0.103369
C81   C     C_R   0.483805 0.490531 0.517635 -0.089731
C82   C     C_R   0.564140 0.999521 0.982663 -0.090297
C83   C     C_R   0.983131 0.555178 0.515221 -0.093761
C84   C     C_R   0.490806 0.474901 0.984816 -0.090014
C85   C     C_R   0.151842 0.663493 0.009623 0.290238
C86   C     C_R   0.651954 0.137428 0.477236 0.286892
C87   C     C_R   0.459014 0.324562 0.023361 0.281112
C88   C     C_R   0.161959 0.678848 0.492329 0.262206
C89   C     C_R   0.665934 0.147126 0.024668 0.257855
C90   C     C_R   0.313967 0.454202 0.490722 0.283172
C91   C     C_R   0.663467 0.151910 0.509617 0.290234
C92   C     C_R   0.137358 0.651993 0.977243 0.286888
C93   C     C_R   0.324540 0.458949 0.523356 0.281128
C94   C     C_R   0.678943 0.161918 0.992326 0.261754
C95   C     C_R   0.147136 0.665934 0.524673 0.257579
C96   C     C_R   0.454288 0.313990 0.990727 0.283170
C97   C     C_R   0.821562 0.456527 0.027503 -0.098166
C98   C     C_R   0.450750 0.805763 0.495504 -0.073646
C99   C     C_R   0.528146 0.644590 0.011565 -0.114525
C100  C     C_R   0.834660 0.459824 0.473291 -0.117598
C101  C     C_R   0.452274 0.818291 0.005219 -0.102218
C102  C     C_R   0.635758 0.527883 0.479398 -0.115037
C103  C     C_R   0.456498 0.821628 0.527498 -0.097703
C104  C     C_R   0.805696 0.450777 0.995508 -0.073696
C105  C     C_R   0.644611 0.528212 0.511566 -0.114541
C106  C     C_R   0.459707 0.834662 0.973295 -0.117575
C107  C     C_R   0.818286 0.452374 0.505215 -0.102232
C108  C     C_R   0.527822 0.635736 0.979397 -0.115022
C109  C     C_R   0.069323 0.486787 0.124510 -0.069783
C110  C     C_R   0.402362 0.891197 0.379302 -0.057090
C111  C     C_R   0.378149 0.474280 0.126373 -0.058703
C112  C     C_R   0.092731 0.504706 0.378089 -0.065903
C113  C     C_R   0.407278 0.902062 0.121510 -0.059880
C114  C     C_R   0.513860 0.600129 0.376017 -0.060931
C115  C     C_R   0.486796 0.069354 0.624510 -0.069809
C116  C     C_R   0.891114 0.402374 0.879312 -0.057130
C117  C     C_R   0.474228 0.378156 0.626379 -0.058708
C118  C     C_R   0.504780 0.092780 0.878097 -0.065972
C119  C     C_R   0.901991 0.407230 0.621505 -0.059825
C120  C     C_R   0.600132 0.513878 0.876015 -0.060926
C121  C     C_R   0.100933 0.491334 0.154917 -0.163145
C122  C     C_R   0.379510 0.871708 0.347887 -0.161995
C123  C     C_R   0.365700 0.493505 0.156946 -0.166217
C124  C     C_R   0.119838 0.504913 0.347359 -0.155073
C125  C     C_R   0.382863 0.879094 0.152651 -0.158155
C126  C     C_R   0.507070 0.620878 0.345190 -0.155442
C127  C     C_R   0.491334 0.100944 0.654918 -0.163138
C128  C     C_R   0.871647 0.379511 0.847897 -0.162007
C129  C     C_R   0.493452 0.365705 0.656952 -0.166219
C130  C     C_R   0.504972 0.119890 0.847367 -0.155076
C131  C     C_R   0.879026 0.382825 0.652647 -0.158162
C132  C     C_R   0.620875 0.507089 0.845187 -0.155446
C133  C     C_R   0.066176 0.613798 0.166933 0.176902
C134  C     C_R   0.541610 0.925844 0.335531 0.173844
C135  C     C_R   0.533132 0.573666 0.165456 0.190873
C136  C     C_R   0.063562 0.609660 0.332956 0.173906
C137  C     C_R   0.543879 0.929366 0.165538 0.180828
C138  C     C_R   0.389068 0.459562 0.335606 0.178455
C139  C     C_R   0.613817 0.066207 0.666928 0.176890
C140  C     C_R   0.925847 0.541616 0.835529 0.173849
C141  C     C_R   0.573728 0.533148 0.665448 0.190879
C142  C     C_R   0.609630 0.063520 0.832948 0.173919
C143  C     C_R   0.929386 0.543861 0.665534 0.180864
C144  C     C_R   0.459569 0.389048 0.835611 0.178445
C145  C     C_R   0.035670 0.609031 0.136113 -0.037933
C146  C     C_R   0.563267 0.944057 0.367364 -0.045040
C147  C     C_R   0.544526 0.555189 0.134344 -0.032646
C148  C     C_R   0.037443 0.609349 0.364107 -0.036485
C149  C     C_R   0.567067 0.950895 0.133953 -0.027694
C150  C     C_R   0.396223 0.439904 0.367032 -0.028925
C151  C     C_R   0.609060 0.035723 0.636107 -0.037929
C152  C     C_R   0.944038 0.563284 0.867362 -0.045006
C153  C     C_R   0.555248 0.544543 0.634338 -0.032626
C154  C     C_R   0.609332 0.037397 0.864098 -0.036395
C155  C     C_R   0.950920 0.567040 0.633949 -0.027717
C156  C     C_R   0.439917 0.396202 0.867037 -0.028941
C157  C     C_R   0.038962 0.547241 0.114816 0.196131
C158  C     C_R   0.493823 0.925317 0.389307 0.187184
C159  C     C_R   0.467543 0.507546 0.114731 0.196549
C160  C     C_R   0.053438 0.558503 0.386702 0.190088
C161  C     C_R   0.498900 0.935628 0.111823 0.191322
C162  C     C_R   0.457426 0.510257 0.387301 0.189271
C163  C     C_R   0.547264 0.039016 0.614812 0.196118
C164  C     C_R   0.925257 0.493844 0.889311 0.187123
C165  C     C_R   0.507547 0.467554 0.614731 0.196544
C166  C     C_R   0.558536 0.053434 0.886700 0.190105
C167  C     C_R   0.935609 0.498860 0.611819 0.191397
C168  C     C_R   0.510269 0.457424 0.887302 0.189277
H13   H     H_    0.972666 0.634333 0.875217 0.171993
H14   H     H_    0.654547 0.010666 0.628420 0.169502
H15   H     H_    0.369942 0.354263 0.875841 0.182989
H16   H     H_    0.978993 0.638226 0.626412 0.176058
H17   H     H_    0.649192 0.005106 0.870936 0.174557
H18   H     H_    0.578783 0.613345 0.625120 0.168617
H19   H     H_    0.634310 0.972669 0.375224 0.171966
H20   H     H_    0.010599 0.654511 0.128430 0.169504
H21   H     H_    0.354300 0.369924 0.375833 0.182999
H22   H     H_    0.638247 0.978928 0.126417 0.176225
H23   H     H_    0.005192 0.649240 0.370952 0.174563
H24   H     H_    0.613321 0.578676 0.125129 0.168628
H25   H     H_    0.128653 0.446979 0.161195 0.145337
H26   H     H_    0.307155 0.840385 0.341199 0.165000
H27   H     H_    0.295825 0.471687 0.164695 0.141119
H28   H     H_    0.154650 0.466494 0.341770 0.173417
H29   H     H_    0.310342 0.848139 0.158983 0.170858
H30   H     H_    0.548845 0.692465 0.337820 0.173426
H31   H     H_    0.446969 0.128649 0.661200 0.145347
H32   H     H_    0.840306 0.307151 0.841213 0.165001
H33   H     H_    0.471590 0.295824 0.664706 0.141144
H34   H     H_    0.466586 0.154739 0.841785 0.173402
H35   H     H_    0.848037 0.310301 0.658979 0.170850
H36   H     H_    0.692458 0.548881 0.837814 0.173423
H37   H     H_    0.072390 0.439093 0.108026 0.135028
H38   H     H_    0.348342 0.877335 0.396072 0.156240
H39   H     H_    0.318467 0.437658 0.111197 0.147814
H40   H     H_    0.105180 0.465125 0.395494 0.152277
H41   H     H_    0.354153 0.890732 0.104628 0.149102
H42   H     H_    0.560814 0.655093 0.391565 0.158080
H43   H     H_    0.439097 0.072417 0.608027 0.135025
H44   H     H_    0.877221 0.348355 0.896087 0.156701
H45   H     H_    0.437565 0.318468 0.611208 0.147835
H46   H     H_    0.465239 0.105264 0.895508 0.152254
H47   H     H_    0.890626 0.354094 0.604623 0.149115
H48   H     H_    0.655096 0.560848 0.891560 0.158087
N13   N     N_R   0.948946 0.615251 0.813582 0.094113
O51   O     O_R   0.982981 0.613674 0.786452 -0.232754
O52   O     O_R   0.947882 0.689787 0.822078 -0.291617
N14   N     N_R   0.676029 0.058607 0.688339 0.093592
O53   O     O_R   0.647918 0.026369 0.716242 -0.218271
O54   O     O_R   0.754877 0.069503 0.678581 -0.293552
N15   N     N_R   0.385152 0.328294 0.815164 0.090953
O55   O     O_R   0.380801 0.354660 0.786975 -0.270204
O56   O     O_R   0.314676 0.252868 0.825987 -0.294342
N16   N     N_R   0.949200 0.616376 0.687695 0.096843
O57   O     O_R   0.981616 0.614727 0.715149 -0.237225
O58   O     O_R   0.947222 0.690356 0.679153 -0.269628
N17   N     N_R   0.659945 0.042965 0.810151 0.095529
O59   O     O_R   0.624463 0.013270 0.782634 -0.227504
O60   O     O_R   0.734202 0.040664 0.818144 -0.285167
N18   N     N_R   0.619172 0.613271 0.685399 0.107500
O61   O     O_R   0.592503 0.608519 0.714173 -0.249194
O62   O     O_R   0.677435 0.694113 0.673779 -0.256675
N19   N     N_R   0.615250 0.948902 0.313590 0.094104
O63   O     O_R   0.613707 0.982940 0.286457 -0.232758
O64   O     O_R   0.689762 0.947805 0.322095 -0.291643
N20   N     N_R   0.058574 0.676003 0.188346 0.093600
O65   O     O_R   0.026353 0.647890 0.216250 -0.218293
O66   O     O_R   0.069448 0.754844 0.178590 -0.293522
N21   N     N_R   0.328334 0.385146 0.315156 0.090951
O67   O     O_R   0.354708 0.380822 0.286966 -0.270192
O68   O     O_R   0.252922 0.314648 0.325976 -0.294336
N22   N     N_R   0.616384 0.949144 0.187699 0.096833
O69   O     O_R   0.614758 0.981582 0.215152 -0.237237
O70   O     O_R   0.690338 0.947115 0.179158 -0.269640
N23   N     N_R   0.043050 0.660029 0.310167 0.095524
O71   O     O_R   0.013326 0.624573 0.282649 -0.227465
O72   O     O_R   0.040814 0.734314 0.318170 -0.285239
N24   N     N_R   0.613242 0.619021 0.185416 0.107517
O73   O     O_R   0.608396 0.592391 0.214200 -0.249213
O74   O     O_R   0.694152 0.677108 0.173798 -0.256702
O75   O     O_3   0.213581 0.694828 0.957677 -0.498211
C169  C     C_3   0.227345 0.782187 0.948371 -0.044373
H49   H     H_    0.271944 0.836278 0.965499 0.121453
H50   H     H_    0.161378 0.782874 0.944609 0.107320
H51   H     H_    0.265225 0.801048 0.925887 0.199089
O76   O     O_3   0.727963 0.239328 0.520397 -0.506880
C170  C     C_3   0.808240 0.237624 0.530274 -0.071761
H52   H     H_    0.797236 0.203297 0.553290 0.158038
H53   H     H_    0.866036 0.310053 0.532919 0.146475
H54   H     H_    0.831026 0.202655 0.513198 0.079648
O77   O     O_3   0.423262 0.226458 0.978218 -0.498400
C171  C     C_3   0.498361 0.210592 0.974231 -0.026038
H55   H     H_    0.502091 0.170738 0.994315 0.123207
H56   H     H_    0.566741 0.274995 0.970630 0.139683
H57   H     H_    0.484509 0.166596 0.953245 0.167752
O78   O     O_3   0.222709 0.710748 0.544516 -0.533995
C172  C     C_3   0.232757 0.796473 0.554115 -0.041327
H58   H     H_    0.268804 0.815208 0.576990 0.193538
H59   H     H_    0.165330 0.794665 0.557259 0.111243
H60   H     H_    0.277620 0.851977 0.537508 0.121983
O79   O     O_3   0.745191 0.248911 0.981931 -0.519054
C173  C     C_3   0.824897 0.245481 0.972611 -0.066306
H61   H     H_    0.813737 0.209748 0.949820 0.158782
H62   H     H_    0.846699 0.210846 0.990135 0.081125
H63   H     H_    0.883309 0.317508 0.969761 0.142110
O80   O     O_3   0.250726 0.447255 0.541492 -0.503911
C174  C     C_3   0.267431 0.535691 0.551095 -0.045630
H64   H     H_    0.322018 0.565998 0.569364 0.169907
H65   H     H_    0.202562 0.527660 0.561236 0.199913
H66   H     H_    0.287776 0.585666 0.531422 0.089587
O81   O     O_3   0.694772 0.213652 0.457670 -0.498184
C175  C     C_3   0.782144 0.227447 0.448366 -0.044358
H67   H     H_    0.800969 0.265276 0.425872 0.199070
H68   H     H_    0.782875 0.161495 0.444622 0.107253
H69   H     H_    0.836235 0.272107 0.465484 0.121478
O82   O     O_3   0.239259 0.727986 0.020404 -0.506907
C176  C     C_3   0.237557 0.808259 0.030287 -0.071746
H70   H     H_    0.203298 0.797265 0.053315 0.158112
H71   H     H_    0.202526 0.831017 0.013227 0.079641
H72   H     H_    0.309988 0.866071 0.032910 0.146457
O83   O     O_3   0.226427 0.423123 0.478212 -0.498401
C177  C     C_3   0.210500 0.498183 0.474226 -0.026034
H73   H     H_    0.166482 0.484292 0.453243 0.167810
H74   H     H_    0.274877 0.566581 0.470617 0.139798
H75   H     H_    0.170646 0.501897 0.494312 0.123158
O84   O     O_3   0.710610 0.222706 0.044516 -0.534280
C178  C     C_3   0.796674 0.233356 0.054006 -0.040798
H76   H     H_    0.852259 0.280647 0.037843 0.123613
H77   H     H_    0.796349 0.166427 0.056241 0.108444
H78   H     H_    0.814139 0.266979 0.077284 0.193902
O85   O     O_3   0.248960 0.745123 0.481946 -0.519050
C179  C     C_3   0.245563 0.824802 0.472552 -0.066620
H79   H     H_    0.208376 0.845198 0.489554 0.080722
H80   H     H_    0.212480 0.814439 0.449282 0.160621
H81   H     H_    0.317635 0.883911 0.470644 0.141138
O86   O     O_3   0.447333 0.250755 0.041499 -0.503910
C180  C     C_3   0.535772 0.267485 0.051108 -0.045622
H82   H     H_    0.566066 0.322086 0.069373 0.169862
H83   H     H_    0.585753 0.287832 0.031437 0.089691
H84   H     H_    0.527755 0.202629 0.061256 0.199880

loop_
_geom_bond_atom_site_label_1
_geom_bond_atom_site_label_2
_geom_bond_distance
_ccdc_geom_bond_type
C88   C95   1.407588 A    
C169  H50   1.115479 S    
C176  H70   1.109945 S    
C38   O28   1.221678 D    
C19   C122  1.407317 A    
C51   C63   1.400830 A    
H11   C100  1.083385 S    
N4    C52   1.378888 Am   
C127  H31   1.082858 S    
N15   O55   1.301421 A    
C52   C64   1.405550 A    
C109  C157  1.397085 A    
C120  C168  1.395748 A    
C172  H58   1.109510 S    
C124  H28   1.083520 S    
C148  H23   1.083032 S    
N19   O64   1.301431 A    
C33   C45   1.415534 A    
C139  N14   1.435978 S    
C42   N6    1.382074 Am   
N8    C56   1.381608 Am   
C169  H51   1.109251 S    
O21   C9    1.288821 A    
O24   Cr6   1.891874 S    
C179  H79   1.114436 S    
O10   Cr4   2.003074 S    
C68   C80   1.412340 A    
C18   C141  1.419259 A    
C180  H84   1.108919 S    
O12   Cr6   2.005873 S    
H5    C106  1.083383 S    
C89   C94   1.407616 A    
O76   C170  1.415269 S    
H7    C98   1.083495 S    
O1    Cr1   2.006130 S    
O3    Cr3   2.001455 S    
N2    C50   1.381604 Am   
C131  H35   1.083445 S    
O7    C9    1.284844 A    
C111  C123  1.390094 A    
C122  H26   1.083476 S    
C113  H41   1.083185 S    
C45   N9    1.379637 Am   
C115  H43   1.082920 S    
C87   O86   1.384177 S    
C10   C24   1.476367 S    
C173  H61   1.110011 S    
C56   O46   1.222973 D    
C99   C108  1.387655 A    
C102  C105  1.387659 A    
C86   O81   1.385474 S    
C36   C48   1.415728 A    
C100  C107  1.390453 A    
O14   Cr2   1.896395 S    
C65   C77   1.412084 A    
N6    C162  1.439581 S    
O15   C3    1.288812 A    
N19   O63   1.301187 A    
C175  H67   1.109249 S    
N20   O65   1.300455 A    
C112  C124  1.393579 A    
C171  H55   1.108654 S    
C48   N12   1.382072 Am   
O15   Cr3   1.896132 S    
C92   O75   1.385469 S    
C28   C40   1.414611 A    
C57   C69   1.400832 A    
O5    C1    1.280109 A    
C125  H29   1.083444 S    
C176  H72   1.108238 S    
C61   C97   1.404773 A    
C147  C159  1.398604 A    
C172  H60   1.108935 S    
N18   O61   1.301494 A    
C134  N19   1.438012 S    
C7    C21   1.477655 S    
C109  H37   1.082920 S    
C142  C154  1.405237 A    
N7    C163  1.437549 S    
C45   O35   1.221733 D    
C47   O37   1.221514 D    
O78   C172  1.411785 S    
C173  H63   1.108731 S    
C97   C104  1.391789 A    
O23   Cr5   1.894626 S    
C179  H81   1.109333 S    
Cr2   O25   1.964722 S    
N13   O52   1.301431 A    
C112  H40   1.082823 S    
N5    C53   1.381521 Am   
N9    C165  1.435118 S    
C117  C165  1.395180 A    
C178  H78   1.109180 S    
C17   C130  1.406803 A    
C46   N10   1.381567 Am   
C26   C38   1.415376 A    
C41   O31   1.221505 D    
C15   C144  1.419325 A    
C48   O38   1.221533 D    
O21   Cr6   1.896131 S    
N8    C164  1.442261 S    
O75   C169  1.412094 S    
N1    C157  1.437580 S    
C11   C19   1.480158 S    
C12   C20   1.483831 S    
C77   C82   1.417321 A    
N6    C54   1.378991 Am   
H1    C104  1.083489 S    
C64   C76   1.413897 A    
C28   C76   1.410720 A    
C156  C168  1.401728 A    
O81   C175  1.412097 S    
C138  N21   1.437383 S    
C153  C165  1.398625 A    
C136  C148  1.405220 A    
N15   O56   1.301388 A    
C148  C160  1.398044 A    
C22   C137  1.420363 A    
N10   C58   1.378880 Am   
C112  C160  1.397753 A    
C177  H73   1.108622 S    
C175  H69   1.108520 S    
C65   C101  1.405560 A    
N22   O69   1.301182 A    
C32   C92   1.420064 A    
C24   C135  1.419259 A    
H8    C97   1.083322 S    
C54   O44   1.223154 D    
N24   O74   1.301489 A    
C59   C71   1.404279 A    
C60   C72   1.401331 A    
C85   O82   1.383672 S    
C138  C150  1.406851 A    
C64   C100  1.404192 A    
N22   O70   1.301437 A    
C51   O41   1.223411 D    
C63   C99   1.403546 A    
C49   O39   1.222492 D    
C35   C47   1.417369 A    
C149  H22   1.083019 S    
C54   C66   1.401335 A    
O22   Cr4   1.896447 S    
C27   C87   1.419344 A    
N17   O60   1.301403 A    
C23   C136  1.419980 A    
C155  H16   1.083022 S    
C111  H39   1.082996 S    
C27   C39   1.415538 A    
N21   O68   1.301380 A    
O22   C10   1.288206 A    
C37   N1    1.380954 Am   
C113  C125  1.394017 A    
C20   C133  1.421693 A    
O8    Cr5   2.004623 S    
C170  H53   1.108237 S    
C22   C125  1.407111 A    
C110  C122  1.393197 A    
C55   O45   1.222494 D    
N14   O54   1.301384 A    
C116  C128  1.393220 A    
C150  C162  1.401728 A    
O2    Cr2   2.004615 S    
C63   C75   1.413987 A    
C154  H17   1.083029 S    
C150  H21   1.082984 S    
C130  H34   1.083519 S    
C94   O79   1.383104 S    
H10   C101  1.083114 S    
O8    C10   1.281932 A    
C62   C74   1.412340 A    
C29   C41   1.417368 A    
C95   O78   1.385253 S    
C135  N24   1.438063 S    
C147  H24   1.083043 S    
C31   C43   1.412346 A    
C146  H19   1.083035 S    
C114  H42   1.083201 S    
C142  N17   1.436674 S    
C117  H45   1.083016 S    
C16   C143  1.420350 A    
O20   C8    1.289327 A    
C115  C163  1.397075 A    
C141  C153  1.403813 A    
C113  C161  1.399425 A    
C153  H18   1.083057 S    
C139  C151  1.403809 A    
C70   C106  1.404186 A    
C101  C106  1.390451 A    
C145  C157  1.396656 A    
C66   C78   1.414339 A    
C13   C140  1.419640 A    
C73   C80   1.416612 A    
C60   O50   1.223157 D    
C74   C79   1.416600 A    
H9    C102  1.083599 S    
C174  H66   1.113073 S    
C58   C70   1.405554 A    
C61   C73   1.414055 A    
O6    C2    1.286104 A    
C126  H30   1.083451 S    
C179  H80   1.110406 S    
C135  C147  1.403844 A    
O17   Cr2   1.894618 S    
C38   N2    1.382199 Am   
C19   C134  1.419636 A    
C118  C130  1.393590 A    
C25   C85   1.417695 A    
C180  H83   1.113071 S    
C133  C145  1.403831 A    
O19   Cr4   1.893945 S    
Cr4   O26   1.964559 S    
C110  H38   1.083219 S    
C152  H13   1.083034 S    
C1    C15   1.477661 S    
C2    C16   1.482472 S    
C177  H75   1.108658 S    
C4    C18   1.476383 S    
C20   C121  1.407708 A    
C141  N18   1.438030 S    
C69   C105  1.403544 A    
O17   C5    1.288979 A    
C110  C158  1.398405 A    
C171  H57   1.108628 S    
C72   C108  1.404477 A    
O19   C7    1.290170 A    
C34   C46   1.414675 A    
C71   C107  1.405559 A    
C56   C68   1.404868 A    
C13   C128  1.407313 A    
Cr6   O26   1.967596 S    
C120  H48   1.083205 S    
C41   N5    1.382967 Am   
N16   O57   1.301180 A    
C173  H62   1.113445 S    
C43   N7    1.380948 Am   
C132  H36   1.083454 S    
C67   C103  1.404762 A    
O85   C179  1.414698 S    
O84   C178  1.411935 S    
C36   C84   1.413789 A    
C78   C81   1.416142 A    
C118  H46   1.082819 S    
C136  N23   1.436672 S    
C58   O48   1.222633 D    
N12   C168  1.439578 S    
C76   C83   1.417328 A    
C175  H68   1.115481 S    
N20   O66   1.301386 A    
C98   C103  1.391778 A    
O16   Cr1   1.896441 S    
C169  H49   1.108521 S    
N23   O71   1.300580 A    
C176  H71   1.113869 S    
C26   C74   1.414124 A    
O5    Cr2   2.005983 S    
N1    C49   1.378947 Am   
N3    C51   1.378213 Am   
C172  H59   1.115973 S    
N18   O62   1.301439 A    
N11   C167  1.443897 S    
C33   C81   1.413545 A    
C70   C82   1.413902 A    
C88   O85   1.383141 S    
C66   C102  1.404473 A    
N7    C55   1.378934 Am   
H4    C107  1.083117 S    
C174  H64   1.110141 S    
C30   C78   1.413784 A    
C57   O47   1.223410 D    
C128  H32   1.083475 S    
N3    C159  1.435112 S    
C25   C73   1.410525 A    
Cr1   O25   1.964558 S    
C49   C61   1.406565 A    
O18   Cr3   1.891873 S    
N13   O51   1.301187 A    
C50   O40   1.222975 D    
C149  C161  1.400584 A    
N5    C161  1.443919 S    
C119  H47   1.083184 S    
C178  H77   1.115677 S    
O24   C12   1.289024 A    
C44   O34   1.221679 D    
C5    C13   1.480173 S    
O23   C11   1.288991 A    
Cr5   O26   1.964719 S    
C69   C81   1.413981 A    
C29   C89   1.420001 A    
C8    C22   1.482488 S    
C33   C93   1.419336 A    
C152  C164  1.400552 A    
C121  H25   1.082856 S    
C144  C156  1.406846 A    
C170  H52   1.109955 S    
C154  C166  1.398038 A    
N10   C166  1.439013 S    
C177  H74   1.116114 S    
C118  C166  1.397755 A    
C40   N4    1.381576 Am   
C47   N11   1.382953 Am   
C42   O32   1.221532 D    
C16   C131  1.407122 A    
C25   C37   1.412353 A    
C44   N8    1.382206 Am   
C115  C127  1.393904 A    
O4    Cr1   2.003082 S    
N2    C158  1.442234 S    
C28   C88   1.418420 A    
O9    C11   1.285437 A    
O6    Cr3   2.005874 S    
O10   C12   1.286201 A    
C90   C93   1.408232 A    
O16   C4    1.288220 A    
C146  C158  1.400549 A    
C29   C77   1.413751 A    
N17   O59   1.300580 A    
C178  H76   1.108581 S    
O77   C171  1.411899 S    
C67   C79   1.414063 A    
O20   Cr5   1.896387 S    
C62   C98   1.406408 A    
N21   O67   1.301417 A    
O9    Cr6   2.001457 S    
C120  C132  1.386174 A    
C116  C164  1.398422 A    
C171  H56   1.116111 S    
C26   C86   1.420065 A    
C21   C138  1.419321 A    
C90   O83   1.385919 S    
C123  H27   1.082979 S    
N9    C57   1.378218 Am   
C143  N16   1.437877 S    
N11   C59   1.381518 Am   
O3    C5    1.285453 A    
C40   O30   1.222248 D    
C23   C124  1.406812 A    
C3    C17   1.480449 S    
C137  C149  1.406300 A    
C17   C142  1.419982 A    
C46   O36   1.222269 D    
N4    C160  1.439009 S    
O7    Cr4   2.006136 S    
O18   C6    1.289011 A    
C32   C44   1.415381 A    
O13   Cr1   1.893952 S    
C119  C167  1.399407 A    
C85   C92   1.406234 A    
C129  H33   1.082991 S    
C27   C75   1.413548 A    
C86   C91   1.406230 A    
O12   C8    1.286126 A    
C24   C123  1.407022 A    
O13   C1    1.290172 A    
C59   O49   1.223036 D    
C155  C167  1.400585 A    
C43   O33   1.222490 D    
C111  C159  1.395146 A    
C114  C126  1.386176 A    
N23   O72   1.301404 A    
C140  C152  1.405646 A    
C137  N22   1.437873 S    
C35   C95   1.420079 A    
C36   C96   1.419206 A    
Cr3   O25   1.967594 S    
C21   C126  1.407076 A    
C109  C121  1.393925 A    
O14   C2    1.289339 A    
C140  N13   1.438016 S    
H2    C103  1.083324 S    
C151  C163  1.396646 A    
N24   O73   1.301517 A    
C116  H44   1.083225 S    
C174  H65   1.108905 S    
C37   O27   1.222488 D    
C14   C139  1.421692 A    
C68   C104  1.406406 A    
C39   O29   1.221733 D    
C30   C42   1.415732 A    
C96   O77   1.385928 S    
C180  H82   1.110147 S    
C72   C84   1.414344 A    
C143  C155  1.406303 A    
C15   C132  1.407085 A    
C55   C67   1.406543 A    
C34   C82   1.410707 A    
C71   C83   1.412084 A    
C31   C91   1.417696 A    
C53   C65   1.404274 A    
C156  H15   1.082986 S    
O86   C180  1.414941 S    
C9    C23   1.480446 S    
O1    C3    1.284851 A    
C31   C79   1.410530 A    
C32   C80   1.414118 A    
C114  C162  1.395749 A    
C52   O42   1.222635 D    
C35   C83   1.413743 A    
C133  N20   1.435976 S    
C50   C62   1.404844 A    
C170  H54   1.113862 S    
C75   C84   1.416144 A    
O83   C177  1.411889 S    
C144  N15   1.437385 S    
N14   O53   1.300455 A    
N16   O58   1.301437 A    
C93   O80   1.384173 S    
C151  H14   1.083134 S    
O80   C174  1.414948 S    
C14   C127  1.407703 A    
C145  H20   1.083136 S    
C6    C14   1.483792 S    
O82   C176  1.415275 S    
C18   C129  1.407049 A    
C39   N3    1.379633 Am   
O11   Cr5   2.005974 S    
C91   O76   1.383676 S    
C119  C131  1.394010 A    
C89   O84   1.385247 S    
C134  C146  1.405642 A    
C30   C90   1.419199 A    
C117  C129  1.390109 A    
O11   C7    1.280106 A    
N12   C60   1.378989 Am   
C34   C94   1.418482 A    
O79   C173  1.414492 S    
O2    C4    1.281927 A    
C53   O43   1.223034 D    
H3    C108  1.083601 S    
H6    C105  1.083096 S    
O4    C6    1.286195 A    
C87   C96   1.408229 A    
H12   C99   1.083099 S    
