data_mof_unit_54282.cif
_audit_creation_date              2012-12-10T18:42:41-0500
_audit_creation_method            fapswitch 2.2
_symmetry_space_group_name_H-M    P1
_symmetry_Int_Tables_number       1
_space_group_crystal_system       triclinic
_cell_length_a                    10.881525
_cell_length_b                    15.073727
_cell_length_c                    13.843966
_cell_angle_alpha                 89.935247
_cell_angle_beta                  91.374713
_cell_angle_gamma                 89.921547
_cell_volume                      2270.10117799

loop_
_atom_site_label
_atom_site_type_symbol
_atom_type_description
_atom_site_fract_x
_atom_site_fract_y
_atom_site_fract_z
_atom_type_partial_charge
C1    C     C_R   0.501095 0.329793 0.500112 0.801083
C2    C     C_R   0.501066 0.670083 0.499957 0.790867
C3    C     C_R   0.871700 0.499343 0.503039 -0.099340
C4    C     C_R   0.128182 0.504125 0.496760 -0.102067
C5    C     C_R   0.942629 0.484569 0.588236 0.022813
C6    C     C_R   0.057210 0.519932 0.411522 0.025151
C7    C     C_R   0.574100 0.096550 0.579357 0.180701
C8    C     C_R   0.588811 0.902685 0.433197 0.178082
C9    C     C_R   0.565882 0.189181 0.577923 -0.202695
C10   C     C_R   0.580116 0.810077 0.433124 -0.212480
C11   C     C_R   0.506547 0.233211 0.500794 -0.065084
C12   C     C_R   0.506628 0.766414 0.499787 -0.072022
C13   C     C_R   0.454487 0.184799 0.424147 -0.182393
C14   C     C_R   0.440455 0.814853 0.567012 -0.200483
C15   C     C_R   0.459621 0.092797 0.425427 -0.179885
C16   C     C_R   0.445485 0.906823 0.566343 -0.178101
C17   C     C_R   0.519430 0.048248 0.502031 0.043515
C18   C     C_R   0.519546 0.951174 0.500467 0.046163
C19   C     C_R   0.585412 0.552505 0.109900 0.309650
C20   C     C_R   0.506651 0.419103 0.892722 0.297608
C21   C     C_R   0.582553 0.551179 0.211499 0.023547
C22   C     C_R   0.507951 0.421650 0.791055 -0.000201
C23   C     C_R   0.262057 0.502269 0.498676 0.799151
C24   C     C_R   0.737932 0.498954 0.501260 0.801526
C25   C     C_R   0.417700 0.449448 0.207664 0.064442
C26   C     C_R   0.491035 0.577629 0.791580 0.060496
C27   C     C_R   0.416313 0.449162 0.106136 -0.227850
C28   C     C_R   0.491245 0.578387 0.893138 -0.213484
C29   C     C_R   0.501292 0.500291 0.055026 0.128607
C30   C     C_R   0.500220 0.498851 0.945952 0.106289
C31   C     C_R   0.190172 0.654718 0.207705 0.140556
C32   C     C_R   0.835692 0.351867 0.802000 0.109229
C33   C     C_R   0.158923 0.627174 0.301169 -0.183257
C34   C     C_R   0.862197 0.375671 0.706505 -0.228400
C35   C     C_R   0.108510 0.542916 0.316641 0.091852
C36   C     C_R   0.891179 0.463566 0.683298 0.108165
C37   C     C_R   0.090206 0.485406 0.238167 -0.221269
C38   C     C_R   0.889840 0.528744 0.755240 -0.201361
C39   C     C_R   0.121839 0.511615 0.145408 -0.177630
C40   C     C_R   0.862733 0.505974 0.850050 -0.163964
C41   C     C_R   0.171321 0.595787 0.129324 0.404369
C42   C     C_R   0.837787 0.417848 0.874459 0.426541
C43   C     C_R   0.930064 0.516846 0.416049 -0.224323
C44   C     C_R   0.069628 0.487204 0.583816 -0.225638
Cu1   Cu    Cu3+1 0.500000 0.499990 0.596430 0.954899
Cu2   Cu    Cu3+1 0.500000 0.500010 0.403570 0.954815
H1    H     H_    0.416365 0.055996 0.366716 0.150844
H2    H     H_    0.391302 0.943748 0.617207 0.151023
H3    H     H_    0.647100 0.591219 0.253022 0.150910
H4    H     H_    0.515502 0.359773 0.752623 0.157859
H5    H     H_    0.352144 0.409385 0.245730 0.136409
H6    H     H_    0.483213 0.640116 0.753868 0.145111
H7    H     H_    0.348108 0.409650 0.067684 0.185934
H8    H     H_    0.482986 0.641202 0.930313 0.203259
H9    H     H_    0.169382 0.672640 0.361414 0.133555
H10   H     H_    0.866016 0.325077 0.651057 0.138466
H11   H     H_    0.048964 0.420850 0.248647 0.173340
H12   H     H_    0.914333 0.596581 0.738529 0.165000
H13   H     H_    0.106567 0.466490 0.085519 0.197933
H14   H     H_    0.865627 0.556629 0.905327 0.234256
H15   H     H_    0.876370 0.530118 0.350557 0.180984
H16   H     H_    0.122950 0.474234 0.649562 0.181571
H17   H     H_    0.608473 0.227237 0.635984 0.138390
H18   H     H_    0.633247 0.771738 0.382652 0.152069
H19   H     H_    0.408064 0.218075 0.364195 0.155643
H20   H     H_    0.383205 0.781548 0.618721 0.149341
N1    N     N_R   0.500000 0.500020 0.258690 -0.197357
N2    N     N_R   0.500000 0.499980 0.741310 -0.195603
O1    O     O_R   0.500010 0.371450 0.581430 -0.598013
O2    O     O_R   0.499990 0.628550 0.418570 -0.592518
O3    O     O_R   0.500010 0.371460 0.418560 -0.573578
O4    O     O_R   0.499990 0.628540 0.581440 -0.590727
O5    O     O_R   0.319640 0.500000 0.581430 -0.576566
O6    O     O_R   0.680360 0.500000 0.418570 -0.587544
O7    O     O_R   0.319640 0.500010 0.418560 -0.580498
O8    O     O_R   0.680360 0.499990 0.581440 -0.567517
Cl1   Cl    Cl    0.207418 0.624128 0.009889 -0.683953
Cl2   Cl    Cl    0.816164 0.392325 0.997041 -0.585901
Cl3   Cl    Cl    0.698612 0.617744 0.055604 -0.650574
Cl4   Cl    Cl    0.515943 0.314652 0.949550 -0.648955
C45   C     C_3   0.237011 0.748127 0.193760 -0.390221
C46   C     C_3   0.368117 0.757968 0.233335 -0.789160
H21   H     H_    0.371454 0.744954 0.312162 0.259728
H22   H     H_    0.430335 0.711221 0.196393 0.266057
H23   H     H_    0.400290 0.826730 0.220751 0.241622
H24   H     H_    0.234896 0.768064 0.116642 0.257835
H25   H     H_    0.176211 0.795359 0.231645 0.195653
C47   C     C_3   0.813141 0.255551 0.825296 -0.377795
C48   C     C_3   0.932812 0.208875 0.854445 -0.765263
H26   H     H_    0.999002 0.212316 0.794688 0.242191
H27   H     H_    0.974474 0.240170 0.920004 0.282302
H28   H     H_    0.913918 0.138063 0.870454 0.241405
H29   H     H_    0.746378 0.248836 0.884072 0.284034
H30   H     H_    0.772156 0.221463 0.761278 0.181628
C49   C     C_3   0.645704 0.052468 0.661525 -0.454828
C50   C     C_3   0.579345 0.061373 0.757018 -0.772254
H31   H     H_    0.568477 0.132233 0.776983 0.261500
H32   H     H_    0.487239 0.029965 0.751524 0.250216
H33   H     H_    0.633746 0.027763 0.815271 0.251051
H34   H     H_    0.662168 0.981042 0.647531 0.218697
H35   H     H_    0.737885 0.083729 0.668615 0.199257
C51   C     C_3   0.676485 0.946558 0.364477 -0.433417
C52   C     C_3   0.630590 0.939044 0.259744 -0.787803
H36   H     H_    0.626906 0.868483 0.236922 0.255248
H37   H     H_    0.537741 0.969009 0.250981 0.246025
H38   H     H_    0.694444 0.974785 0.211969 0.256062
H39   H     H_    0.690793 0.017700 0.381758 0.216392
H40   H     H_    0.768105 0.914240 0.371976 0.203055

loop_
_geom_bond_atom_site_label_1
_geom_bond_atom_site_label_2
_ccdc_geom_bond_type
C33   H9    S    
C5    C36   S    
C34   H10   S    
C40   H14   S    
C27   C29   A    
C49   C50   S    
C1    C11   S    
C15   H1    S    
C2    C12   S    
C16   H2    S    
C21   H3    S    
C45   C46   S    
C39   C41   A    
C20   C30   A    
Cu1   Cu2   S    
C3    C43   A    
C1    O3    A    
Cu1   O8    S    
C35   C37   A    
C41   Cl1   S    
C32   C47   S    
C50   H33   S    
C6    C35   S    
Cu1   O5    S    
C38   H12   S    
C7    C17   A    
C50   H32   S    
C31   C33   A    
C51   H40   S    
C48   H27   S    
C45   H24   S    
C22   H4    S    
C40   C42   A    
C21   N1    A    
Cu1   O4    S    
C3    C24   S    
C23   O5    A    
C2    O4    A    
Cu2   O7    S    
C47   H30   S    
C20   Cl4   S    
Cu1   O1    S    
C4    C6    A    
C23   O7    A    
C4    C23   S    
C28   H8    S    
C49   H34   S    
C24   O8    A    
C13   H19   S    
C4    C44   A    
C44   H16   S    
C8    C18   A    
C25   N1    A    
C32   C34   A    
C25   H5    S    
C29   C30   S    
C26   H6    S    
C39   H13   S    
C50   H31   S    
Cu1   N2    S    
C17   C18   S    
C14   H20   S    
C51   H39   S    
C52   H37   S    
C48   H28   S    
C19   Cl3   S    
C9    C11   A    
C22   N2    A    
Cu2   O3    S    
C45   H25   S    
C10   C12   A    
C16   C18   A    
C5    C44   A    
C20   C22   A    
C42   Cl2   S    
C46   H22   S    
C6    C43   A    
C13   C15   A    
C14   C16   A    
C19   C29   A    
Cu2   O6    S    
C43   H15   S    
C7    C9    A    
C47   H29   S    
C31   C41   A    
C19   C21   A    
C9    H17   S    
C10   H18   S    
C12   C14   A    
C3    C5    A    
C27   H7    S    
C15   C17   A    
C25   C27   A    
C46   H23   S    
C7    C49   S    
C26   C28   A    
C31   C45   S    
C26   N2    A    
C28   C30   A    
Cu2   N1    S    
C37   C39   A    
C38   C40   A    
C11   C13   A    
C24   O6    A    
C36   C38   A    
C33   C35   A    
C52   H38   S    
C34   C36   A    
C51   C52   S    
C1    O1    A    
Cu2   O2    S    
C47   C48   S    
C8    C10   A    
C46   H21   S    
C52   H36   S    
C32   C42   A    
C48   H26   S    
C2    O2    A    
C8    C51   S    
C37   H11   S    
C49   H35   S    
