data_mof_unit_33059.cif
_audit_creation_date              2012-12-11T16:48:16-0500
_audit_creation_method            fapswitch 2.2
_symmetry_space_group_name_H-M    P1
_symmetry_Int_Tables_number       1
_space_group_crystal_system       triclinic
_cell_length_a                    17.320523
_cell_length_b                    24.353246
_cell_length_c                    15.064743
_cell_angle_alpha                 89.902405
_cell_angle_beta                  125.862828
_cell_angle_gamma                 89.96625
_cell_volume                      5149.78723518

loop_
_atom_site_label
_atom_site_type_symbol
_atom_type_description
_atom_site_fract_x
_atom_site_fract_y
_atom_site_fract_z
_atom_type_partial_charge
C1    C     C_R   0.355866 0.347123 0.910392 -0.164768
C2    C     C_R   0.509683 0.498239 0.684541 0.073126
C3    C     C_R   0.095389 0.868712 0.911101 -0.122536
C4    C     C_R   0.383677 0.315736 0.000873 0.080278
C5    C     C_R   0.685540 0.356818 0.004358 0.072243
C6    C     C_R   0.883676 0.815736 0.000873 0.080278
C7    C     C_R   0.185538 0.856817 0.004358 0.072242
C8    C     C_R   0.063108 0.998150 0.363844 0.078308
C9    C     C_R   0.009687 0.998238 0.684545 0.073125
C10   C     C_R   0.176549 0.498881 0.732069 0.132977
C11   C     C_R   0.808005 0.499428 0.360874 0.141974
C12   C     C_R   0.676550 0.998883 0.732071 0.132988
C13   C     C_R   0.308023 0.999424 0.360856 0.141964
C14   C     C_2   0.922740 0.458243 0.541300 -0.116014
C15   C     C_2   0.021456 0.454925 0.639541 -0.110742
C16   C     C_2   0.422747 0.958248 0.541285 -0.116085
C17   C     C_R   0.688521 0.373999 0.093462 -0.147573
C18   C     C_2   0.521457 0.954927 0.639536 -0.110713
C19   C     C_2   0.893311 0.501164 0.472558 -0.196278
C20   C     C_2   0.075169 0.500010 0.684340 -0.191137
C21   C     C_2   0.393347 0.001151 0.472522 -0.196275
C22   C     C_2   0.575171 0.000013 0.684347 -0.191172
C23   C     C_R   0.388858 0.763042 0.107109 0.155357
C24   C     C_R   0.737964 0.690550 0.900162 0.166070
C25   C     C_R   0.888859 0.263043 0.107109 0.155357
C26   C     C_R   0.237960 0.190552 0.900160 0.166073
C27   C     C_R   0.362020 0.740217 0.007482 0.033662
C28   C     C_R   0.855866 0.847123 0.910392 -0.164770
C29   C     C_R   0.757447 0.671171 0.999161 0.034517
C30   C     C_R   0.862019 0.240217 0.007482 0.033661
C31   C     C_R   0.257444 0.171172 0.999159 0.034517
C32   C     C_R   0.303406 0.771561 0.911538 -0.203516
C33   C     C_R   0.845286 0.685309 0.096870 -0.198716
C34   C     C_R   0.803405 0.271561 0.911537 -0.203514
C35   C     C_R   0.345285 0.185309 0.096867 -0.198716
C36   C     C_R   0.753595 0.316470 0.912505 -0.201031
C37   C     C_R   0.397639 0.228937 0.096748 -0.204263
C38   C     C_R   0.253595 0.816470 0.912505 -0.201031
C39   C     C_R   0.188520 0.873998 0.093461 -0.147570
C40   C     C_R   0.897639 0.728938 0.096751 -0.204263
C41   C     C_R   0.762362 0.329181 0.009157 0.036267
C42   C     C_R   0.361703 0.257878 0.998785 0.030510
C43   C     C_R   0.262361 0.829180 0.009157 0.036269
C44   C     C_R   0.861702 0.757878 0.998787 0.030508
C45   C     C_R   0.442588 0.650267 0.091823 -0.142783
C46   C     C_R   0.595869 0.628406 0.910515 -0.140056
C47   C     C_R   0.942587 0.150267 0.091823 -0.142782
C48   C     C_R   0.095867 0.128408 0.910513 -0.140054
C49   C     C_R   0.839473 0.307092 0.107938 0.164730
C50   C     C_R   0.380909 0.682515 0.002132 0.076163
C51   C     C_R   0.290096 0.233161 0.900049 0.164076
C52   C     C_R   0.339471 0.807091 0.107937 0.164730
C53   C     C_R   0.790098 0.733161 0.900052 0.164080
C54   C     C_3   0.846257 0.285481 0.205454 -0.523270
C55   C     C_3   0.205012 0.257279 0.796952 -0.523246
C56   C     C_3   0.346253 0.785478 0.205452 -0.523273
C57   C     C_3   0.705014 0.757276 0.796952 -0.523244
C58   C     C_3   0.400405 0.737325 0.204732 -0.516253
C59   C     C_3   0.647800 0.711040 0.797268 -0.528408
C60   C     C_3   0.900407 0.237327 0.204734 -0.516253
C61   C     C_R   0.684285 0.643353 0.001773 0.071595
C62   C     C_3   0.147797 0.211044 0.797269 -0.528409
C63   C     C_R   0.569847 0.446721 0.595872 0.160825
C64   C     C_R   0.588890 0.446113 0.519369 0.155153
C65   C     C_R   0.069853 0.946720 0.595878 0.160823
C66   C     C_R   0.088894 0.946113 0.519373 0.155143
C67   C     C_R   0.555642 0.496676 0.629755 0.041824
C68   C     C_R   0.594401 0.495752 0.476236 0.033254
C69   C     C_R   0.055646 0.996676 0.629758 0.041823
C70   C     C_R   0.094402 0.995752 0.476237 0.033252
C71   C     C_R   0.588178 0.545016 0.610605 -0.198431
C72   C     C_R   0.880908 0.182515 0.002132 0.076162
C73   C     C_R   0.608335 0.544487 0.533649 -0.200714
C74   C     C_R   0.088180 0.045015 0.610606 -0.198431
C75   C     C_R   0.108335 0.044487 0.533649 -0.200713
C76   C     C_3   0.528344 0.396013 0.465025 -0.514527
C77   C     C_3   0.508536 0.396700 0.549777 -0.528109
C78   C     C_3   0.028346 0.896012 0.465028 -0.514518
C79   C     C_3   0.008541 0.896698 0.549782 -0.528096
C80   C     C_R   0.549616 0.453111 0.301580 -0.147724
C81   C     C_R   0.491195 0.453065 0.723983 -0.143959
C82   C     C_R   0.049616 0.953111 0.301580 -0.147726
C83   C     C_R   0.184283 0.143354 0.001771 0.071594
C84   C     C_R   0.991197 0.953065 0.723986 -0.143960
C85   C     C_R   0.232103 0.545002 0.755251 -0.148946
C86   C     C_R   0.758415 0.545075 0.299725 -0.158710
C87   C     C_R   0.732104 0.045002 0.755251 -0.148953
C88   C     C_R   0.258427 0.045073 0.299718 -0.158710
C89   C     C_R   0.546215 0.544622 0.301549 -0.121704
C90   C     C_R   0.490687 0.544498 0.721757 -0.135696
C91   C     C_R   0.046215 0.044622 0.301549 -0.121703
C92   C     C_R   0.990690 0.044497 0.721759 -0.135692
C93   C     C_R   0.233187 0.453095 0.755371 -0.116631
C94   C     C_R   0.563109 0.498150 0.363844 0.078309
C95   C     C_R   0.756970 0.453723 0.300710 -0.133522
C96   C     C_R   0.733187 0.953095 0.755373 -0.116628
C97   C     C_R   0.256977 0.953721 0.300699 -0.133524
C98   C     C_R   0.351063 0.651754 0.909685 -0.140930
C99   C     C_R   0.688488 0.627757 0.093431 -0.126034
C100  C     C_R   0.851063 0.151754 0.909685 -0.140929
C101  C     C_R   0.188487 0.127757 0.093430 -0.126032
C102  C     C_R   0.442966 0.347893 0.092230 -0.122254
C103  C     C_R   0.595390 0.368713 0.911101 -0.122535
C104  C     C_R   0.942966 0.847893 0.092231 -0.122254
H1    H     H_    0.324239 0.332587 0.828200 0.103878
H2    H     H_    0.867754 0.667949 0.174740 0.126342
H3    H     H_    0.786412 0.257902 0.833703 0.124562
H4    H     H_    0.367753 0.167948 0.174737 0.126341
H5    H     H_    0.700249 0.336122 0.835451 0.126050
H6    H     H_    0.458093 0.243888 0.174684 0.124494
H7    H     H_    0.200249 0.836122 0.835451 0.126049
H8    H     H_    0.958091 0.743889 0.174687 0.124494
H9    H     H_    0.890733 0.312054 0.278675 0.191252
H10   H     H_    0.182883 0.297897 0.808781 0.199857
H11   H     H_    0.390729 0.812051 0.278674 0.191255
H12   H     H_    0.747798 0.372086 0.178452 0.109636
H13   H     H_    0.682881 0.797894 0.808778 0.199855
H14   H     H_    0.776261 0.273301 0.186731 0.200720
H15   H     H_    0.210925 0.255032 0.727433 0.189304
H16   H     H_    0.276257 0.773297 0.186728 0.200721
H17   H     H_    0.710929 0.755029 0.727435 0.189304
H18   H     H_    0.476035 0.736258 0.277556 0.187663
H19   H     H_    0.594310 0.726105 0.810003 0.199844
H20   H     H_    0.976038 0.236260 0.277557 0.187663
H21   H     H_    0.094309 0.226111 0.810008 0.199845
H22   H     H_    0.361048 0.697994 0.185790 0.204858
H23   H     H_    0.824238 0.832587 0.828200 0.103878
H24   H     H_    0.620084 0.682428 0.727337 0.186634
H25   H     H_    0.861050 0.197996 0.185793 0.204857
H26   H     H_    0.120076 0.182433 0.727336 0.186633
H27   H     H_    0.588564 0.583930 0.645352 0.122069
H28   H     H_    0.621263 0.583227 0.509335 0.124431
H29   H     H_    0.088564 0.083929 0.645352 0.122070
H30   H     H_    0.121261 0.083228 0.509334 0.124431
H31   H     H_    0.462855 0.403814 0.381261 0.205848
H32   H     H_    0.540538 0.361092 0.606838 0.185962
H33   H     H_    0.962855 0.903813 0.381265 0.205846
H34   H     H_    0.247796 0.872083 0.178451 0.109635
H35   H     H_    0.040546 0.861089 0.606843 0.185958
H36   H     H_    0.570975 0.359773 0.472706 0.186242
H37   H     H_    0.432414 0.405136 0.514010 0.200692
H38   H     H_    0.070977 0.859771 0.472708 0.186240
H39   H     H_    0.932418 0.905134 0.514016 0.200688
H40   H     H_    0.491905 0.663421 0.175669 0.099833
H41   H     H_    0.567604 0.635840 0.827138 0.101351
H42   H     H_    0.991905 0.163420 0.175669 0.099833
H43   H     H_    0.067598 0.135844 0.827137 0.101350
H44   H     H_    0.571972 0.411375 0.329280 0.099455
H45   H     H_    0.935964 0.537938 0.494057 0.129488
H46   H     H_    0.486837 0.411048 0.700955 0.097341
H47   H     H_    0.071972 0.911375 0.329280 0.099455
H48   H     H_    0.986840 0.911048 0.700958 0.097342
H49   H     H_    0.210026 0.587289 0.747260 0.101003
H50   H     H_    0.771278 0.586916 0.329081 0.089907
H51   H     H_    0.710027 0.087290 0.747260 0.101004
H52   H     H_    0.271298 0.086913 0.329077 0.089914
H53   H     H_    0.561380 0.586779 0.328908 0.084164
H54   H     H_    0.483431 0.585801 0.692195 0.084662
H55   H     H_    0.061381 0.086779 0.328909 0.084164
H56   H     H_    0.042527 0.540223 0.669096 0.129429
H57   H     H_    0.983436 0.085801 0.692197 0.084661
H58   H     H_    0.213300 0.410493 0.748379 0.091208
H59   H     H_    0.768718 0.411860 0.329971 0.080538
H60   H     H_    0.713300 0.910494 0.748382 0.091211
H61   H     H_    0.268726 0.911858 0.329959 0.080544
H62   H     H_    0.313603 0.666758 0.826597 0.086746
H63   H     H_    0.746517 0.633721 0.178385 0.091967
H64   H     H_    0.813603 0.166758 0.826598 0.086745
H65   H     H_    0.246516 0.133723 0.178383 0.091965
H66   H     H_    0.487762 0.334616 0.176715 0.083375
H67   H     H_    0.436034 0.037913 0.494000 0.129512
H68   H     H_    0.567145 0.355940 0.829247 0.084327
H69   H     H_    0.987761 0.834617 0.176715 0.083375
H70   H     H_    0.067144 0.855938 0.829247 0.084327
H71   H     H_    0.879935 0.421292 0.516813 0.116964
H72   H     H_    0.053536 0.414385 0.660659 0.116591
H73   H     H_    0.379906 0.921316 0.516821 0.117002
H74   H     H_    0.553530 0.914384 0.660664 0.116593
H75   H     H_    0.542529 0.040226 0.669109 0.129444
H76   H     H_    0.286415 0.757903 0.833704 0.124562
N1    N     N_R   0.395410 0.396350 0.944340 -0.039081
N2    N     N_R   0.474920 0.471030 0.794350 -0.038039
N3    N     N_R   0.025080 0.971030 0.205650 -0.038795
N4    N     N_R   0.974920 0.971030 0.794350 -0.038040
N5    N     N_R   0.320260 0.527820 0.794570 -0.042937
N6    N     N_R   0.679740 0.527820 0.205430 -0.037660
N7    N     N_R   0.820260 0.027820 0.794570 -0.042937
N8    N     N_R   0.179740 0.027820 0.205430 -0.037660
N9    N     N_R   0.524590 0.527840 0.205200 -0.039470
N10   N     N_R   0.475410 0.527840 0.794800 -0.037802
N11   N     N_R   0.024590 0.027840 0.205200 -0.039470
N12   N     N_R   0.604590 0.396350 0.055660 -0.040072
N13   N     N_R   0.975410 0.027840 0.794800 -0.037802
N14   N     N_R   0.320750 0.471000 0.795020 -0.046097
N15   N     N_R   0.679250 0.471000 0.204980 -0.040949
N16   N     N_R   0.820750 0.971000 0.795020 -0.046099
N17   N     N_R   0.179250 0.971000 0.204980 -0.040947
N18   N     N_R   0.393620 0.602490 0.942710 -0.038963
N19   N     N_R   0.606380 0.602490 0.057290 -0.040256
N20   N     N_R   0.893620 0.102490 0.942710 -0.038963
N21   N     N_R   0.106380 0.102490 0.057290 -0.040255
N22   N     N_R   0.451720 0.396350 0.057510 -0.038926
N23   N     N_R   0.895410 0.896350 0.944340 -0.039082
N24   N     N_R   0.548280 0.396350 0.942490 -0.038780
N25   N     N_R   0.951720 0.896350 0.057510 -0.038926
N26   N     N_R   0.048280 0.896350 0.942490 -0.038779
N27   N     N_R   0.104590 0.896350 0.055660 -0.040071
N28   N     N_R   0.449930 0.602500 0.055880 -0.039260
N29   N     N_R   0.550070 0.602500 0.944120 -0.039846
N30   N     N_R   0.949930 0.102500 0.055880 -0.039260
N31   N     N_R   0.050070 0.102500 0.944120 -0.039846
N32   N     N_R   0.525080 0.471030 0.205650 -0.038795
Ni1   Ni    Ni4+2 0.435420 0.434270 0.870230 0.208854
Ni2   Ni    Ni4+2 0.564580 0.434270 0.129770 0.204920
Ni3   Ni    Ni4+2 0.935420 0.934270 0.870230 0.208853
Ni4   Ni    Ni4+2 0.064580 0.934270 0.129770 0.204920
Ni5   Ni    Ni4+2 0.563430 0.564580 0.128740 0.208506
Ni6   Ni    Ni4+2 0.436570 0.564580 0.871260 0.211525
Ni7   Ni    Ni4+2 0.063430 0.064580 0.128740 0.208507
Ni8   Ni    Ni4+2 0.936570 0.064580 0.871260 0.211525

loop_
_geom_bond_atom_site_label_1
_geom_bond_atom_site_label_2
_ccdc_geom_bond_type
C92   H57   S    
C102  H66   S    
C23   C58   S    
C79   H35   S    
C5    C103  A    
C10   C85   A    
C16   C21   D    
C65   C79   S    
C12   C22   S    
N7    N16   A    
N13   Ni8   S    
C62   H26   S    
C93   N14   A    
N19   Ni5   S    
N5    N14   A    
N14   Ni1   S    
C1    N1    A    
C75   H30   S    
C40   H8    S    
N26   Ni3   S    
C54   C60   S    
C61   C99   A    
N31   Ni8   S    
N23   N25   A    
C11   C19   S    
C15   H72   S    
C8    C82   A    
N29   Ni6   S    
C93   H58   S    
C7    C39   A    
N23   Ni3   S    
C35   C37   A    
C9    C69   S    
C59   H19   S    
C3    C7    A    
C78   H38   S    
C90   N10   A    
C65   C69   A    
C43   C52   A    
C57   C59   S    
C46   H41   S    
C5    C17   A    
C11   C86   A    
C49   C54   S    
C54   H9    S    
C29   C33   A    
C37   C42   A    
C31   C83   S    
C60   H20   S    
C28   N23   A    
N12   Ni2   S    
C89   C94   A    
C2    C90   A    
C103  N24   A    
N27   Ni4   S    
N15   Ni2   S    
C35   H4    S    
C24   C29   A    
C44   C53   A    
N4    N13   A    
C79   H39   S    
C23   C27   A    
N1    N22   A    
N25   Ni4   S    
C10   C20   S    
C25   C49   A    
C39   N27   A    
N2    Ni1   S    
C95   N15   A    
C101  H65   S    
C25   C60   S    
C7    C43   S    
C83   C101  A    
C40   C44   A    
C91   H55   S    
C82   H47   S    
C27   C50   S    
C42   C51   A    
C80   N32   A    
C63   C77   S    
C73   H28   S    
C26   C31   A    
C6    C44   S    
C13   C97   A    
C56   H16   S    
C36   C41   A    
N18   Ni6   S    
C81   N2    A    
N10   Ni6   S    
C9    C92   A    
C41   C49   A    
C76   H31   S    
N9    Ni5   S    
C99   H63   S    
N7    Ni8   S    
C76   H36   S    
C17   N12   A    
C85   N5    A    
C15   C20   D    
C66   C78   S    
N6    Ni5   S    
C29   C61   S    
C58   H18   S    
C33   C40   A    
C50   C98   A    
N5    Ni6   S    
C30   C34   A    
C46   C61   A    
N18   N28   A    
C97   N17   A    
N6    N15   A    
C84   N4    A    
C76   C77   S    
N21   Ni7   S    
C2    C67   S    
C74   C75   A    
N11   Ni7   S    
C71   C73   A    
N16   Ni3   S    
C98   N18   A    
N26   N27   A    
C25   C30   A    
N4    Ni3   S    
C87   N7    A    
C10   C93   A    
C68   C73   A    
C21   H67   S    
C91   N11   A    
C82   N3    A    
C68   C94   S    
N30   Ni7   S    
C96   H60   S    
C4    C102  A    
N19   N29   A    
C90   H54   S    
C80   H44   S    
C63   C67   A    
C14   H71   S    
C95   H59   S    
C45   H40   S    
C102  N22   A    
C3    H70   S    
C48   N31   A    
C88   N8    A    
C59   H24   S    
C64   C76   S    
C13   C21   S    
C69   C74   A    
C8    C91   A    
C85   H49   S    
C104  N25   A    
N22   Ni2   S    
C92   N13   A    
C37   H6    S    
C98   H62   S    
N17   Ni4   S    
C34   C36   A    
C100  N20   A    
C77   H32   S    
N32   Ni2   S    
C86   N6    A    
C45   N28   A    
C32   C38   A    
C54   H14   S    
C47   H42   S    
C103  H68   S    
N20   Ni8   S    
C31   C35   A    
C55   H10   S    
C34   H3    S    
C80   C94   A    
C88   H52   S    
C78   H33   S    
C64   C68   A    
C36   H5    S    
C16   H73   S    
C57   H13   S    
C72   C100  A    
N8    Ni7   S    
C11   C95   A    
N28   Ni5   S    
C5    C41   S    
C53   C57   S    
N12   N24   A    
C12   C87   A    
C27   C32   A    
C18   C22   D    
C3    N26   A    
C14   C19   D    
C84   H48   S    
C32   H76   S    
C33   H2    S    
C22   H75   S    
N9    N32   A    
N3    N11   A    
C60   H25   S    
C62   H21   S    
C30   C72   S    
C28   H23   S    
C89   H53   S    
C104  H69   S    
C87   H51   S    
C24   C53   A    
C46   N29   A    
C67   C71   A    
C8    C70   S    
C6    C104  A    
C48   C83   A    
C100  H64   S    
C1    C4    A    
C55   H15   S    
C86   H50   S    
C38   C43   A    
C101  N21   A    
C26   C51   A    
N3    Ni4   S    
C45   C50   A    
C78   C79   S    
C23   C52   A    
C66   C70   A    
C4    C42   S    
N8    N17   A    
C24   C59   S    
C97   H61   S    
N24   Ni1   S    
C13   C88   A    
C74   H29   S    
C19   H45   S    
C56   H11   S    
C56   C58   S    
C51   C55   S    
C26   C62   S    
N20   N30   A    
C47   C72   A    
C39   H34   S    
C9    C84   A    
C57   H17   S    
C63   C64   A    
C52   C56   S    
C6    C28   A    
C96   N16   A    
C55   C62   S    
C18   H74   S    
C71   H27   S    
C16   C18   S    
C65   C66   A    
C20   H56   S    
C47   N30   A    
C99   N19   A    
C70   C75   A    
C89   N9    A    
C14   C15   S    
C12   C96   A    
C2    C81   A    
N1    Ni1   S    
N2    N10   A    
C58   H22   S    
C38   H7    S    
C77   H37   S    
N21   N31   A    
C81   H46   S    
C17   H12   S    
C1    H1    S    
C48   H43   S    
