data_mof_unit_60429.cif
_audit_creation_date              2012-12-10T19:28:55-0500
_audit_creation_method            fapswitch 2.2
_symmetry_space_group_name_H-M    P1
_symmetry_Int_Tables_number       1
_space_group_crystal_system       triclinic
_cell_length_a                    17.745969
_cell_length_b                    16.449547
_cell_length_c                    10.650377
_cell_angle_alpha                 90.255671
_cell_angle_beta                  90.315409
_cell_angle_gamma                 89.980861
_cell_volume                      3108.90690159

loop_
_atom_site_label
_atom_site_type_symbol
_atom_type_description
_atom_site_fract_x
_atom_site_fract_y
_atom_site_fract_z
_atom_type_partial_charge
C1    C     C_R   0.355288 0.500008 0.500030 0.865117
C2    C     C_R   0.644712 0.499992 0.499970 0.865116
C3    C     C_1   0.966214 0.499999 0.499936 0.181784
C4    C     C_1   0.033786 0.500001 0.500064 0.181784
C5    C     C_R   0.547986 0.829079 0.580158 -0.237081
C6    C     C_R   0.452014 0.170921 0.419842 -0.237081
C7    C     C_R   0.452015 0.828661 0.419876 -0.238084
C8    C     C_R   0.547985 0.171339 0.580124 -0.238084
C9    C     C_R   0.547130 0.743255 0.578742 0.095974
C10   C     C_R   0.452869 0.256744 0.421258 0.095974
C11   C     C_R   0.452857 0.742848 0.421292 0.105989
C12   C     C_R   0.547143 0.257152 0.578708 0.105989
C13   C     C_R   0.500006 0.873055 0.500012 0.129294
C14   C     C_R   0.499994 0.126945 0.499988 0.129293
C15   C     C_1   0.500004 0.962702 0.500006 -0.002321
C16   C     C_1   0.499996 0.037298 0.499993 -0.002321
C17   C     C_R   0.499765 0.499779 0.258927 0.869347
C18   C     C_R   0.500235 0.500221 0.741073 0.869347
C19   C     C_3   0.439120 0.540953 0.041737 -0.254157
C20   C     C_3   0.560880 0.459047 0.958263 -0.254157
C21   C     C_3   0.502562 0.577683 0.959996 -0.216818
C22   C     C_3   0.497438 0.422317 0.040004 -0.216818
C23   C     C_3   0.437672 0.464527 0.957546 0.441627
C24   C     C_3   0.562328 0.535473 0.042453 0.441627
C25   C     C_3   0.500299 0.500718 0.877494 -0.124980
C26   C     C_3   0.499701 0.499282 0.122506 -0.124980
C27   C     C_R   0.845937 0.573965 0.497219 0.376860
C28   C     C_R   0.154063 0.426035 0.502781 0.376860
C29   C     C_R   0.153994 0.573982 0.497650 0.377977
C30   C     C_R   0.846006 0.426018 0.502350 0.377977
C31   C     C_R   0.767358 0.573667 0.497277 -0.180636
C32   C     C_R   0.232642 0.426333 0.502722 -0.180636
C33   C     C_R   0.232574 0.573693 0.497659 -0.216882
C34   C     C_R   0.767426 0.426308 0.502342 -0.216882
C35   C     C_R   0.727543 0.499985 0.499852 -0.158323
C36   C     C_R   0.272457 0.500015 0.500148 -0.158323
C37   C     C_R   0.885495 0.499994 0.499805 -0.085877
C38   C     C_R   0.114505 0.500006 0.500195 -0.085877
Cu1   Cu    Cu3+1 0.500000 0.580420 0.500000 0.981289
Cu2   Cu    Cu3+1 0.500000 0.419580 0.500000 0.981289
N1    N     N_R   0.500000 0.701220 0.500000 -0.177820
N2    N     N_R   0.500000 0.298780 0.500000 -0.177820
O1    O     O_R   0.391260 0.567930 0.500000 -0.596568
O2    O     O_R   0.608740 0.432070 0.500000 -0.596568
O3    O     O_R   0.608740 0.567930 0.500000 -0.579125
O4    O     O_R   0.391260 0.432070 0.500000 -0.579125
O5    O     O_R   0.499980 0.567900 0.316850 -0.568148
O6    O     O_R   0.500020 0.432100 0.683150 -0.568148
O7    O     O_R   0.500020 0.567900 0.683150 -0.595500
O8    O     O_R   0.499980 0.432100 0.316850 -0.595500
Cl1   Cl    Cl    0.354428 0.417514 0.897725 -0.567520
Cl2   Cl    Cl    0.645572 0.582486 0.102275 -0.567520
H1    H     H_    0.389096 0.573696 0.078436 0.177937
H2    H     H_    0.610904 0.426304 0.921564 0.177937
H3    H     H_    0.505368 0.641136 0.925242 0.181944
H4    H     H_    0.494632 0.358864 0.074758 0.181944
Cl3   Cl    Cl    0.893119 0.668139 0.493899 -0.466432
Cl4   Cl    Cl    0.106881 0.331861 0.506100 -0.466432
Cl5   Cl    Cl    0.106718 0.668149 0.494335 -0.478766
Cl6   Cl    Cl    0.893282 0.331851 0.505665 -0.478766
H5    H     H_    0.737578 0.631152 0.495264 0.199000
H6    H     H_    0.262421 0.368848 0.504736 0.199000
H7    H     H_    0.262302 0.631178 0.495577 0.193371
H8    H     H_    0.737698 0.368822 0.504423 0.193371
H9    H     H_    0.585923 0.860793 0.643527 0.156532
H10   H     H_    0.414077 0.139207 0.356473 0.156532
H11   H     H_    0.414074 0.860043 0.356525 0.153746
H12   H     H_    0.585926 0.139957 0.643475 0.153746
H13   H     H_    0.584415 0.710295 0.641048 0.132021
H14   H     H_    0.415584 0.289705 0.358952 0.132021
H15   H     H_    0.415541 0.709570 0.359018 0.125231
H16   H     H_    0.584459 0.290430 0.640982 0.125231

loop_
_geom_bond_atom_site_label_1
_geom_bond_atom_site_label_2
_ccdc_geom_bond_type
C2    C35   S    
C24   Cl2   S    
C7    C13   A    
C10   N2    A    
C31   H5    S    
Cu1   N1    S    
Cu2   O4    S    
C6    H10   S    
C17   C26   S    
C32   C36   A    
C19   C21   S    
C24   C26   S    
C11   H15   S    
C1    O4    A    
C20   C25   S    
C15   C16   T    
C29   C33   A    
C33   C36   A    
C34   C35   A    
C19   C26   S    
C12   N2    A    
C1    O1    A    
C29   Cl5   S    
C2    O2    A    
C30   Cl6   S    
C29   C38   A    
C5    C13   A    
C33   H7    S    
Cu1   O3    S    
C19   H1    S    
Cu2   N2    S    
C12   H16   S    
C18   C25   S    
C7    C11   A    
C2    O3    A    
C30   C34   A    
C27   C31   A    
C20   C24   S    
C28   C32   A    
C5    H9    S    
C27   Cl3   S    
Cu1   Cu2   S    
C21   H3    S    
C22   H4    S    
C30   C37   A    
C19   C23   S    
C5    C9    A    
C6    C14   A    
C18   O7    A    
C23   Cl1   S    
C28   C38   A    
C8    C12   A    
C34   H8    S    
C10   H14   S    
C20   H2    S    
Cu1   O7    S    
C20   C22   S    
C8    H12   S    
C13   C15   S    
C31   C35   A    
C3    C4    T    
Cu1   O5    S    
Cu2   O6    S    
C21   C25   S    
C8    C14   A    
C17   O5    A    
C9    H13   S    
C18   O6    A    
C17   O8    A    
C6    C10   A    
Cu1   O1    S    
C28   Cl4   S    
C9    N1    A    
C32   H6    S    
C27   C37   A    
Cu2   O8    S    
C11   N1    A    
C14   C16   S    
C23   C25   S    
C7    H11   S    
Cu2   O2    S    
C3    C37   S    
C22   C26   S    
C21   C24   S    
C22   C23   S    
C4    C38   S    
C1    C36   S    
