data_mof_unit_56220.cif
_audit_creation_date              2012-12-10T17:50:11-0500
_audit_creation_method            fapswitch 2.2
_symmetry_space_group_name_H-M    P1
_symmetry_Int_Tables_number       1
_space_group_crystal_system       triclinic
_cell_length_a                    10.598703
_cell_length_b                    14.68132
_cell_length_c                    14.754313
_cell_angle_alpha                 65.074331
_cell_angle_beta                  103.307005
_cell_angle_gamma                 102.64472
_cell_volume                      2006.65009299

loop_
_atom_site_label
_atom_site_type_symbol
_atom_type_description
_atom_site_fract_x
_atom_site_fract_y
_atom_site_fract_z
_atom_type_partial_charge
C1    C     C_R   0.476586 0.119769 0.312376 0.795077
C2    C     C_R   0.520600 0.880257 0.687624 0.793879
C3    C     C_R   0.473266 0.292160 0.179073 -0.258762
C4    C     C_R   0.500139 0.707908 0.820824 -0.254590
C5    C     C_R   0.449120 0.360406 0.078039 0.088449
C6    C     C_R   0.487380 0.639526 0.920265 0.088712
C7    C     C_R   0.413426 0.320621 0.001802 0.167376
C8    C     C_R   0.507963 0.679321 0.995762 0.164962
C9    C     C_R   0.463623 0.467002 0.050734 0.064727
C10   C     C_R   0.457523 0.532912 0.946850 0.065197
C11   C     C_R   0.419147 0.490132 0.873023 -0.225135
C12   C     C_R   0.481669 0.509753 0.123578 -0.224373
C13   C     C_R   0.396275 0.385948 0.900358 -0.233163
C14   C     C_R   0.502305 0.613965 0.096138 -0.231531
C15   C     C_R   0.732839 0.292221 0.655560 -0.310604
C16   C     C_R   0.267592 0.708264 0.343761 -0.312654
C17   C     C_R   0.690561 0.206228 0.633254 0.080537
C18   C     C_R   0.309544 0.793957 0.366617 0.080237
C19   C     C_R   0.514988 0.283921 0.512588 -0.006010
C20   C     C_R   0.485294 0.716225 0.486959 -0.005990
C21   C     C_R   0.545696 0.369632 0.538960 -0.028681
C22   C     C_R   0.454770 0.630792 0.460131 -0.029088
C23   C     C_R   0.259632 0.000078 0.500661 0.784849
C24   C     C_R   0.740372 0.999930 0.499331 0.785674
C25   C     C_R   0.663527 0.375660 0.605531 0.128868
C26   C     C_R   0.337052 0.624903 0.393432 0.126610
C27   C     C_R   0.470023 0.452352 0.496472 -0.011453
C28   C     C_R   0.530539 0.548167 0.502323 -0.010117
C29   C     C_R   0.663779 0.556526 0.550095 0.132248
C30   C     C_R   0.336855 0.444109 0.448460 0.129816
C31   C     C_R   0.718353 0.467748 0.613596 -0.195550
C32   C     C_R   0.282463 0.532970 0.384918 -0.199899
C33   C     C_3   0.021879 0.031323 0.404610 -0.180271
C34   C     C_3   0.978153 0.968709 0.595374 -0.180506
C35   C     C_3   0.969588 0.094397 0.445831 -0.156421
C36   C     C_3   0.030439 0.905632 0.554153 -0.156025
C37   C     C_3   0.877076 0.999641 0.498954 0.024975
C38   C     C_3   0.122947 0.000387 0.501031 0.025846
C39   C     C_3   0.927033 0.936656 0.457656 -0.145974
C40   C     C_3   0.072996 0.063378 0.542327 -0.145376
C41   C     C_R   0.455783 0.187467 0.205018 -0.054121
C42   C     C_R   0.522838 0.812681 0.794737 -0.054890
C43   C     C_R   0.395846 0.215569 0.027851 -0.202072
C44   C     C_R   0.533833 0.784445 0.969966 -0.202472
C45   C     C_R   0.415947 0.149273 0.128960 -0.200071
C46   C     C_R   0.540041 0.850846 0.869829 -0.199094
Cu1   Cu    Cu3+1 0.465750 0.918270 0.475680 0.926742
Cu2   Cu    Cu3+1 0.534250 0.081730 0.524320 0.926768
H1    H     H_    0.941589 0.171578 0.401578 0.137593
H2    H     H_    0.058454 0.828452 0.598409 0.137914
H3    H     H_    0.562830 0.719222 0.547958 0.126009
H4    H     H_    0.437604 0.280832 0.451529 0.125337
H5    H     H_    0.255310 0.857918 0.329344 0.121604
H6    H     H_    0.744719 0.142225 0.670741 0.121900
H7    H     H_    0.821916 0.294966 0.708562 0.134692
H8    H     H_    0.178636 0.705665 0.290622 0.135396
H9    H     H_    0.043322 0.056955 0.326708 0.125190
H10   H     H_    0.956741 0.943081 0.673283 0.124199
H11   H     H_    0.863476 0.886172 0.421877 0.138968
H12   H     H_    0.136532 0.113896 0.578081 0.138463
H13   H     H_    0.366931 0.356368 0.841424 0.143906
H14   H     H_    0.515393 0.643543 0.154265 0.146884
H15   H     H_    0.494981 0.681340 0.762174 0.150197
H16   H     H_    0.509395 0.318994 0.239074 0.153129
H17   H     H_    0.557503 0.931760 0.851196 0.154081
H18   H     H_    0.401325 0.068436 0.147451 0.152605
H19   H     H_    0.367067 0.184738 0.969893 0.131585
H20   H     H_    0.548374 0.815289 0.027235 0.132676
H21   H     H_    0.401783 0.535079 0.792969 0.145203
H22   H     H_    0.476233 0.464710 0.202481 0.142645
H23   H     H_    0.813569 0.472919 0.659281 0.145068
H24   H     H_    0.187388 0.527915 0.339008 0.146350
N1    N     N_R   0.585750 0.204560 0.560800 -0.175203
N2    N     N_R   0.414250 0.795440 0.439200 -0.175166
O1    O     O_R   0.454850 0.022100 0.338110 -0.588464
O2    O     O_R   0.545150 0.977900 0.661890 -0.588569
O3    O     O_R   0.512700 0.160150 0.379180 -0.588243
O4    O     O_R   0.487300 0.839850 0.620820 -0.587756
O5    O     O_R   0.287930 0.931000 0.479440 -0.585412
O6    O     O_R   0.712070 0.069000 0.520560 -0.584898
O7    O     O_R   0.345780 0.069050 0.520520 -0.591451
O8    O     O_R   0.654220 0.930950 0.479480 -0.590945
C47   C     C_3   0.757025 0.656019 0.524474 -0.426104
C48   C     C_3   0.879737 0.650538 0.489554 -0.830957
H25   H     H_    0.944143 0.600223 0.552900 0.246762
H26   H     H_    0.851834 0.622491 0.427529 0.257190
H27   H     H_    0.937257 0.727078 0.460958 0.235693
H28   H     H_    0.711142 0.718490 0.460375 0.208470
H29   H     H_    0.786679 0.676494 0.591544 0.198185
C49   C     C_3   0.243403 0.344705 0.473898 -0.424599
C50   C     C_3   0.120418 0.350327 0.508450 -0.831419
H30   H     H_    0.148025 0.378305 0.570539 0.255607
H31   H     H_    0.056266 0.400740 0.444944 0.247372
H32   H     H_    0.062715 0.273846 0.536849 0.235412
H33   H     H_    0.214054 0.324212 0.406816 0.197871
H34   H     H_    0.288987 0.282191 0.538176 0.208373

loop_
_geom_bond_atom_site_label_1
_geom_bond_atom_site_label_2
_ccdc_geom_bond_type
C25   C31   A    
C38   C40   S    
C26   C32   A    
C40   H12   S    
C34   C37   S    
C1    O3    A    
Cu2   O2    S    
C48   H27   S    
Cu1   O5    S    
C30   C49   S    
C36   H2    S    
C49   H33   S    
C32   H24   S    
C3    H16   S    
C4    H15   S    
C33   C39   S    
C34   C40   S    
C28   C29   A    
C35   C37   S    
C48   H26   S    
C29   C47   S    
C20   H3    S    
C15   C25   A    
C14   H14   S    
Cu2   O7    S    
C42   C46   A    
Cu1   O8    S    
C24   O8    A    
C12   H22   S    
C18   H5    S    
C19   H4    S    
C24   O6    A    
C47   C48   S    
C35   H1    S    
C33   H9    S    
C7    C43   A    
C9    C10   A    
C31   H23   S    
C47   H28   S    
C21   C27   A    
C18   N2    A    
C22   C28   A    
C27   C30   A    
C17   N1    A    
C44   C46   A    
C16   C26   A    
C47   H29   S    
C1    O1    A    
C19   N1    A    
C48   H25   S    
C46   H17   S    
C4    C6    A    
C50   H30   S    
C5    C7    A    
C6    C8    A    
C15   H7    S    
Cu2   O3    S    
C16   H8    S    
C43   H19   S    
C5    C9    A    
C2    O4    A    
C50   H31   S    
Cu1   Cu2   S    
C7    C13   A    
C39   H11   S    
C24   C37   S    
C20   N2    A    
C43   C45   A    
C1    C41   S    
C20   C22   A    
C44   H20   S    
C45   H18   S    
C2    O2    A    
C15   C17   A    
C21   C25   A    
C3    C41   A    
C8    C14   A    
C23   O7    A    
C19   C21   A    
Cu2   N1    S    
C36   C39   S    
C8    C44   A    
Cu1   N2    S    
C12   C14   A    
C3    C5    A    
C6    C10   A    
C11   H21   S    
C49   H34   S    
C23   C38   S    
C33   C38   S    
Cu2   O6    S    
C36   C38   S    
C35   C40   S    
Cu1   O1    S    
C29   C31   A    
C50   H32   S    
C30   C32   A    
C11   C13   A    
C49   C50   S    
C4    C42   A    
C2    C42   S    
C33   C35   S    
C34   C36   S    
C9    C12   A    
C10   C11   A    
C37   C39   S    
C13   H13   S    
C16   C18   A    
C22   C26   A    
C27   C28   A    
C34   H10   S    
C41   C45   A    
Cu1   O4    S    
C23   O5    A    
C17   H6    S    
