data_mof_unit_30611.cif
_audit_creation_date              2012-12-10T20:41:45-0500
_audit_creation_method            fapswitch 2.2
_symmetry_space_group_name_H-M    P1
_symmetry_Int_Tables_number       1
_space_group_crystal_system       triclinic
_cell_length_a                    14.928662
_cell_length_b                    15.47513
_cell_length_c                    9.934648
_cell_angle_alpha                 89.280737
_cell_angle_beta                  87.563651
_cell_angle_gamma                 89.872821
_cell_volume                      2292.87343699

loop_
_atom_site_label
_atom_site_type_symbol
_atom_type_description
_atom_site_fract_x
_atom_site_fract_y
_atom_site_fract_z
_atom_type_partial_charge
C1    C     C_R   0.377978 0.881785 0.502150 0.903823
C2    C     C_R   0.381265 0.121107 0.500995 0.921629
C3    C     C_R   0.877979 0.381784 0.502150 0.903835
C4    C     C_R   0.881265 0.621108 0.500995 0.921631
C5    C     C_3   0.233412 0.178027 0.736425 0.529194
C6    C     C_3   0.300180 0.745033 0.745679 0.510258
C7    C     C_3   0.733416 0.678033 0.736426 0.529184
C8    C     C_3   0.800157 0.245056 0.745692 0.510239
C9    C     C_R   0.423068 0.015293 0.076212 0.166494
C10   C     C_R   0.923069 0.515297 0.076212 0.166496
C11   C     C_R   0.578005 0.995709 0.067102 0.253407
C12   C     C_R   0.078005 0.495707 0.067102 0.253414
C13   C     C_R   0.577700 0.992444 0.923811 0.355490
C14   C     C_R   0.077700 0.492441 0.923811 0.355494
C15   C     C_R   0.423251 0.016151 0.934059 0.158775
C16   C     C_R   0.923253 0.516158 0.934059 0.158774
C17   C     C_3   0.341757 0.961797 0.938058 -0.321904
C18   C     C_3   0.841753 0.461811 0.938057 -0.321903
C19   C     C_3   0.340836 0.962144 0.089901 -0.464183
C20   C     C_3   0.840834 0.462152 0.089899 -0.464187
C21   C     C_R   0.622469 0.117230 0.497179 0.898384
C22   C     C_R   0.620988 0.881307 0.498651 0.913273
C23   C     C_R   0.122468 0.617231 0.497179 0.898374
C24   C     C_R   0.120987 0.381306 0.498651 0.913268
C25   C     C_R   0.283571 0.224028 0.622523 0.067205
C26   C     C_R   0.315144 0.747005 0.595457 0.021822
C27   C     C_R   0.783575 0.724032 0.622522 0.067207
C28   C     C_R   0.815135 0.247011 0.595474 0.021846
C29   C     C_R   0.322654 0.194029 0.501763 -0.109185
C30   C     C_R   0.311402 0.815359 0.503399 -0.047240
C31   C     C_R   0.822656 0.694031 0.501762 -0.109187
C32   C     C_R   0.811407 0.315353 0.503395 -0.047259
C33   C     C_R   0.306491 0.237673 0.380084 -0.172043
C34   C     C_R   0.255189 0.809613 0.394158 -0.152485
C35   C     C_R   0.806492 0.737675 0.380082 -0.172045
C36   C     C_R   0.755210 0.309594 0.394138 -0.152495
C37   C     C_R   0.741585 0.801612 0.377871 -0.145021
C38   C     C_R   0.696623 0.240699 0.386834 -0.143553
C39   C     C_R   0.241584 0.301610 0.377872 -0.145025
C40   C     C_R   0.196600 0.740719 0.386852 -0.143544
C41   C     C_R   0.693762 0.822028 0.497410 -0.094446
C42   C     C_R   0.694840 0.177167 0.488493 -0.043619
C43   C     C_R   0.193759 0.322026 0.497411 -0.094446
C44   C     C_R   0.194836 0.677172 0.488491 -0.043596
C45   C     C_R   0.719083 0.786747 0.619031 0.078624
C46   C     C_R   0.760836 0.175900 0.583713 0.015969
C47   C     C_R   0.219079 0.286743 0.619032 0.078625
C48   C     C_R   0.260846 0.675893 0.583689 0.015938
C49   C     C_3   0.661394 0.746600 0.728504 -0.416714
C50   C     C_3   0.752011 0.160629 0.731811 -0.381213
C51   C     C_3   0.161390 0.246595 0.728503 -0.416727
C52   C     C_3   0.252042 0.660602 0.731786 -0.381190
H1    H     H_    0.339975 0.219449 0.285749 0.202162
H2    H     H_    0.253558 0.860223 0.318192 0.163952
H3    H     H_    0.839976 0.719449 0.285748 0.202162
H4    H     H_    0.753589 0.360193 0.318157 0.163959
H5    H     H_    0.283406 0.998437 0.136501 0.231376
H6    H     H_    0.353236 0.897092 0.133926 0.230643
H7    H     H_    0.783408 0.498445 0.136507 0.231380
H8    H     H_    0.853235 0.397098 0.133915 0.230636
H9    H     H_    0.725815 0.830962 0.282447 0.220427
H10   H     H_    0.648721 0.240564 0.307872 0.182270
H11   H     H_    0.225815 0.330962 0.282449 0.220426
H12   H     H_    0.148683 0.740596 0.307908 0.182251
H13   H     H_    0.654335 0.788115 0.818693 0.258835
H14   H     H_    0.792853 0.104117 0.761848 0.258443
H15   H     H_    0.154331 0.288109 0.818693 0.258832
H16   H     H_    0.292896 0.604089 0.761793 0.258428
H17   H     H_    0.596793 0.722942 0.691190 0.229247
H18   H     H_    0.682326 0.160985 0.775493 0.253207
H19   H     H_    0.096789 0.222937 0.691190 0.229238
H20   H     H_    0.182362 0.660945 0.775491 0.253227
H21   H     H_    0.282963 0.994521 0.896575 0.292756
H22   H     H_    0.359097 0.898407 0.896139 0.261051
H23   H     H_    0.782961 0.494542 0.896581 0.292760
H24   H     H_    0.859086 0.398423 0.896129 0.261054
N1    N     N_R   0.499140 0.000000 0.142800 -0.162115
N2    N     N_R   0.999140 0.500000 0.142800 -0.162116
N3    N     N_R   0.499160 0.000000 0.857150 -0.160071
N4    N     N_R   0.999160 0.500000 0.857150 -0.160070
O1    O     O_R   0.408400 0.908380 0.614690 -0.587504
O2    O     O_R   0.408400 0.091620 0.614690 -0.581912
O3    O     O_R   0.908400 0.408380 0.614690 -0.587506
O4    O     O_R   0.908400 0.591620 0.614690 -0.581910
O5    O     O_R   0.408370 0.908370 0.385350 -0.634424
O6    O     O_R   0.408370 0.091630 0.385350 -0.630004
O7    O     O_R   0.908370 0.408370 0.385350 -0.634425
O8    O     O_R   0.908370 0.591630 0.385350 -0.630004
O9    O     O_R   0.591610 0.091610 0.614650 -0.597088
O10   O     O_R   0.591610 0.908390 0.614650 -0.568089
O11   O     O_R   0.091610 0.591610 0.614650 -0.597085
O12   O     O_R   0.091610 0.408390 0.614650 -0.568091
O13   O     O_R   0.591590 0.091600 0.385310 -0.598662
O14   O     O_R   0.591590 0.908400 0.385310 -0.598654
O15   O     O_R   0.091590 0.591600 0.385310 -0.598657
O16   O     O_R   0.091590 0.408400 0.385310 -0.598655
Zn1   Zn    Zn3+2 0.500010 0.000000 0.653130 1.049553
Zn2   Zn    Zn3+2 0.000010 0.500000 0.653130 1.049556
Zn3   Zn    Zn3+2 0.499980 0.000000 0.346870 1.011173
Zn4   Zn    Zn3+2 0.999980 0.500000 0.346870 1.011175
Br1   Br    Br    0.294636 0.184797 0.904304 -0.472145
Br2   Br    Br    0.409670 0.733195 0.843681 -0.479821
Br3   Br    Br    0.794640 0.684805 0.904305 -0.472146
Br4   Br    Br    0.909638 0.233212 0.843717 -0.479832
Cl1   Cl    Cl    0.194076 0.072762 0.695749 -0.556243
Cl2   Cl    Cl    0.221321 0.825145 0.804272 -0.565687
Cl3   Cl    Cl    0.694078 0.572768 0.695753 -0.556220
Cl4   Cl    Cl    0.721305 0.325183 0.804249 -0.565676
Br5   Br    Br    0.690472 0.997097 0.153489 -0.385589
Br6   Br    Br    0.190472 0.497094 0.153489 -0.385576
Cl5   Cl    Cl    0.679298 0.973672 0.833975 -0.569829
Cl6   Cl    Cl    0.179298 0.473670 0.833976 -0.569837

loop_
_geom_bond_atom_site_label_1
_geom_bond_atom_site_label_2
_ccdc_geom_bond_type
C13   N3    A    
C18   H23   S    
C11   Br5   S    
C33   H1    S    
C5    Cl1   S    
C12   Br6   S    
C10   N2    A    
O12   Zn2   S    
C21   O9    A    
C19   H5    S    
C14   Cl6   S    
C28   C46   A    
C33   C39   A    
C49   H13   S    
C2    C29   S    
C36   H4    S    
C32   C36   A    
C35   C37   A    
C38   C42   A    
C24   O16   A    
C22   C41   S    
C1    O1    A    
C29   C33   A    
C7    C27   S    
C25   C29   A    
C42   C46   A    
C11   N1    A    
C17   C19   S    
C37   C41   A    
C9    C19   S    
C15   N3    A    
C3    O7    A    
C10   C20   S    
O3    Zn2   S    
C12   N2    A    
N1    Zn3   S    
C14   N4    A    
C20   H8    S    
O13   Zn3   S    
O10   Zn1   S    
C18   C20   S    
C52   H16   S    
C26   C48   A    
C27   C45   A    
C49   H17   S    
C17   H21   S    
C22   O14   A    
C51   H19   S    
C24   O12   A    
C40   C44   A    
C19   H6    S    
C1    O5    A    
C5    Br1   S    
C30   C34   A    
C27   C31   A    
C28   C32   A    
C7    C49   S    
O15   Zn4   S    
C47   C51   S    
C35   H3    S    
C23   C44   S    
O9    Zn1   S    
C16   N4    A    
C52   H20   S    
C8    Br4   S    
C37   H9    S    
C4    O4    A    
C45   C49   S    
C22   O10   A    
C51   H15   S    
C20   H7    S    
O6    Zn3   S    
C50   H14   S    
O8    Zn4   S    
C5    C25   S    
C34   C40   A    
C12   C14   A    
C34   H2    S    
N2    Zn4   S    
C17   H22   S    
C8    C28   S    
O2    Zn1   S    
C7    Cl3   S    
C2    O2    A    
C8    C50   S    
O7    Zn4   S    
C15   C17   S    
C25   C47   A    
C18   H24   S    
N4    Zn2   S    
N3    Zn1   S    
C5    C51   S    
C39   C43   A    
C26   C30   A    
C4    O8    A    
C39   H11   S    
C46   C50   S    
C40   H12   S    
O4    Zn2   S    
C36   C38   A    
C9    N1    A    
C13   Cl5   S    
C10   C16   A    
C3    O3    A    
O5    Zn3   S    
C11   C13   A    
C6    C26   S    
C21   O13   A    
O14   Zn3   S    
O16   Zn4   S    
C31   C35   A    
C1    C30   S    
O1    Zn1   S    
C23   O15   A    
C2    O6    A    
C23   O11   A    
C6    Br2   S    
O11   Zn2   S    
C9    C15   A    
C3    C32   S    
C50   H18   S    
C4    C31   S    
C21   C42   S    
C48   C52   S    
C16   C18   S    
C24   C43   S    
C41   C45   A    
C8    Cl4   S    
C7    Br3   S    
C6    C52   S    
C43   C47   A    
C44   C48   A    
C6    Cl2   S    
C38   H10   S    
