data_mof_unit_64471.cif
_audit_creation_date              2013-03-05T15:41:48-0500
_audit_creation_method            fapswitch 2.2
_symmetry_space_group_name_H-M    P1
_symmetry_Int_Tables_number       1
_space_group_crystal_system       triclinic
_cell_length_a                    21.956603
_cell_length_b                    21.956402
_cell_length_c                    47.219751
_cell_angle_alpha                 89.99988
_cell_angle_beta                  89.999901
_cell_angle_gamma                 90.000234
_cell_volume                      22764.0754153

loop_
_atom_site_label
_atom_site_type_symbol
_atom_site_description
_atom_site_fract_x
_atom_site_fract_y
_atom_site_fract_z
_atom_type_partial_charge
O1    O     O_R   0.999970 0.911020 0.023770 -0.565442
O2    O     O_R   0.088980 0.999970 0.023770 -0.565460
O3    O     O_R   0.000030 0.088980 0.023770 -0.565442
O4    O     O_R   0.911020 0.000030 0.023770 -0.565461
O5    O     O_R   0.499970 0.411020 0.523770 -0.565445
O6    O     O_R   0.588980 0.499970 0.523770 -0.565446
O7    O     O_R   0.500030 0.588980 0.523770 -0.565444
O8    O     O_R   0.411020 0.500030 0.523770 -0.565447
O9    O     O_R   0.000000 0.911030 0.976240 -0.594927
O10   O     O_R   0.088970 0.000000 0.976240 -0.594925
O11   O     O_R   1.000000 0.088970 0.976240 -0.594927
O12   O     O_R   0.911030 0.000000 0.976240 -0.594925
O13   O     O_R   0.500000 0.411030 0.476240 -0.594923
O14   O     O_R   0.588970 0.500000 0.476240 -0.594925
O15   O     O_R   0.500000 0.588970 0.476240 -0.594924
O16   O     O_R   0.411030 0.500000 0.476240 -0.594924
C1    C     C_R   0.999878 0.882527 0.000175 0.701987
C2    C     C_R   0.117471 0.999881 0.000174 0.701983
C3    C     C_R   0.000122 0.117473 0.000175 0.701987
C4    C     C_R   0.882529 0.000119 0.000174 0.701984
C5    C     C_R   0.499878 0.382527 0.500175 0.702029
C6    C     C_R   0.617473 0.499878 0.500175 0.702021
C7    C     C_R   0.500122 0.617473 0.500175 0.702030
C8    C     C_R   0.382527 0.500122 0.500175 0.702020
Cu1   Cu    Cu3+1 0.000000 1.000000 0.028140 0.990879
Cu2   Cu    Cu3+1 0.500000 0.500000 0.528140 0.990877
Cu3   Cu    Cu3+1 1.000000 1.000000 0.971860 0.948433
Cu4   Cu    Cu3+1 0.500000 0.500000 0.471860 0.948454
C9    C     C_2   0.717550 0.046175 0.989584 -0.117980
C10   C     C_2   0.953840 0.717547 0.989551 -0.117923
C11   C     C_2   0.282450 0.953826 0.989583 -0.117979
C12   C     C_2   0.046159 0.282453 0.989551 -0.117923
C13   C     C_2   0.217548 0.546159 0.489551 -0.117938
C14   C     C_2   0.453842 0.217547 0.489549 -0.117882
C15   C     C_2   0.782452 0.453841 0.489551 -0.117940
C16   C     C_2   0.546158 0.782453 0.489549 -0.117882
C17   C     C_2   0.682598 0.997084 0.993770 -0.233062
C18   C     C_2   0.002921 0.682598 0.993769 -0.233079
C19   C     C_2   0.317402 0.002916 0.993770 -0.233062
C20   C     C_2   0.997079 0.317402 0.993769 -0.233080
C21   C     C_2   0.182598 0.497079 0.493769 -0.233077
C22   C     C_2   0.502921 0.182598 0.493769 -0.233097
C23   C     C_2   0.817402 0.502921 0.493769 -0.233078
C24   C     C_2   0.497078 0.817402 0.493769 -0.233097
H1    H     H_    0.697462 0.091212 0.987835 0.156829
H2    H     H_    0.908809 0.697457 0.987776 0.156814
H3    H     H_    0.302538 0.908788 0.987834 0.156828
H4    H     H_    0.091190 0.302543 0.987775 0.156814
H5    H     H_    0.197459 0.591190 0.487773 0.156807
H6    H     H_    0.408812 0.197457 0.487771 0.156831
H7    H     H_    0.802541 0.408810 0.487773 0.156807
H8    H     H_    0.591188 0.802543 0.487771 0.156831
H9    H     H_    0.702318 0.951830 0.992574 0.176298
H10   H     H_    0.048175 0.702323 0.992597 0.176218
H11   H     H_    0.297682 0.048170 0.992575 0.176296
H12   H     H_    0.951825 0.297677 0.992597 0.176219
H13   H     H_    0.202323 0.451824 0.492599 0.176223
H14   H     H_    0.548176 0.202323 0.492598 0.176204
H15   H     H_    0.797677 0.548176 0.492599 0.176223
H16   H     H_    0.451824 0.797677 0.492598 0.176204
C25   C     C_2   0.784096 0.039758 0.986448 -0.248014
C26   C     C_2   0.960269 0.784094 0.986418 -0.248093
C27   C     C_2   0.215904 0.960243 0.986447 -0.248016
C28   C     C_2   0.039731 0.215906 0.986417 -0.248094
C29   C     C_2   0.284095 0.539730 0.486416 -0.248073
C30   C     C_2   0.460272 0.284094 0.486415 -0.248077
C31   C     C_2   0.715905 0.460270 0.486416 -0.248070
C32   C     C_2   0.539728 0.715906 0.486415 -0.248076
C33   C     C_2   0.816123 0.998956 0.001642 0.310929
C34   C     C_2   0.001015 0.816119 0.001645 0.310823
C35   C     C_2   0.183877 0.001043 0.001642 0.310928
C36   C     C_2   0.998985 0.183881 0.001645 0.310824
C37   C     C_2   0.316119 0.498986 0.501645 0.310814
C38   C     C_2   0.501013 0.316119 0.501645 0.310794
C39   C     C_2   0.683881 0.501014 0.501645 0.310814
C40   C     C_2   0.498986 0.683881 0.501645 0.310793
H17   H     H_    0.807559 0.071781 0.972694 0.118053
H18   H     H_    0.928305 0.807555 0.972635 0.118152
H19   H     H_    0.192442 0.928221 0.972692 0.118056
H20   H     H_    0.071695 0.192445 0.972635 0.118152
H21   H     H_    0.307555 0.571692 0.472633 0.118163
H22   H     H_    0.428312 0.307555 0.472630 0.118193
H23   H     H_    0.692445 0.428308 0.472633 0.118162
H24   H     H_    0.571688 0.692445 0.472630 0.118193
O17   O     O_R   0.500030 0.051590 0.958940 -0.594881
O18   O     O_R   0.948410 0.500030 0.958940 -0.594884
O19   O     O_R   0.499970 0.948410 0.958940 -0.594881
O20   O     O_R   0.051590 0.499970 0.958940 -0.594884
O21   O     O_R   0.000030 0.551590 0.458940 -0.594885
O22   O     O_R   0.448410 0.000030 0.458940 -0.594886
O23   O     O_R   0.999970 0.448410 0.458940 -0.594885
O24   O     O_R   0.551590 0.999970 0.458940 -0.594886
C41   C     C_R   0.500000 1.000000 0.945415 0.786110
C42   C     C_R   0.000000 0.500000 0.945416 0.786102
C43   C     C_R   0.000000 0.500000 0.445415 0.786108
C44   C     C_R   0.500000 1.000000 0.445416 0.786099
O25   O     O_R   0.589030 0.051570 0.000000 -0.587366
O26   O     O_R   0.948430 0.589030 0.000000 -0.587346
O27   O     O_R   0.410970 0.948430 0.000000 -0.587365
O28   O     O_R   0.051570 0.410970 0.000000 -0.587346
O29   O     O_R   0.089030 0.551570 0.500000 -0.587350
O30   O     O_R   0.448430 0.089030 0.500000 -0.587317
O31   O     O_R   0.910970 0.448430 0.500000 -0.587350
O32   O     O_R   0.551570 0.910970 0.500000 -0.587318
O33   O     O_R   0.589020 0.948510 0.000000 -0.589535
O34   O     O_R   0.051490 0.589020 0.000000 -0.589537
O35   O     O_R   0.410980 0.051490 0.000000 -0.589535
O36   O     O_R   0.948510 0.410980 0.000000 -0.589537
O37   O     O_R   0.089020 0.448510 0.500000 -0.589535
O38   O     O_R   0.551490 0.089020 0.500000 -0.589569
O39   O     O_R   0.910980 0.551490 0.500000 -0.589535
O40   O     O_R   0.448510 0.910980 0.500000 -0.589570
C45   C     C_R   0.617221 0.999822 0.998315 0.843978
C46   C     C_R   0.000178 0.617221 0.998313 0.843922
C47   C     C_R   0.382779 0.000177 0.998315 0.843978
C48   C     C_R   0.999822 0.382779 0.998313 0.843923
C49   C     C_R   0.117221 0.499822 0.498313 0.843927
C50   C     C_R   0.500178 0.117221 0.498313 0.843927
C51   C     C_R   0.882779 0.500178 0.498313 0.843928
C52   C     C_R   0.499822 0.882779 0.498313 0.843929
Cu5   Cu    Cu3+1 0.500010 0.061070 0.000000 0.953857
Cu6   Cu    Cu3+1 0.938930 0.500010 0.000000 0.953854
Cu7   Cu    Cu3+1 0.499990 0.938930 0.000000 0.953858
Cu8   Cu    Cu3+1 0.061070 0.499990 0.000000 0.953854
Cu9   Cu    Cu3+1 0.000010 0.561070 0.500000 0.953850
Cu10  Cu    Cu3+1 0.438930 0.000010 0.500000 0.953845
Cu11  Cu    Cu3+1 0.999990 0.438930 0.500000 0.953850
Cu12  Cu    Cu3+1 0.561070 0.999990 0.500000 0.953845
O41   O     O_R   0.499980 0.051580 0.041060 -0.570114
O42   O     O_R   0.948420 0.499980 0.041060 -0.570013
O43   O     O_R   0.500020 0.948420 0.041060 -0.570114
O44   O     O_R   0.051580 0.500020 0.041060 -0.570013
O45   O     O_R   0.999980 0.551580 0.541060 -0.570022
O46   O     O_R   0.448420 0.999980 0.541060 -0.570014
O47   O     O_R   0.000020 0.448420 0.541060 -0.570022
O48   O     O_R   0.551580 0.000020 0.541060 -0.570014
C53   C     C_R   0.500000 1.000000 0.054502 0.927145
C54   C     C_R   1.000000 0.500000 0.054503 0.926977
C55   C     C_R   0.000000 0.500000 0.554503 0.926991
C56   C     C_R   0.500000 0.000000 0.554503 0.926980
C57   C     C_R   0.949457 0.520136 0.190209 0.548059
C58   C     C_R   0.480433 0.949234 0.190217 0.548031
C59   C     C_R   0.050542 0.479864 0.190209 0.548059
C60   C     C_R   0.519568 0.050765 0.190217 0.548030
C61   C     C_R   0.449452 0.020123 0.690209 0.548058
C62   C     C_R   0.979914 0.449437 0.690210 0.548054
C63   C     C_R   0.550547 0.979878 0.690209 0.548057
C64   C     C_R   0.020087 0.550562 0.690210 0.548055
N1    N     N_R   0.999999 0.500000 0.175938 -0.441980
N2    N     N_R   0.500000 0.999999 0.175943 -0.441835
N3    N     N_R   0.499999 0.000000 0.675938 -0.441974
N4    N     N_R   0.000000 0.500000 0.675939 -0.441965
C65   C     C_R   0.051606 0.479539 0.219982 -0.021940
C66   C     C_R   0.519863 0.051838 0.219990 -0.021849
C67   C     C_R   0.948393 0.520461 0.219982 -0.021940
C68   C     C_R   0.480139 0.948160 0.219990 -0.021849
C69   C     C_R   0.551612 0.979554 0.719982 -0.021934
C70   C     C_R   0.020410 0.551627 0.719983 -0.021928
C71   C     C_R   0.448388 0.020447 0.719982 -0.021934
C72   C     C_R   0.979591 0.448372 0.719983 -0.021928
C73   C     C_R   1.000000 0.500000 0.234925 -0.017781
C74   C     C_R   0.500001 0.999999 0.234932 -0.017806
C75   C     C_R   0.500000 0.000000 0.734925 -0.017781
C76   C     C_R   0.000000 0.500000 0.734926 -0.017783
C77   C     C_R   0.102826 0.459153 0.235114 -0.162921
C78   C     C_R   0.539640 0.103297 0.235121 -0.162908
C79   C     C_R   0.897174 0.540848 0.235114 -0.162921
C80   C     C_R   0.460362 0.896702 0.235122 -0.162908
C81   C     C_R   0.602837 0.959182 0.735114 -0.162925
C82   C     C_R   0.040743 0.602868 0.735114 -0.162924
C83   C     C_R   0.397162 0.040818 0.735114 -0.162925
C84   C     C_R   0.959258 0.397131 0.735115 -0.162924
C85   C     C_R   0.602824 0.959147 0.764694 -0.161634
C86   C     C_R   0.040778 0.602855 0.764694 -0.161634
C87   C     C_R   0.397176 0.040854 0.764694 -0.161634
C88   C     C_R   0.959223 0.397144 0.764694 -0.161634
C89   C     C_R   0.102812 0.459117 0.264693 -0.161630
C90   C     C_R   0.539666 0.103288 0.264701 -0.161650
C91   C     C_R   0.897187 0.540883 0.264694 -0.161631
C92   C     C_R   0.460335 0.896711 0.264701 -0.161650
C93   C     C_R   0.551578 0.979467 0.779825 -0.015417
C94   C     C_R   0.020496 0.551593 0.779826 -0.015418
C95   C     C_R   0.448422 0.020534 0.779825 -0.015417
C96   C     C_R   0.979505 0.448406 0.779826 -0.015418
C97   C     C_R   0.051572 0.479451 0.279825 -0.015421
C98   C     C_R   0.519939 0.051811 0.279833 -0.015438
C99   C     C_R   0.948428 0.520549 0.279825 -0.015421
C100  C     C_R   0.480062 0.948187 0.279833 -0.015438
C101  C     C_R   0.500000 0.000000 0.764882 -0.015038
C102  C     C_R   0.000001 0.500000 0.764883 -0.015039
C103  C     C_R   1.000000 0.500000 0.264882 -0.015038
C104  C     C_R   0.500001 0.999999 0.264890 -0.015037
C105  C     C_R   0.550575 0.979953 0.809599 0.531812
C106  C     C_R   0.020011 0.550590 0.809600 0.531812
C107  C     C_R   0.449424 0.020048 0.809599 0.531812
C108  C     C_R   0.979990 0.449409 0.809600 0.531813
C109  C     C_R   0.050569 0.479938 0.309599 0.531810
C110  C     C_R   0.519466 0.050802 0.309606 0.531828
C111  C     C_R   0.949430 0.520063 0.309599 0.531810
C112  C     C_R   0.480535 0.949197 0.309606 0.531827
N5    N     N_R   0.500000 0.000000 0.823867 -0.467710
N6    N     N_R   0.000001 0.500000 0.823867 -0.467713
N7    N     N_R   1.000000 0.500000 0.323867 -0.467710
N8    N     N_R   0.500001 1.000000 0.323872 -0.467763
O49   O     O_2   0.900577 0.540276 0.175639 -0.547954
O50   O     O_2   0.460814 0.900135 0.175650 -0.548272
O51   O     O_2   0.099422 0.459724 0.175638 -0.547954
O52   O     O_2   0.539187 0.099864 0.175650 -0.548272
O53   O     O_2   0.400567 0.040250 0.675639 -0.547968
O54   O     O_2   0.959818 0.400538 0.675640 -0.547988
O55   O     O_2   0.599432 0.959750 0.675639 -0.547968
O56   O     O_2   0.040182 0.599461 0.675639 -0.547988
H25   H     H_    0.143106 0.443159 0.224161 0.187682
H26   H     H_    0.555158 0.143764 0.224169 0.187674
H27   H     H_    0.856893 0.556841 0.224161 0.187682
H28   H     H_    0.444843 0.856235 0.224169 0.187674
H29   H     H_    0.643122 0.943200 0.724161 0.187676
H30   H     H_    0.056696 0.643166 0.724162 0.187675
H31   H     H_    0.356877 0.056801 0.724161 0.187676
H32   H     H_    0.943305 0.356833 0.724162 0.187676
H33   H     H_    0.643098 0.943139 0.775646 0.188314
H34   H     H_    0.056756 0.643142 0.775647 0.188313
H35   H     H_    0.356901 0.056862 0.775646 0.188314
H36   H     H_    0.943245 0.356857 0.775647 0.188313
H37   H     H_    0.143082 0.443097 0.275646 0.188320
H38   H     H_    0.555204 0.143747 0.275654 0.188311
H39   H     H_    0.856917 0.556903 0.275646 0.188320
H40   H     H_    0.444797 0.856252 0.275654 0.188311
O57   O     O_2   0.599932 0.961033 0.824174 -0.539613
O58   O     O_2   0.038895 0.599961 0.824174 -0.539609
O59   O     O_2   0.400067 0.038968 0.824174 -0.539613
O60   O     O_2   0.961106 0.400038 0.824175 -0.539609
O61   O     O_2   0.099921 0.461004 0.324174 -0.539608
O62   O     O_2   0.537825 0.100370 0.324183 -0.539537
O63   O     O_2   0.900079 0.538997 0.324174 -0.539608
O64   O     O_2   0.462176 0.899629 0.324183 -0.539536
C113  C     C_R   0.498377 0.055114 0.869330 -0.105505
C114  C     C_R   0.944888 0.498349 0.869330 -0.105511
C115  C     C_R   0.501623 0.944887 0.869330 -0.105505
C116  C     C_R   0.055113 0.501650 0.869330 -0.105510
C117  C     C_R   0.998389 0.555114 0.369330 -0.105506
C118  C     C_R   0.444901 0.997947 0.369332 -0.105570
C119  C     C_R   0.001610 0.444886 0.369330 -0.105506
C120  C     C_R   0.555100 0.002052 0.369332 -0.105570
H41   H     H_    0.497302 0.097968 0.857992 0.144107
H42   H     H_    0.902035 0.497253 0.857992 0.144097
H43   H     H_    0.502697 0.902033 0.857992 0.144107
H44   H     H_    0.097965 0.502747 0.857992 0.144097
H45   H     H_    0.997324 0.597968 0.357992 0.144107
H46   H     H_    0.402059 0.996531 0.357992 0.143953
H47   H     H_    0.002676 0.402032 0.357992 0.144107
H48   H     H_    0.597941 0.003469 0.357992 0.143953
C121  C     C_R   0.498419 0.055173 0.898925 -0.215475
C122  C     C_R   0.944828 0.498392 0.898925 -0.215474
C123  C     C_R   0.501580 0.944827 0.898925 -0.215475
C124  C     C_R   0.055172 0.501607 0.898925 -0.215474
C125  C     C_R   0.998431 0.555174 0.398925 -0.215481
C126  C     C_R   0.444840 0.997999 0.398927 -0.215429
C127  C     C_R   0.001569 0.444827 0.398925 -0.215480
C128  C     C_R   0.555160 0.002001 0.398927 -0.215429
H49   H     H_    0.497190 0.098430 0.909922 0.162046
H50   H     H_    0.901573 0.497141 0.909922 0.162044
H51   H     H_    0.502810 0.901571 0.909922 0.162046
H52   H     H_    0.098428 0.502859 0.909922 0.162045
H53   H     H_    0.997211 0.598430 0.409921 0.162044
H54   H     H_    0.401596 0.996429 0.409924 0.162018
H55   H     H_    0.002788 0.401570 0.409921 0.162044
H56   H     H_    0.598405 0.003571 0.409924 0.162018
C129  C     C_R   0.500000 0.000000 0.914062 -0.034971
C130  C     C_R   0.000000 0.500000 0.914062 -0.034966
C131  C     C_R   1.000000 0.500000 0.414062 -0.034968
C132  C     C_R   0.500000 1.000000 0.414063 -0.034936
C133  C     C_R   0.500000 0.000000 0.854364 0.353828
C134  C     C_R   0.000000 0.500000 0.854365 0.353844
C135  C     C_R   1.000000 0.500000 0.354364 0.353825
C136  C     C_R   0.500000 1.000000 0.354368 0.354055
C137  C     C_R   0.039624 0.538257 0.130519 -0.204595
C138  C     C_R   0.461632 0.039515 0.130516 -0.204421
C139  C     C_R   0.960376 0.461743 0.130520 -0.204595
C140  C     C_R   0.538368 0.960484 0.130516 -0.204420
C141  C     C_R   0.539622 0.038258 0.630519 -0.204591
C142  C     C_R   0.961736 0.539616 0.630519 -0.204580
C143  C     C_R   0.460377 0.961742 0.630519 -0.204592
C144  C     C_R   0.038265 0.460383 0.630519 -0.204580
H57   H     H_    0.069030 0.569012 0.142110 0.160778
H58   H     H_    0.430789 0.068837 0.142103 0.161160
H59   H     H_    0.930969 0.430988 0.142110 0.160778
H60   H     H_    0.569212 0.931162 0.142102 0.161160
H61   H     H_    0.569028 0.069015 0.642110 0.160790
H62   H     H_    0.930975 0.569017 0.642110 0.160813
H63   H     H_    0.430971 0.930986 0.642110 0.160790
H64   H     H_    0.069025 0.430982 0.642110 0.160814
C145  C     C_R   0.041062 0.537500 0.100778 0.338110
C146  C     C_R   0.462404 0.040971 0.100775 0.337890
C147  C     C_R   0.958938 0.462500 0.100778 0.338110
C148  C     C_R   0.537596 0.959028 0.100775 0.337891
C149  C     C_R   0.541061 0.037501 0.600778 0.338102
C150  C     C_R   0.962494 0.541056 0.600778 0.338091
C151  C     C_R   0.458939 0.962499 0.600778 0.338103
C152  C     C_R   0.037506 0.458944 0.600778 0.338092
C153  C     C_R   1.000000 0.500000 0.085780 -0.219363
C154  C     C_R   0.500000 1.000000 0.085778 -0.219391
C155  C     C_R   0.500000 1.000000 0.585780 -0.219365
C156  C     C_R   0.000000 0.500000 0.585780 -0.219370
C157  C     C_R   0.999999 0.500000 0.145435 0.250945
C158  C     C_R   0.500000 1.000000 0.145436 0.250437
C159  C     C_R   0.500000 0.000000 0.645435 0.250931
C160  C     C_R   0.000000 0.500000 0.645436 0.250899
O65   O     O_3   0.077841 0.577967 0.086184 -0.563324
C161  C     C_3   0.139364 0.560539 0.089388 0.114513
H65   H     H_    0.146182 0.511753 0.083608 0.150636
H66   H     H_    0.155080 0.568149 0.111508 0.145403
C162  C     C_3   0.178560 0.599133 0.069816 -0.777109
H67   H     H_    0.174281 0.647979 0.075586 0.248900
H68   H     H_    0.227027 0.585337 0.071805 0.196005
H69   H     H_    0.163838 0.592827 0.047499 0.254356
O66   O     O_3   0.421876 0.077681 0.086181 -0.563357
C163  C     C_3   0.439213 0.139232 0.089383 0.114582
H70   H     H_    0.487979 0.146126 0.083588 0.150657
H71   H     H_    0.431613 0.154930 0.111507 0.145606
C164  C     C_3   0.400531 0.178375 0.069827 -0.777155
H72   H     H_    0.351703 0.174030 0.075617 0.248933
H73   H     H_    0.414266 0.226861 0.071810 0.196028
H74   H     H_    0.406816 0.163660 0.047507 0.254387
O67   O     O_3   0.922159 0.422033 0.086184 -0.563325
C165  C     C_3   0.860635 0.439461 0.089388 0.114512
H75   H     H_    0.853817 0.488246 0.083608 0.150636
H76   H     H_    0.844919 0.431851 0.111508 0.145403
C166  C     C_3   0.821440 0.400866 0.069817 -0.777109
H77   H     H_    0.825720 0.352021 0.075586 0.248900
H78   H     H_    0.772973 0.414662 0.071805 0.196005
H79   H     H_    0.836162 0.407173 0.047499 0.254356
O68   O     O_3   0.578124 0.922318 0.086181 -0.563357
C167  C     C_3   0.560788 0.860767 0.089383 0.114581
H80   H     H_    0.512022 0.853873 0.083588 0.150657
H81   H     H_    0.568388 0.845069 0.111507 0.145605
C168  C     C_3   0.599469 0.821625 0.069826 -0.777154
H82   H     H_    0.648297 0.825970 0.075617 0.248933
H83   H     H_    0.585735 0.773139 0.071810 0.196028
H84   H     H_    0.593184 0.836339 0.047507 0.254388
O69   O     O_3   0.577840 0.077968 0.586184 -0.563325
C169  C     C_3   0.639363 0.060540 0.589388 0.114520
H85   H     H_    0.646181 0.011754 0.583607 0.150635
H86   H     H_    0.655079 0.068147 0.611508 0.145408
C170  C     C_3   0.678559 0.099135 0.569817 -0.777127
H87   H     H_    0.674281 0.147980 0.575588 0.248904
H88   H     H_    0.727026 0.085338 0.571805 0.196002
H89   H     H_    0.663837 0.092831 0.547500 0.254352
O70   O     O_3   0.922024 0.577831 0.586184 -0.563329
C171  C     C_3   0.939448 0.639357 0.589388 0.114512
H90   H     H_    0.988231 0.646179 0.583605 0.150637
H91   H     H_    0.931841 0.655071 0.611509 0.145423
C172  C     C_3   0.900847 0.678550 0.569818 -0.777117
H92   H     H_    0.852004 0.674267 0.575590 0.248906
H93   H     H_    0.914641 0.727018 0.571806 0.196004
H94   H     H_    0.907149 0.663827 0.547500 0.254357
O71   O     O_3   0.422160 0.922032 0.586184 -0.563325
C173  C     C_3   0.360636 0.939460 0.589388 0.114517
H95   H     H_    0.353818 0.988245 0.583607 0.150635
H96   H     H_    0.344921 0.931852 0.611509 0.145408
C174  C     C_3   0.321440 0.900864 0.569817 -0.777126
H97   H     H_    0.325720 0.852019 0.575588 0.248904
H98   H     H_    0.272974 0.914661 0.571806 0.196002
H99   H     H_    0.336163 0.907168 0.547500 0.254353
O72   O     O_3   0.077976 0.422168 0.586184 -0.563329
C175  C     C_3   0.060552 0.360643 0.589388 0.114514
H100  H     H_    0.011768 0.353821 0.583605 0.150637
H101  H     H_    0.068158 0.344928 0.611509 0.145423
C176  C     C_3   0.099152 0.321450 0.569818 -0.777121
H102  H     H_    0.147996 0.325732 0.575590 0.248906
H103  H     H_    0.085358 0.272981 0.571806 0.196005
H104  H     H_    0.092850 0.336172 0.547500 0.254358
O73   O     O_3   0.787964 0.967295 0.023594 -0.554283
C177  C     C_3   0.805837 0.905402 0.023229 0.054948
H105  H     H_    0.852388 0.900048 0.032154 0.171865
H106  H     H_    0.804653 0.886104 0.001375 0.111732
C178  C     C_3   0.762041 0.868766 0.041470 -0.754626
H107  H     H_    0.715081 0.872422 0.032895 0.246352
H108  H     H_    0.775812 0.820101 0.041567 0.197959
H109  H     H_    0.762568 0.886185 0.063552 0.264701
O74   O     O_3   0.032573 0.787956 0.023628 -0.554231
C179  C     C_3   0.094487 0.805760 0.023300 0.054808
H110  H     H_    0.099864 0.852325 0.032208 0.171857
H111  H     H_    0.113855 0.804510 0.001460 0.111720
C180  C     C_3   0.131012 0.761961 0.041587 -0.754376
H112  H     H_    0.127325 0.714984 0.033033 0.246451
H113  H     H_    0.179692 0.775674 0.041711 0.197866
H114  H     H_    0.113523 0.762558 0.063657 0.264729
O75   O     O_3   0.212036 0.032702 0.023594 -0.554283
C181  C     C_3   0.194164 0.094596 0.023231 0.054946
H115  H     H_    0.147613 0.099949 0.032155 0.171864
H116  H     H_    0.195350 0.113895 0.001376 0.111731
C182  C     C_3   0.237960 0.131229 0.041473 -0.754624
H117  H     H_    0.284921 0.127572 0.032897 0.246354
H118  H     H_    0.224190 0.179894 0.041570 0.197958
H119  H     H_    0.237431 0.113808 0.063554 0.264702
O76   O     O_3   0.967426 0.212043 0.023628 -0.554231
C183  C     C_3   0.905512 0.194239 0.023300 0.054809
H120  H     H_    0.900135 0.147675 0.032207 0.171857
H121  H     H_    0.886145 0.195490 0.001459 0.111720
C184  C     C_3   0.868987 0.238038 0.041587 -0.754376
H122  H     H_    0.872674 0.285015 0.033032 0.246451
H123  H     H_    0.820307 0.224325 0.041710 0.197866
H124  H     H_    0.886476 0.237441 0.063657 0.264729
O77   O     O_3   0.287956 0.467429 0.523629 -0.554241
C185  C     C_3   0.305759 0.405514 0.523302 0.054818
H125  H     H_    0.352323 0.400138 0.532210 0.171880
H126  H     H_    0.304509 0.386145 0.501462 0.111735
C186  C     C_3   0.261959 0.368991 0.541590 -0.754353
H127  H     H_    0.214983 0.372677 0.533034 0.246442
H128  H     H_    0.275671 0.320310 0.541714 0.197887
H129  H     H_    0.262555 0.386482 0.563659 0.264730
O78   O     O_3   0.532567 0.287956 0.523630 -0.554238
C187  C     C_3   0.594481 0.305757 0.523304 0.054817
H130  H     H_    0.599858 0.352321 0.532212 0.171882
H131  H     H_    0.613853 0.304505 0.501465 0.111717
C188  C     C_3   0.631000 0.261956 0.541594 -0.754357
H132  H     H_    0.627313 0.214980 0.533039 0.246444
H133  H     H_    0.679681 0.275667 0.541719 0.197880
H134  H     H_    0.613507 0.262555 0.563662 0.264735
O79   O     O_3   0.712043 0.532571 0.523628 -0.554242
C189  C     C_3   0.694240 0.594486 0.523302 0.054820
H135  H     H_    0.647677 0.599862 0.532210 0.171880
H136  H     H_    0.695491 0.613855 0.501462 0.111735
C190  C     C_3   0.738041 0.631009 0.541589 -0.754355
H137  H     H_    0.785016 0.627323 0.533034 0.246442
H138  H     H_    0.724329 0.679690 0.541713 0.197888
H139  H     H_    0.737444 0.613518 0.563658 0.264730
O80   O     O_3   0.467433 0.712044 0.523629 -0.554237
C191  C     C_3   0.405518 0.694242 0.523304 0.054816
H140  H     H_    0.400141 0.647678 0.532212 0.171881
H141  H     H_    0.386146 0.695495 0.501465 0.111717
C192  C     C_3   0.368999 0.738043 0.541593 -0.754355
H142  H     H_    0.372686 0.785019 0.533039 0.246444
H143  H     H_    0.320318 0.724332 0.541718 0.197880
H144  H     H_    0.386491 0.737444 0.563662 0.264734

loop_
_geom_bond_atom_site_label_1
_geom_bond_atom_site_label_2
_geom_bond_distance
_ccdc_geom_bond_type
O1    Cu1   1.964548 S    
O71   C173  1.412130 S    
O8    Cu2   1.964566 S    
C190  H137  1.110668 S    
C106  O58   1.349316 S    
C79   C91   1.396746 A    
C86   H34   1.083058 S    
C73   C103  1.414581 A    
C28   C36   1.346041 D    
C22   H14   1.085326 S    
C74   C104  1.414581 A    
C168  H82   1.110508 S    
O21   Cu9   1.949989 S    
O68   C167  1.412135 S    
O47   C55   1.298268 A    
O78   C187  1.414588 S    
O23   Cu11  1.949988 S    
C114  C122  1.397469 A    
C34   O74   1.392837 S    
C64   O56   1.349358 S    
C18   C46   1.452650 S    
O26   C46   1.296323 A    
C105  N5    1.371413 A    
C10   C18   1.337828 D    
C173  C174  1.520794 S    
C178  H109  1.110688 S    
C187  C188  1.521068 S    
C69   C81   1.405574 A    
O37   Cu11  1.966080 S    
C67   C79   1.405572 A    
C14   C22   1.337826 D    
O39   Cu9   1.966080 S    
O3    C3    1.277785 A    
C165  H75   1.115476 S    
C94   C106  1.406129 A    
O48   C56   1.298277 A    
C146  O66   1.384355 S    
C152  O72   1.384360 S    
C89   H37   1.083050 S    
N1    C157  1.440344 S    
C62   O54   1.349361 S    
C187  H131  1.115865 S    
C118  C126  1.397460 A    
O38   C50   1.288040 A    
C95   C101  1.408425 A    
C172  H93   1.110421 S    
O20   C42   1.300359 A    
C174  H99   1.110934 S    
C161  H66   1.112644 S    
C140  C158  1.399576 A    
O12   Cu3   1.964397 S    
C125  H53   1.082767 S    
C60   N2    1.371604 A    
O40   C52   1.288039 A    
C169  H85   1.115476 S    
C181  H116  1.115878 S    
C80   C92   1.396737 A    
O14   C6    1.291896 A    
C9    H1    1.085904 S    
O28   Cu8   1.965659 S    
C111  O63   1.349313 S    
C30   H22   1.086953 S    
O32   Cu12  1.965659 S    
O11   Cu3   1.964377 S    
C192  H144  1.110684 S    
O12   C4    1.291862 A    
C165  C166  1.520795 S    
C72   C84   1.405574 A    
O13   C5    1.291896 A    
C53   C154  1.476840 S    
O65   C161  1.412128 S    
C170  H89   1.110939 S    
C27   C35   1.346030 D    
O45   C55   1.298268 A    
C19   C47   1.452646 S    
C124  H52   1.082771 S    
O36   C48   1.288042 A    
C110  N8    1.371374 A    
O74   C179  1.414589 S    
C190  H139  1.110684 S    
C185  H126  1.115863 S    
C16   C24   1.337826 D    
O42   C54   1.298277 A    
C168  H84   1.110935 S    
C87   C95   1.405570 A    
C82   C86   1.396742 A    
C121  H49   1.082770 S    
C2    C35   1.459916 S    
C88   C96   1.405569 A    
C163  C164  1.520779 S    
C169  C170  1.520794 S    
C20   C48   1.452650 S    
C16   C32   1.475378 S    
C107  N5    1.371412 A    
C149  O69   1.384365 S    
C182  H117  1.110661 S    
C54   C153  1.476911 S    
O29   C49   1.296318 A    
O72   C175  1.412128 S    
C167  C168  1.520779 S    
C58   N2    1.371603 A    
O10   C2    1.291861 A    
C139  C147  1.404830 A    
C58   O50   1.349376 S    
C60   C66   1.406081 A    
C171  H90   1.115475 S    
C191  H141  1.115863 S    
Cu5   Cu7   2.681753 S    
C21   H13   1.085324 S    
C90   C98   1.405554 A    
C143  C151  1.404826 A    
C59   N1    1.371526 A    
O5    C5    1.277784 A    
C144  H64   1.082789 S    
C164  H72   1.110505 S    
O34   Cu8   1.966064 S    
O67   C165  1.412128 S    
Cu9   Cu11  2.681753 S    
C87   H35   1.083051 S    
C94   C102  1.408421 A    
C97   C109  1.406129 A    
C186  H127  1.110667 S    
O77   C185  1.414588 S    
O44   C54   1.298277 A    
O38   Cu12  1.966064 S    
C180  H113  1.110469 S    
O6    C6    1.277788 A    
O10   Cu3   1.964395 S    
C31   H23   1.086959 S    
O70   C171  1.412129 S    
C77   C89   1.396751 A    
C120  C128  1.397465 A    
C79   H27   1.083055 S    
C7    C40   1.459959 S    
O20   Cu8   1.949989 S    
O32   C52   1.296323 A    
C86   C94   1.405571 A    
C141  C159  1.399483 A    
O4    Cu1   1.964566 S    
O15   Cu4   1.964377 S    
O80   C191  1.414589 S    
C148  C154  1.411449 A    
O33   Cu7   1.966080 S    
O7    Cu2   1.964545 S    
O33   C45   1.288040 A    
C98   C110  1.406115 A    
C61   C71   1.406091 A    
C162  H68   1.110420 S    
C62   C72   1.406086 A    
C100  C112  1.406120 A    
C138  C146  1.404809 A    
O24   C44   1.300352 A    
Cu8   O44   1.950007 S    
O39   C51   1.288033 A    
C177  H105  1.111807 S    
C163  H71   1.112656 S    
C37   O77   1.392833 S    
O17   C41   1.300353 A    
C142  H62   1.082791 S    
C108  O60   1.349314 S    
C25   H17   1.086987 S    
C19   H11   1.085322 S    
O29   Cu9   1.965678 S    
C128  H56   1.082778 S    
C15   C23   1.337831 D    
C16   H8    1.085902 S    
C23   H15   1.085325 S    
C17   H9    1.085323 S    
C166  H78   1.110420 S    
C36   O76   1.392836 S    
C76   C102  1.414581 A    
C33   O73   1.392845 S    
C188  H133  1.110467 S    
O41   C53   1.298252 A    
C61   O53   1.349355 S    
C182  H119  1.110688 S    
C9    C25   1.475360 S    
C116  C124  1.397469 A    
C119  H47   1.082825 S    
C11   C27   1.475359 S    
C12   C28   1.475376 S    
C109  O61   1.349312 S    
C167  H80   1.115474 S    
C70   C82   1.405576 A    
C64   C70   1.406086 A    
C20   H12   1.085326 S    
C137  H57   1.082789 S    
C177  C178  1.521049 S    
C139  H59   1.082790 S    
C63   N3    1.371529 A    
C151  O71   1.384364 S    
N4    C160  1.440358 S    
C142  C160  1.399491 A    
C15   C31   1.475384 S    
C112  N8    1.371372 A    
C164  H74   1.110938 S    
O35   C47   1.288040 A    
C178  H107  1.110660 S    
C15   H7    1.085902 S    
C41   C129  1.480504 S    
C186  H129  1.110681 S    
C173  H96   1.112644 S    
C175  C176  1.520790 S    
Cu10  O46   1.950008 S    
C125  C131  1.406970 A    
C77   H25   1.083055 S    
C40   O80   1.392836 S    
C115  C133  1.401788 A    
C189  H135  1.111804 S    
C183  H121  1.115870 S    
C31   C39   1.346038 D    
Cu6   Cu8   2.681777 S    
C126  H54   1.082778 S    
C119  C135  1.401791 A    
C184  H124  1.110682 S    
C127  C131  1.406970 A    
C139  C157  1.399481 A    
O26   Cu6   1.965659 S    
Cu10  Cu12  2.681777 S    
C88   H36   1.083057 S    
C65   C77   1.405569 A    
C26   H18   1.086956 S    
C113  C133  1.401788 A    
C64   N4    1.371529 A    
O30   Cu10  1.965659 S    
O22   C44   1.300352 A    
C32   C40   1.346038 D    
O1    C1    1.277783 A    
C10   H2    1.085902 S    
C100  C104  1.408430 A    
C58   C68   1.406086 A    
O17   Cu5   1.949989 S    
C176  H104  1.110937 S    
O76   C183  1.414587 S    
O19   Cu7   1.949988 S    
C144  C160  1.399494 A    
O6    Cu2   1.964563 S    
O7    C7    1.277786 A    
O19   C41   1.300352 A    
C140  C148  1.404810 A    
C96   C102  1.408423 A    
C91   H39   1.083048 S    
C57   O49   1.349354 S    
C178  H108  1.110467 S    
O23   C43   1.300352 A    
N8    C136  1.439990 S    
C189  C190  1.521065 S    
N5    C133  1.440084 S    
C120  C136  1.401753 A    
C81   C85   1.396746 A    
C148  O68   1.384354 S    
C165  H76   1.112647 S    
C21   C49   1.452659 S    
C145  C153  1.411499 A    
C83   H31   1.083055 S    
C84   C88   1.396746 A    
C23   C51   1.452658 S    
C176  H103  1.110421 S    
C81   H29   1.083054 S    
C179  H110  1.111806 S    
C28   H20   1.086953 S    
O28   C48   1.296322 A    
C105  O57   1.349315 S    
C85   H33   1.083051 S    
C137  C157  1.399482 A    
C172  H92   1.110516 S    
O37   C49   1.288033 A    
C39   O79   1.392834 S    
C67   C73   1.408401 A    
C174  H98   1.110419 S    
O11   C3    1.291893 A    
O79   C189  1.414586 S    
C71   C83   1.405572 A    
C72   C76   1.408399 A    
C113  C121  1.397469 A    
Cu11  O47   1.950008 S    
Cu12  O48   1.950007 S    
O27   C47   1.296306 A    
C169  H86   1.112645 S    
C8    C37   1.459966 S    
C59   C65   1.406086 A    
C91   C99   1.405568 A    
C24   C52   1.452650 S    
C13   H5    1.085904 S    
C42   C130  1.480504 S    
C89   C97   1.405569 A    
C115  H43   1.082824 S    
C92   H40   1.083065 S    
C175  H100  1.115475 S    
C92   C100  1.405554 A    
C93   C101  1.408425 A    
N6    C134  1.440075 S    
C59   O51   1.349353 S    
C121  C129  1.406971 A    
C192  H143  1.110468 S    
C35   O75   1.392839 S    
C95   C107  1.406129 A    
O13   Cu4   1.964379 S    
C123  H51   1.082769 S    
C78   C90   1.396741 A    
C170  H88   1.110419 S    
C126  C132  1.406976 A    
O40   Cu10  1.966064 S    
C147  C153  1.411500 A    
C145  O65   1.384363 S    
C85   C93   1.405568 A    
C11   H3    1.085907 S    
C111  N7    1.371416 A    
C190  H138  1.110467 S    
C14   C30   1.475378 S    
C63   O55   1.349355 S    
C168  H83   1.110421 S    
C66   C74   1.408374 A    
C97   C103  1.408424 A    
C13   C29   1.475386 S    
C32   H24   1.086955 S    
O3    Cu1   1.964545 S    
C141  C149  1.404826 A    
C57   C67   1.406091 A    
C179  C180  1.521065 S    
C143  H63   1.082789 S    
C96   C108  1.406129 A    
C124  C130  1.406974 A    
C144  C152  1.404827 A    
C99   C111  1.406134 A    
C118  H46   1.082829 S    
C128  C132  1.406975 A    
C140  H60   1.082794 S    
C184  H122  1.110671 S    
O43   C53   1.298252 A    
C29   H21   1.086956 S    
C18   H10   1.085325 S    
N2    C158  1.440519 S    
C114  H42   1.082823 S    
C149  C155  1.411501 A    
C117  H45   1.082823 S    
C75   C101  1.414581 A    
C119  C127  1.397469 A    
C171  H91   1.112646 S    
C191  C192  1.521067 S    
C10   C26   1.475377 S    
C187  H130  1.111807 S    
Cu1   Cu3   2.657523 S    
O35   Cu5   1.966080 S    
C172  H94   1.110941 S    
O9    Cu3   1.964379 S    
C180  H112  1.110670 S    
C161  H65   1.115478 S    
C138  H58   1.082794 S    
Cu7   O43   1.950008 S    
Cu2   Cu4   2.657523 S    
C22   C50   1.452649 S    
Cu5   O41   1.950007 S    
C43   C131  1.480509 S    
C181  H115  1.111806 S    
C171  C172  1.520787 S    
C13   C21   1.337831 D    
C117  C135  1.401787 A    
C118  C136  1.401753 A    
C80   H28   1.083065 S    
C162  H67   1.110518 S    
C12   H4    1.085902 S    
C24   H16   1.085326 S    
C116  C134  1.401788 A    
O2    Cu1   1.964563 S    
O18   Cu6   1.949988 S    
C177  H106  1.115878 S    
C146  C154  1.411451 A    
C127  H55   1.082767 S    
O5    Cu2   1.964548 S    
C9    C17   1.337827 D    
C116  H44   1.082823 S    
C68   C80   1.405580 A    
C185  H125  1.111805 S    
C66   C78   1.405581 A    
C17   C45   1.452647 S    
C114  C134  1.401788 A    
C151  C155  1.411500 A    
C65   C73   1.408402 A    
C152  C156  1.411497 A    
C60   O52   1.349378 S    
C161  C162  1.520797 S    
C30   C38   1.346039 D    
O16   Cu4   1.964397 S    
O21   C43   1.300353 A    
O2    C2    1.277786 A    
C150  O70   1.384361 S    
C166  H77   1.110517 S    
C181  C182  1.521052 S    
C188  H132  1.110671 S    
C57   N1    1.371523 A    
C27   H19   1.086985 S    
O69   C169  1.412128 S    
C182  H118  1.110466 S    
C117  C125  1.397474 A    
O34   C46   1.288040 A    
O46   C56   1.298277 A    
C167  H81   1.112658 S    
C147  O67   1.384363 S    
C29   C37   1.346043 D    
C191  H140  1.111807 S    
O18   C42   1.300359 A    
C38   O78   1.392834 S    
O8    C8    1.277786 A    
O25   C45   1.296306 A    
C164  H73   1.110421 S    
C185  C186  1.521067 S    
O25   Cu5   1.965678 S    
C186  H128  1.110470 S    
C69   C75   1.408401 A    
C99   C103  1.408424 A    
O30   C50   1.296324 A    
C70   C76   1.408399 A    
C138  C158  1.399574 A    
C180  H114  1.110683 S    
C183  C184  1.521064 S    
C68   C74   1.408372 A    
C1    C34   1.459955 S    
O16   C8    1.291898 A    
C189  H136  1.115866 S    
C26   C34   1.346040 D    
C3    C36   1.459955 S    
C173  H95   1.115476 S    
C6    C39   1.459966 S    
O24   Cu12  1.949989 S    
C184  H123  1.110468 S    
C143  C159  1.399485 A    
O22   Cu10  1.949988 S    
C14   H6    1.085901 S    
C113  H41   1.082824 S    
C110  O62   1.349330 S    
C162  H69   1.110935 S    
N7    C135  1.440084 S    
C83   C87   1.396746 A    
C5    C38   1.459959 S    
C122  C130  1.406970 A    
C163  H70   1.115475 S    
Cu9   O45   1.950007 S    
C107  O59   1.349314 S    
C150  C156  1.411500 A    
C122  H50   1.082771 S    
C55   C156  1.476906 S    
C61   N3    1.371525 A    
C78   H26   1.083062 S    
C56   C155  1.476906 S    
C62   N4    1.371529 A    
O9    C1    1.291895 A    
C166  H79   1.110935 S    
C71   C75   1.408399 A    
C4    C33   1.459916 S    
C108  N6    1.371408 A    
C63   C69   1.406086 A    
C188  H134  1.110682 S    
O31   Cu11  1.965678 S    
C142  C150  1.404826 A    
O27   Cu7   1.965678 S    
C176  H102  1.110515 S    
C123  C129  1.406973 A    
C25   C33   1.346025 D    
C179  H111  1.115865 S    
C120  H48   1.082829 S    
O31   C51   1.296318 A    
C112  O64   1.349333 S    
O36   Cu6   1.966064 S    
C84   H32   1.083059 S    
O4    C4    1.277783 A    
C44   C132  1.480471 S    
C174  H97   1.110520 S    
N3    C159  1.440349 S    
O73   C177  1.414598 S    
C115  C123  1.397469 A    
O75   C181  1.414597 S    
O15   C7    1.291894 A    
C11   C19   1.337826 D    
C109  N7    1.371416 A    
C12   C20   1.337829 D    
C98   C104  1.408431 A    
O66   C163  1.412135 S    
C175  H101  1.112651 S    
C90   H38   1.083067 S    
C137  C145  1.404830 A    
C106  N6    1.371408 A    
C192  H142  1.110669 S    
C183  H120  1.111807 S    
C93   C105  1.406129 A    
O14   Cu4   1.964395 S    
C170  H87   1.110517 S    
Cu6   O42   1.950008 S    
C141  H61   1.082790 S    
C82   H30   1.083058 S    
