data_mof_unit_65195.cif
_audit_creation_date              2012-12-10T17:48:18-0500
_audit_creation_method            fapswitch 2.2
_symmetry_space_group_name_H-M    P1
_symmetry_Int_Tables_number       1
_space_group_crystal_system       triclinic
_cell_length_a                    44.740164
_cell_length_b                    39.059455
_cell_length_c                    21.701915
_cell_angle_alpha                 90.000029
_cell_angle_beta                  60.765418
_cell_angle_gamma                 90.0
_cell_volume                      33094.1083849

loop_
_atom_site_label
_atom_site_type_symbol
_atom_type_description
_atom_site_fract_x
_atom_site_fract_y
_atom_site_fract_z
_atom_type_partial_charge
C1    C     C_R   0.066227 0.499996 0.434139 0.782590
C2    C     C_R   0.933773 0.499996 0.565861 0.782590
C3    C     C_R   0.566227 0.999996 0.434140 0.782582
C4    C     C_R   0.433773 0.999996 0.565860 0.782582
C5    C     C_R   0.981537 0.478710 0.736764 -0.193442
C6    C     C_R   0.018463 0.478711 0.263235 -0.193442
C7    C     C_R   0.481537 0.978710 0.736764 -0.193436
C8    C     C_R   0.518463 0.978710 0.263235 -0.193435
C9    C     C_R   0.980159 0.479923 0.801778 -0.196978
C10   C     C_R   0.019841 0.479923 0.198221 -0.196978
C11   C     C_R   0.480160 0.979922 0.801778 -0.197093
C12   C     C_R   0.519840 0.979922 0.198221 -0.197093
C13   C     C_R   0.000552 0.503099 0.813687 -0.085826
C14   C     C_R   0.999448 0.503099 0.186313 -0.085827
C15   C     C_R   0.500552 0.003099 0.813687 -0.084524
C16   C     C_R   0.499448 0.003099 0.186313 -0.084525
C17   C     C_R   0.378042 0.495386 0.066404 -0.221849
C18   C     C_R   0.621958 0.495379 0.933595 -0.221848
C19   C     C_R   0.878041 0.995372 0.066410 -0.221249
C20   C     C_R   0.121959 0.995369 0.933589 -0.221249
C21   C     C_R   0.342095 0.493818 0.101486 0.003525
C22   C     C_R   0.657905 0.493812 0.898512 0.003521
C23   C     C_R   0.842094 0.993804 0.101495 0.003466
C24   C     C_R   0.157906 0.993801 0.898504 0.003465
C25   C     C_R   0.323836 0.497123 0.176044 0.018412
C26   C     C_R   0.676164 0.497123 0.823955 0.018410
C27   C     C_R   0.823836 0.997122 0.176051 0.018448
C28   C     C_R   0.176164 0.997122 0.823949 0.018448
C29   C     C_R   0.341905 0.500663 0.213367 -0.186157
C30   C     C_R   0.658095 0.500669 0.786633 -0.186158
C31   C     C_R   0.841905 0.000675 0.213369 -0.186095
C32   C     C_R   0.158094 0.000678 0.786631 -0.186094
C33   C     C_R   0.377565 0.501563 0.177865 -0.169752
C34   C     C_R   0.622435 0.501569 0.822136 -0.169751
C35   C     C_R   0.877566 0.001576 0.177865 -0.170323
C36   C     C_R   0.122434 0.001578 0.822135 -0.170322
C37   C     C_R   0.395970 0.499137 0.104058 -0.059998
C38   C     C_R   0.604029 0.499137 0.895941 -0.059998
C39   C     C_R   0.895970 0.999137 0.104060 -0.059896
C40   C     C_R   0.104030 0.999137 0.895940 -0.059896
C41   C     C_R   0.268249 0.523617 0.201220 -0.118451
C42   C     C_R   0.731751 0.523614 0.798786 -0.118448
C43   C     C_R   0.768249 0.023612 0.201215 -0.118398
C44   C     C_R   0.231751 0.023610 0.798789 -0.118399
C45   C     C_R   0.001547 0.500045 0.617293 0.787696
C46   C     C_R   0.998453 0.500045 0.382706 0.787695
C47   C     C_R   0.501546 0.000044 0.617294 0.787572
C48   C     C_R   0.498454 0.000044 0.382706 0.787572
C49   C     C_R   0.232530 0.524306 0.238012 -0.161941
C50   C     C_R   0.767470 0.524304 0.761995 -0.161941
C51   C     C_R   0.732530 0.024302 0.238006 -0.162206
C52   C     C_R   0.267470 0.024300 0.761997 -0.162207
C53   C     C_R   0.214089 0.499973 0.290888 0.096070
C54   C     C_R   0.785911 0.499973 0.709112 0.096069
C55   C     C_R   0.714089 0.999974 0.290893 0.095843
C56   C     C_R   0.285911 0.999974 0.709107 0.095843
C57   C     C_R   0.232121 0.475269 0.306910 -0.167500
C58   C     C_R   0.767879 0.475271 0.693084 -0.167499
C59   C     C_R   0.732121 0.975274 0.306927 -0.167276
C60   C     C_R   0.267879 0.975275 0.693070 -0.167275
C61   C     C_R   0.267850 0.474548 0.269935 -0.141217
C62   C     C_R   0.732150 0.474550 0.730058 -0.141215
C63   C     C_R   0.767849 0.974553 0.269953 -0.141246
C64   C     C_R   0.232151 0.974554 0.730043 -0.141245
C65   C     C_R   0.286088 0.498399 0.216202 0.138189
C66   C     C_R   0.713912 0.498399 0.783797 0.138194
C67   C     C_R   0.786088 0.998399 0.216209 0.138076
C68   C     C_R   0.213912 0.998399 0.783791 0.138077
C69   C     C_R   0.157982 0.469051 0.343192 -0.157629
C70   C     C_R   0.842018 0.469051 0.656802 -0.157628
C71   C     C_R   0.657982 0.969051 0.343206 -0.157665
C72   C     C_R   0.342018 0.969051 0.656791 -0.157665
C73   C     C_R   0.122261 0.469040 0.377566 -0.180338
C74   C     C_R   0.877739 0.469040 0.622429 -0.180340
C75   C     C_R   0.622261 0.969040 0.377577 -0.180204
C76   C     C_R   0.377739 0.969040 0.622420 -0.180204
C77   C     C_R   0.104007 0.500010 0.397601 -0.049751
C78   C     C_R   0.895993 0.500010 0.602398 -0.049750
C79   C     C_R   0.604007 0.000010 0.397603 -0.049735
C80   C     C_R   0.395993 0.000010 0.602397 -0.049734
C81   C     C_R   0.122189 0.530985 0.382774 -0.127668
C82   C     C_R   0.877811 0.530986 0.617231 -0.127660
C83   C     C_R   0.622189 0.030986 0.382767 -0.127746
C84   C     C_R   0.377811 0.030986 0.617236 -0.127742
C85   C     C_R   0.157914 0.530986 0.348625 -0.148272
C86   C     C_R   0.842086 0.530986 0.651380 -0.148273
C87   C     C_R   0.657914 0.030987 0.348620 -0.148169
C88   C     C_R   0.342086 0.030987 0.651383 -0.148169
C89   C     C_R   0.049851 0.543881 0.636928 -0.234724
C90   C     C_R   0.950148 0.543880 0.363073 -0.234724
C91   C     C_R   0.549851 0.043881 0.636929 -0.234266
C92   C     C_R   0.450149 0.043881 0.363072 -0.234265
C93   C     C_R   0.176177 0.500019 0.328348 0.094675
C94   C     C_R   0.823823 0.500019 0.671652 0.094675
C95   C     C_R   0.676177 0.000019 0.328352 0.094719
C96   C     C_R   0.323823 0.000019 0.671648 0.094719
C97   C     C_R   0.000000 0.433762 0.000000 0.794606
C98   C     C_R   0.500000 0.933762 0.000000 0.794699
C99   C     C_R   0.000073 0.501228 0.881073 0.791774
C100  C     C_R   0.999927 0.501228 0.118926 0.791775
C101  C     C_R   0.500073 0.001228 0.881073 0.791826
C102  C     C_R   0.499927 0.001228 0.118926 0.791827
C103  C     C_R   0.000000 0.566188 1.000000 0.764232
C104  C     C_R   0.500000 0.066188 1.000000 0.764047
C105  C     C_R   0.500000 0.433713 1.000000 0.789510
C106  C     C_R   0.000000 0.933713 1.000000 0.789482
C107  C     C_R   0.433784 0.499833 0.066264 0.800200
C108  C     C_R   0.566216 0.499833 0.933736 0.800196
C109  C     C_R   0.933784 0.999833 0.066264 0.800166
C110  C     C_R   0.066216 0.999833 0.933736 0.800163
C111  C     C_R   0.500000 0.566094 0.000000 0.789502
C112  C     C_R   0.000000 0.066093 0.000000 0.789431
C113  C     C_R   0.503918 0.622084 0.051416 -0.178062
C114  C     C_R   0.496082 0.622084 0.948584 -0.178062
C115  C     C_R   0.995931 0.122080 0.059423 -0.177928
C116  C     C_R   0.004069 0.122080 0.940577 -0.177927
C117  C     C_R   0.503998 0.657803 0.051310 -0.162939
C118  C     C_R   0.496002 0.657803 0.948690 -0.162937
C119  C     C_R   0.995846 0.157799 0.059481 -0.162777
C120  C     C_R   0.004154 0.157799 0.940519 -0.162777
C121  C     C_R   0.500000 0.676031 0.000000 0.121482
C122  C     C_R   0.000000 0.176028 0.000000 0.121735
C123  C     C_R   0.069485 0.568558 0.648524 -0.012341
C124  C     C_R   0.930513 0.568557 0.351478 -0.012341
C125  C     C_R   0.569484 0.068559 0.648525 -0.012317
C126  C     C_R   0.430515 0.068558 0.351476 -0.012317
C127  C     C_R   0.500000 0.603868 0.000000 -0.036344
C128  C     C_R   0.000000 0.103865 0.000000 -0.035547
C129  C     C_R   0.517105 0.732096 0.936253 -0.210764
C130  C     C_R   0.482894 0.732096 0.063747 -0.210764
C131  C     C_R   0.983067 0.232095 0.970320 -0.210758
C132  C     C_R   0.016933 0.232095 0.029680 -0.210759
C133  C     C_R   0.983026 0.267878 0.969933 -0.009229
C134  C     C_R   0.016974 0.267878 0.030067 -0.009228
C135  C     C_R   0.517153 0.767879 0.935782 -0.009326
C136  C     C_R   0.482847 0.767879 0.064218 -0.009327
C137  C     C_R   0.000000 0.286157 0.000000 -0.019251
C138  C     C_R   0.500000 0.786157 0.000000 -0.019311
C139  C     C_R   0.500000 0.713939 0.000000 0.065447
C140  C     C_R   0.000000 0.213938 0.000000 0.064919
C141  C     C_R   0.030805 0.342068 0.962277 -0.137529
C142  C     C_R   0.969195 0.342068 0.037723 -0.137529
C143  C     C_R   0.530770 0.842067 0.976225 -0.137493
C144  C     C_R   0.469230 0.842067 0.023774 -0.137491
C145  C     C_R   0.030843 0.377786 0.962422 -0.175621
C146  C     C_R   0.969157 0.377787 0.037578 -0.175620
C147  C     C_R   0.530808 0.877786 0.976011 -0.175758
C148  C     C_R   0.469192 0.877785 0.023989 -0.175758
C149  C     C_R   0.000000 0.396000 0.000000 -0.041014
C150  C     C_R   0.500000 0.895999 0.000000 -0.039850
C151  C     C_R   0.000000 0.324034 0.000000 0.103995
C152  C     C_R   0.500000 0.824033 0.000000 0.104101
C153  C     C_R   0.498860 0.377735 0.945367 -0.175767
C154  C     C_R   0.501140 0.377735 0.054633 -0.175768
C155  C     C_R   0.998860 0.877735 0.945367 -0.175760
C156  C     C_R   0.001140 0.877735 0.054633 -0.175761
C157  C     C_R   0.064384 0.572704 0.717692 -0.046016
C158  C     C_R   0.935614 0.572703 0.282310 -0.046016
C159  C     C_R   0.564383 0.072705 0.717693 -0.045867
C160  C     C_R   0.435616 0.072705 0.282308 -0.045867
C161  C     C_R   0.498848 0.342021 0.945392 -0.162733
C162  C     C_R   0.501151 0.342021 0.054608 -0.162733
C163  C     C_R   0.998849 0.842021 0.945392 -0.162728
C164  C     C_R   0.001151 0.842021 0.054608 -0.162729
C165  C     C_R   0.500000 0.323821 1.000000 0.103714
C166  C     C_R   0.000000 0.823821 1.000000 0.103717
C167  C     C_R   0.500000 0.395947 1.000000 -0.036124
C168  C     C_R   0.000000 0.895947 1.000000 -0.036120
C169  C     C_R   0.480297 0.267758 0.062955 -0.167574
C170  C     C_R   0.519703 0.267758 0.937045 -0.167573
C171  C     C_R   0.980297 0.767758 0.062955 -0.167572
C172  C     C_R   0.019703 0.767758 0.937044 -0.167572
C173  C     C_R   0.980294 0.732049 0.062954 -0.165186
C174  C     C_R   0.019706 0.732048 0.937045 -0.165186
C175  C     C_R   0.480294 0.232048 0.062954 -0.165196
C176  C     C_R   0.519706 0.232048 0.937045 -0.165196
C177  C     C_R   0.000000 0.713851 1.000000 0.091895
C178  C     C_R   0.500000 0.213851 1.000000 0.091928
C179  C     C_R   0.500000 0.285959 1.000000 0.093688
C180  C     C_R   0.000000 0.785959 1.000000 0.093644
C181  C     C_R   0.030651 0.657797 0.960458 -0.151767
C182  C     C_R   0.969349 0.657797 0.039542 -0.151768
C183  C     C_R   0.530651 0.157797 0.960458 -0.151795
C184  C     C_R   0.469349 0.157797 0.039542 -0.151795
C185  C     C_R   0.030661 0.622090 0.960508 -0.171911
C186  C     C_R   0.969339 0.622090 0.039492 -0.171912
C187  C     C_R   0.530661 0.122090 0.960508 -0.171965
C188  C     C_R   0.469339 0.122090 0.039492 -0.171966
C189  C     C_R   0.000000 0.603907 1.000000 -0.042359
C190  C     C_R   0.500000 0.103907 1.000000 -0.042331
C191  C     C_R   0.041270 0.551560 0.772144 -0.238927
C192  C     C_R   0.958728 0.551559 0.227858 -0.238927
C193  C     C_R   0.541269 0.051560 0.772144 -0.238704
C194  C     C_R   0.458730 0.051560 0.227856 -0.238704
C195  C     C_R   0.000000 0.675994 1.000000 0.094430
C196  C     C_R   0.500000 0.175994 1.000000 0.094440
C197  C     C_R   0.022498 0.526004 0.759890 0.094766
C198  C     C_R   0.977502 0.526003 0.240111 0.094767
C199  C     C_R   0.522497 0.026004 0.759891 0.094796
C200  C     C_R   0.477503 0.026003 0.240110 0.094797
C201  C     C_R   0.025224 0.523589 0.692465 0.074881
C202  C     C_R   0.974776 0.523588 0.307536 0.074881
C203  C     C_R   0.525223 0.023589 0.692465 0.075021
C204  C     C_R   0.474776 0.023589 0.307535 0.075020
C205  C     C_R   0.003561 0.500442 0.682266 -0.086763
C206  C     C_R   0.996439 0.500442 0.317734 -0.086762
C207  C     C_R   0.503561 0.000442 0.682266 -0.085903
C208  C     C_R   0.496439 0.000441 0.317734 -0.085903
Cu1   Cu    Cu3+1 0.000000 0.534200 0.500000 0.980053
Cu2   Cu    Cu3+1 0.500000 0.034200 0.500000 0.979845
Cu3   Cu    Cu3+1 0.000000 0.465790 0.500000 0.957259
Cu4   Cu    Cu3+1 0.500000 0.965790 0.500000 0.957483
Cu5   Cu    Cu3+1 0.965790 0.499980 0.034190 0.959291
Cu6   Cu    Cu3+1 0.034210 0.499980 0.965810 0.959290
Cu7   Cu    Cu3+1 0.465790 0.999980 0.034190 0.959523
Cu8   Cu    Cu3+1 0.534210 0.999980 0.965810 0.959523
Cu9   Cu    Cu3+1 0.500000 0.499920 0.061800 0.958959
Cu10  Cu    Cu3+1 0.500000 0.499920 0.938200 0.958959
Cu11  Cu    Cu3+1 0.000000 0.999920 0.061800 0.959058
Cu12  Cu    Cu3+1 1.000000 0.999920 0.938200 0.959058
H1    H     H_    0.964929 0.461014 0.729249 0.157860
H2    H     H_    0.035071 0.461014 0.270750 0.157859
H3    H     H_    0.464930 0.961013 0.729249 0.156584
H4    H     H_    0.535070 0.961013 0.270750 0.156583
H5    H     H_    0.390695 0.504439 0.208294 0.157345
H6    H     H_    0.609305 0.504449 0.791708 0.157344
H7    H     H_    0.890696 0.004462 0.208290 0.157060
H8    H     H_    0.109304 0.004466 0.791710 0.157059
H9    H     H_    0.282021 0.542470 0.160405 0.128264
H10   H     H_    0.717979 0.542465 0.839607 0.128262
H11   H     H_    0.782022 0.042461 0.160390 0.128405
H12   H     H_    0.217978 0.042459 0.839616 0.128405
H13   H     H_    0.219338 0.543445 0.224101 0.130549
H14   H     H_    0.780661 0.543440 0.775910 0.130549
H15   H     H_    0.719339 0.043436 0.224086 0.130544
H16   H     H_    0.280661 0.043434 0.775919 0.130543
H17   H     H_    0.218593 0.456583 0.348209 0.131551
H18   H     H_    0.781407 0.456587 0.651780 0.131552
H19   H     H_    0.718593 0.956592 0.348234 0.132124
H20   H     H_    0.281407 0.956594 0.651760 0.132124
H21   H     H_    0.281294 0.455121 0.282554 0.133682
H22   H     H_    0.718706 0.455126 0.717435 0.133682
H23   H     H_    0.781293 0.955130 0.282581 0.133897
H24   H     H_    0.218706 0.955132 0.717413 0.133897
H25   H     H_    0.171385 0.444819 0.327229 0.135686
H26   H     H_    0.828615 0.444819 0.672761 0.135687
H27   H     H_    0.671385 0.944819 0.327251 0.135582
H28   H     H_    0.328615 0.944819 0.672743 0.135583
H29   H     H_    0.108979 0.444753 0.388072 0.157699
H30   H     H_    0.891021 0.444753 0.611918 0.157699
H31   H     H_    0.608980 0.944753 0.388091 0.157643
H32   H     H_    0.391020 0.944753 0.611904 0.157643
H33   H     H_    0.108836 0.555267 0.397730 0.184288
H34   H     H_    0.891164 0.555268 0.602279 0.184280
H35   H     H_    0.608836 0.055268 0.397716 0.184254
H36   H     H_    0.391163 0.055268 0.602289 0.184250
H37   H     H_    0.171244 0.555220 0.338677 0.138123
H38   H     H_    0.828756 0.555221 0.661333 0.138121
H39   H     H_    0.671244 0.055221 0.338664 0.138125
H40   H     H_    0.328756 0.055221 0.661342 0.138124
H41   H     H_    0.507174 0.608766 0.091509 0.157346
H42   H     H_    0.492826 0.608766 0.908491 0.157346
H43   H     H_    0.992552 0.108761 0.106164 0.156469
H44   H     H_    0.007448 0.108761 0.893836 0.156469
H45   H     H_    0.054270 0.540450 0.583712 0.183786
H46   H     H_    0.945729 0.540449 0.416289 0.183786
H47   H     H_    0.554269 0.040450 0.583712 0.183803
H48   H     H_    0.445730 0.040450 0.416288 0.183803
H49   H     H_    0.507635 0.671166 0.090874 0.133191
H50   H     H_    0.492365 0.671166 0.909126 0.133190
H51   H     H_    0.992084 0.171159 0.106461 0.132839
H52   H     H_    0.007916 0.171159 0.893539 0.132839
H53   H     H_    0.530731 0.718362 0.886701 0.138978
H54   H     H_    0.469269 0.718362 0.113299 0.138978
H55   H     H_    0.969572 0.218363 0.947913 0.139551
H56   H     H_    0.030428 0.218363 0.052087 0.139551
H57   H     H_    0.054773 0.328436 0.932634 0.136742
H58   H     H_    0.945226 0.328436 0.067366 0.136742
H59   H     H_    0.554710 0.828434 0.958016 0.136584
H60   H     H_    0.445290 0.828434 0.041984 0.136584
H61   H     H_    0.054991 0.391103 0.932818 0.156679
H62   H     H_    0.945009 0.391103 0.067182 0.156679
H63   H     H_    0.554928 0.891102 0.957417 0.155910
H64   H     H_    0.445072 0.891102 0.042583 0.155910
H65   H     H_    0.497844 0.391044 0.902657 0.156576
H66   H     H_    0.502155 0.391044 0.097343 0.156576
H67   H     H_    0.997845 0.891044 0.902656 0.156580
H68   H     H_    0.002155 0.891044 0.097343 0.156580
H69   H     H_    0.497490 0.328631 0.903134 0.132352
H70   H     H_    0.502510 0.328631 0.096866 0.132352
H71   H     H_    0.997491 0.828631 0.903134 0.132351
H72   H     H_    0.002509 0.828631 0.096866 0.132351
H73   H     H_    0.464599 0.281144 0.112106 0.133871
H74   H     H_    0.535401 0.281144 0.887893 0.133871
H75   H     H_    0.964599 0.781144 0.112106 0.133920
H76   H     H_    0.035401 0.781144 0.887893 0.133920
H77   H     H_    0.965143 0.718660 0.112362 0.139138
H78   H     H_    0.034857 0.718660 0.887638 0.139139
H79   H     H_    0.465143 0.218660 0.112362 0.139099
H80   H     H_    0.534857 0.218660 0.887638 0.139099
H81   H     H_    0.054705 0.671184 0.930163 0.139252
H82   H     H_    0.945295 0.671184 0.069836 0.139251
H83   H     H_    0.554705 0.171184 0.930163 0.139246
H84   H     H_    0.445295 0.171184 0.069837 0.139246
H85   H     H_    0.054681 0.608752 0.929469 0.162089
H86   H     H_    0.945319 0.608752 0.070531 0.162089
H87   H     H_    0.554681 0.108752 0.929468 0.162095
H88   H     H_    0.445319 0.108752 0.070531 0.162095
H89   H     H_    0.037827 0.555704 0.824540 0.152099
H90   H     H_    0.962172 0.555704 0.175461 0.152100
H91   H     H_    0.537826 0.055705 0.824541 0.151937
H92   H     H_    0.462174 0.055705 0.175460 0.151937
H93   H     H_    0.963358 0.462371 0.842845 0.157418
H94   H     H_    0.036643 0.462372 0.157154 0.157419
H95   H     H_    0.463359 0.962370 0.842845 0.154844
H96   H     H_    0.536641 0.962371 0.157154 0.154844
H97   H     H_    0.392147 0.492749 0.009464 0.187525
H98   H     H_    0.607853 0.492738 0.990533 0.187526
H99   H     H_    0.892146 0.992725 0.009473 0.187629
H100  H     H_    0.107854 0.992720 0.990526 0.187628
H101  H     H_    0.328259 0.503266 0.270334 0.142088
H102  H     H_    0.671741 0.503277 0.729668 0.142089
H103  H     H_    0.828260 0.003288 0.270334 0.142078
H104  H     H_    0.171740 0.003293 0.729667 0.142078
O1    O     O_R   0.049910 0.528880 0.450120 -0.583773
O2    O     O_R   0.950090 0.528880 0.549880 -0.583773
O3    O     O_R   0.549910 0.028880 0.450120 -0.583804
O4    O     O_R   0.450090 0.028880 0.549880 -0.583805
O5    O     O_R   0.450090 0.499920 0.102070 -0.587730
O6    O     O_R   0.549910 0.499920 0.897930 -0.587728
O7    O     O_R   0.950090 0.999920 0.102070 -0.588532
O8    O     O_R   0.049910 0.999920 0.897930 -0.588531
O9    O     O_R   0.450080 0.499990 0.997700 -0.583685
O10   O     O_R   0.549920 0.499990 0.002300 -0.583684
O11   O     O_R   0.950080 0.999990 0.997700 -0.582864
O12   O     O_R   0.049920 0.999990 0.002300 -0.582862
O13   O     O_R   0.500010 0.549830 0.052290 -0.586099
O14   O     O_R   0.499990 0.549830 0.947710 -0.586098
O15   O     O_R   0.000010 0.049830 0.052290 -0.586002
O16   O     O_R   0.999990 0.049830 0.947710 -0.586002
O17   O     O_R   0.049890 0.471110 0.450120 -0.588368
O18   O     O_R   0.950110 0.471110 0.549880 -0.588368
O19   O     O_R   0.549890 0.971110 0.450120 -0.588334
O20   O     O_R   0.450110 0.971110 0.549880 -0.588332
O21   O     O_R   0.000000 0.528880 0.590170 -0.582526
O22   O     O_R   0.000000 0.528880 0.409830 -0.582523
O23   O     O_R   0.500000 0.028880 0.590170 -0.582739
O24   O     O_R   0.500000 0.028880 0.409830 -0.582738
O25   O     O_R   0.999990 0.471110 0.590170 -0.581685
O26   O     O_R   0.000010 0.471110 0.409830 -0.581685
O27   O     O_R   0.499990 0.971110 0.590170 -0.581484
O28   O     O_R   0.500010 0.971110 0.409830 -0.581484
O29   O     O_R   0.971110 0.450080 0.028870 -0.585566
O30   O     O_R   0.028890 0.450080 0.971130 -0.585566
O31   O     O_R   0.471110 0.950080 0.028870 -0.585440
O32   O     O_R   0.528890 0.950080 0.971130 -0.585441
O33   O     O_R   0.971100 0.499980 0.938700 -0.579233
O34   O     O_R   0.028900 0.499980 0.061300 -0.579234
O35   O     O_R   0.471100 0.999980 0.938700 -0.580775
O36   O     O_R   0.528900 0.999980 0.061300 -0.580776
O37   O     O_R   0.028870 0.499990 0.880960 -0.584554
O38   O     O_R   0.971130 0.499990 0.119040 -0.584554
O39   O     O_R   0.528870 0.999990 0.880960 -0.582950
O40   O     O_R   0.471130 0.999990 0.119040 -0.582950
O41   O     O_R   0.971110 0.549890 0.028880 -0.592004
O42   O     O_R   0.028890 0.549890 0.971120 -0.592005
O43   O     O_R   0.471110 0.049890 0.028880 -0.592059
O44   O     O_R   0.528890 0.049890 0.971120 -0.592060
O45   O     O_R   0.499990 0.450010 0.052090 -0.587152
O46   O     O_R   0.500010 0.450010 0.947910 -0.587151
O47   O     O_R   0.999990 0.950010 0.052090 -0.587158
O48   O     O_R   0.000010 0.950010 0.947910 -0.587157
C209  C     C_1   0.965951 0.285291 0.937056 0.229439
N1    N     N_1   0.952281 0.299250 0.910724 -0.274687
C210  C     C_1   0.034049 0.285291 0.062944 0.229440
N2    N     N_1   0.047719 0.299250 0.089276 -0.274688
C211  C     C_1   0.534423 0.785295 0.868547 0.229139
N3    N     N_1   0.548250 0.799256 0.814707 -0.273221
C212  C     C_1   0.465577 0.785295 0.131453 0.229138
N4    N     N_1   0.451750 0.799256 0.185293 -0.273221
C213  C     C_2   0.094679 0.589460 0.587476 0.838726
O49   O     O_2   0.103453 0.580302 0.527090 -0.620133
O50   O     O_R   0.108167 0.619743 0.598219 -0.751639
H105  H     H_    0.124834 0.631385 0.552369 0.339129
C214  C     C_2   0.905320 0.589458 0.412526 0.838725
O51   O     O_2   0.896545 0.580300 0.472912 -0.620129
O52   O     O_R   0.891830 0.619741 0.401784 -0.751639
H106  H     H_    0.875163 0.631382 0.447635 0.339129
C215  C     C_2   0.594678 0.089460 0.587477 0.838844
O53   O     O_2   0.603452 0.080303 0.527091 -0.620007
O54   O     O_R   0.608167 0.119743 0.598219 -0.751757
H107  H     H_    0.624834 0.131385 0.552369 0.339055
C216  C     C_2   0.405321 0.089459 0.412525 0.838844
O55   O     O_2   0.396547 0.080301 0.472910 -0.620005
O56   O     O_R   0.391831 0.119742 0.401783 -0.751757
H108  H     H_    0.375165 0.131383 0.447633 0.339054
C217  C     C_1   0.083044 0.597602 0.734893 0.317034
N5    N     N_1   0.097900 0.617502 0.749050 -0.265471
C218  C     C_1   0.916953 0.597601 0.265110 0.317035
N6    N     N_1   0.902097 0.617500 0.250954 -0.265471
C219  C     C_1   0.583043 0.097603 0.734894 0.317204
N7    N     N_1   0.597898 0.117504 0.749051 -0.265541
C220  C     C_1   0.416956 0.097603 0.265107 0.317205
N8    N     N_1   0.402100 0.117503 0.250951 -0.265540
C221  C     C_2   0.324688 0.487315 0.059137 0.817905
O57   O     O_2   0.338159 0.496511 0.997444 -0.593443
O58   O     O_R   0.293450 0.469819 0.088750 -0.752532
H109  H     H_    0.284394 0.466934 0.054394 0.339943
C222  C     C_2   0.675312 0.487301 0.940859 0.817906
O59   O     O_2   0.661839 0.496489 0.002558 -0.593442
O60   O     O_R   0.706552 0.469808 0.911237 -0.752534
H110  H     H_    0.715607 0.466917 0.945593 0.339944
C223  C     C_2   0.824686 0.987288 0.059152 0.817901
O61   O     O_2   0.838158 0.996470 0.997451 -0.593174
O62   O     O_R   0.793446 0.969795 0.088782 -0.752844
H111  H     H_    0.784390 0.966899 0.054429 0.339659
C224  C     C_2   0.175313 0.987282 0.940846 0.817903
O63   O     O_2   0.161842 0.996461 0.002549 -0.593174
O64   O     O_R   0.206554 0.969789 0.911214 -0.752844
H112  H     H_    0.215610 0.966891 0.945566 0.339659

loop_
_geom_bond_atom_site_label_1
_geom_bond_atom_site_label_2
_ccdc_geom_bond_type
C3    O3    A    
C58   C62   A    
C55   C59   A    
Cu10  O9    S    
C1    C77   S    
C142  C146  A    
C46   O26   A    
C71   H27   S    
C3    C79   S    
C170  C176  A    
C133  C137  A    
C171  C173  A    
C29   H101  S    
C69   C93   A    
C20   C40   A    
Cu5   O29   S    
C132  H56   S    
C29   C33   A    
C61   H21   S    
C51   H15   S    
C9    C13   A    
C131  C140  A    
C74   H30   S    
C11   C15   A    
C12   C16   A    
C124  C158  A    
C84   H36   S    
C175  H79   S    
C111  O13   A    
C4    O20   A    
C192  C198  A    
C177  C195  S    
C73   H29   S    
C141  C145  A    
C103  O41   A    
C116  C128  A    
C223  O62   S    
C91   H47   S    
C23   C223  S    
C41   C49   A    
C25   C29   A    
C27   C31   A    
Cu3   O25   S    
C28   C32   A    
C147  C150  A    
C48   O24   A    
C87   H39   S    
Cu1   O2    S    
C109  O11   A    
C30   C34   A    
C40   C110  S    
C193  C199  A    
C17   C21   A    
C169  H73   S    
Cu10  O6    S    
C22   C222  S    
C142  C151  A    
C19   C23   A    
Cu7   Cu8   S    
C157  C191  A    
C116  H44   S    
Cu6   O34   S    
C158  C192  A    
C162  C165  A    
C7    H3    S    
C78   C82   A    
C48   C208  S    
C183  C196  A    
C50   C54   A    
C57   C61   A    
C174  C177  A    
C114  H42   S    
C184  H84   S    
C69   H25   S    
Cu8   O36   S    
C143  C147  A    
C126  C160  A    
C153  H65   S    
C213  O49   D    
C35   H7    S    
C154  C167  A    
C123  C213  S    
O50   H105  S    
C76   H32   S    
C112  O15   A    
C52   H16   S    
C98   C150  S    
C91   C125  A    
C34   H6    S    
C59   C63   A    
Cu2   O23   S    
C84   C88   A    
C117  H49   S    
C210  N2    T    
C14   C100  S    
C119  H51   S    
C216  O55   D    
C113  H41   S    
C33   H5    S    
C120  H52   S    
C60   C64   A    
C192  H90   S    
C182  H82   S    
C18   C38   A    
C221  O57   D    
Cu12  O48   S    
C72   H28   S    
C49   C53   A    
C51   C55   A    
C1    O17   A    
C3    O19   A    
Cu5   O38   S    
C72   C96   A    
C61   C65   A    
C39   C109  S    
C71   C95   A    
C132  C134  A    
C8    H4    S    
C73   C77   A    
C108  O6    A    
C85   H37   S    
C222  O59   D    
C75   C79   A    
C161  C165  A    
Cu4   O20   S    
C106  O48   A    
C214  O52   S    
C136  C212  S    
C13   C99   S    
C191  H89   S    
O64   H112  S    
C145  H61   S    
C100  O34   A    
C219  N7    T    
C102  O36   A    
C13   C197  A    
C64   C68   A    
C28   C68   S    
C148  C150  A    
C4    C80   S    
C98   O32   A    
Cu10  O46   S    
C97   O30   A    
C156  C168  A    
C218  N6    T    
C4    O4    A    
Cu3   O18   S    
C15   C199  A    
C188  C190  A    
C125  C215  S    
C110  O12   A    
C129  C135  A    
C47   O23   A    
C194  C200  A    
C158  C218  S    
O62   H111  S    
C163  H71   S    
C87   C95   A    
C198  C202  A    
C97   O29   A    
C46   O22   A    
C188  H88   S    
C16   C200  A    
C200  C204  A    
C44   C52   A    
C176  C178  A    
C63   H23   S    
Cu2   O3    S    
C185  H85   S    
C224  O64   S    
C172  C174  A    
C124  C214  S    
C2    O18   A    
Cu5   O41   S    
Cu7   O43   S    
C62   C66   A    
C26   C66   S    
C204  C208  A    
C42   C66   A    
C7    C207  A    
C10   C14   A    
C164  H72   S    
Cu9   O13   S    
C123  C157  A    
C155  C163  A    
Cu9   Cu10  S    
C178  C196  S    
C115  C128  A    
C116  C120  A    
C173  H77   S    
C92   H48   S    
C101  O39   A    
C161  H69   S    
C5    C9    A    
C129  C139  A    
C8    C12   A    
Cu1   O21   S    
C15   C101  S    
C115  H43   S    
C135  C211  S    
C113  C117  A    
Cu11  O15   S    
C42   C50   A    
C26   C30   A    
C115  C119  A    
C22   C26   A    
C165  C179  S    
C166  C180  S    
C60   H20   S    
C109  O7    A    
C215  O54   S    
C16   C102  S    
C159  C193  A    
Cu8   O39   S    
C21   C25   A    
C17   H97   S    
C18   C22   A    
C154  C162  A    
C18   H98   S    
C76   C80   A    
C19   H99   S    
Cu4   O27   S    
C146  H62   S    
C185  C189  A    
C117  C121  A    
Cu2   Cu4   S    
C105  C167  S    
C170  C179  A    
C32   H104  S    
C81   H33   S    
C121  C139  S    
C122  C140  S    
C144  C152  A    
C217  N5    T    
Cu8   O32   S    
C154  H66   S    
C89   H45   S    
C99   O37   A    
C57   H17   S    
C6    C206  A    
C27   C67   S    
C105  O46   A    
C43   C67   A    
C97   C149  S    
C182  C195  A    
C90   C202  A    
C169  C179  A    
C81   C85   A    
C118  H50   S    
C20   H100  S    
C83   C87   A    
C88   C96   A    
C223  O61   D    
C129  H53   S    
C80   C84   A    
C142  H58   S    
C134  C137  A    
C212  N4    T    
Cu5   Cu6   S    
C30   H102  S    
C70   C94   A    
C37   C107  S    
Cu1   O1    S    
Cu6   O30   S    
C43   H11   S    
Cu8   O44   S    
C108  O10   A    
C182  C186  A    
C50   H14   S    
C86   H38   S    
C187  C190  A    
C104  O43   A    
C69   C73   A    
C103  C189  S    
C130  H54   S    
Cu9   O5    S    
C100  O38   A    
C92   C204  A    
C144  C148  A    
C157  C217  S    
C172  C180  A    
C153  C167  A    
C199  C203  A    
C75   H31   S    
C130  C139  A    
C112  O16   A    
C175  C178  A    
C12   H96   S    
C24   C28   A    
C163  C166  A    
Cu2   O24   S    
C110  O8    A    
Cu11  Cu12  S    
C47   O27   A    
C138  C152  S    
C82   C86   A    
C33   C37   A    
Cu7   O40   S    
C56   C60   A    
C83   H35   S    
C35   C39   A    
C183  C187  A    
C146  C149  A    
C147  H63   S    
Cu9   O10   S    
C77   C81   A    
C155  C168  A    
C45   O25   A    
C169  C175  A    
C111  O14   A    
C186  H86   S    
C31   H103  S    
C70   H26   S    
C103  O42   A    
C42   H10   S    
C143  C152  A    
C10   H94   S    
Cu7   O31   S    
C31   C35   A    
C107  O9    A    
C32   C36   A    
C214  O51   D    
C172  H76   S    
C56   C96   S    
O52   H106  S    
C45   C205  S    
C90   H46   S    
C176  H80   S    
Cu3   O26   S    
C90   C124  A    
C133  C209  S    
C162  H70   S    
C92   C126  A    
C6    C10   A    
O56   H108  S    
C125  C159  A    
C64   H24   S    
C171  H75   S    
C132  C140  A    
C186  C189  A    
Cu12  O11   S    
C2    O2    A    
C79   C83   A    
C114  C127  A    
C43   C51   A    
C187  H87   S    
Cu3   O17   S    
C53   C57   A    
C38   C108  S    
C181  C195  A    
Cu11  O7    S    
C112  C128  S    
Cu6   O37   S    
C88   H40   S    
Cu5   O33   S    
C101  O35   A    
C74   C78   A    
C153  C161  A    
O60   H110  S    
C213  O50   S    
C82   H34   S    
C145  C149  A    
C135  C138  A    
C5    H1    S    
Cu2   O4    S    
C220  N8    T    
C72   C76   A    
C224  O63   D    
O54   H107  S    
C7    C11   A    
C14   C198  A    
C2    C78   S    
C6    H2    S    
C99   O33   A    
Cu11  O47   S    
C221  O58   S    
Cu7   O35   S    
C174  H78   S    
C193  H91   S    
C8    C208  A    
C194  H92   S    
C70   C74   A    
C184  C196  A    
C86   C94   A    
C20   C24   A    
C49   H13   S    
O58   H109  S    
C197  C201  A    
C23   C27   A    
C222  O60   S    
C48   O28   A    
Cu12  O8    S    
Cu4   O19   S    
C106  O47   A    
C36   H8    S    
C85   C93   A    
C46   C206  S    
Cu6   O42   S    
C120  C122  A    
C62   H22   S    
C63   C67   A    
C53   C93   S    
C36   C40   A    
C25   C65   S    
C55   C95   S    
C98   O31   A    
Cu4   O28   S    
C181  C185  A    
C41   C65   A    
C89   C123  A    
C203  C207  A    
C184  C188  A    
C216  O56   S    
C118  C121  A    
C106  C168  S    
C59   H19   S    
C126  C216  S    
C131  H55   S    
Cu10  O14   S    
C134  C210  S    
C24   C224  S    
C173  C177  A    
C104  C190  S    
C143  H59   S    
Cu11  O12   S    
C181  H81   S    
C144  H60   S    
C17   C37   A    
C183  H83   S    
C211  N3    T    
C114  C118  A    
C19   C39   A    
C105  O45   A    
C41   H9    S    
C111  C127  S    
Cu9   O45   S    
C171  C180  A    
C44   C68   A    
C155  H67   S    
C159  C219  S    
C156  H68   S    
C141  C151  A    
C136  C138  A    
C160  C194  A    
C54   C58   A    
C119  C122  A    
C201  C205  A    
C148  H64   S    
C34   C38   A    
C130  C136  A    
C191  C197  A    
C131  C133  A    
C113  C127  A    
C21   C221  S    
C45   O21   A    
C89   C201  A    
C47   C207  S    
C164  C166  A    
C44   H12   S    
C141  H57   S    
C160  C220  S    
C209  N1    T    
C71   C75   A    
C215  O53   D    
C11   H95   S    
Cu1   O22   S    
Cu1   Cu3   S    
C107  O5    A    
C91   C203  A    
C54   C94   S    
Cu12  O16   S    
C5    C205  A    
C170  H74   S    
C156  C164  A    
C202  C206  A    
C102  O40   A    
C104  O44   A    
C137  C151  S    
C58   H18   S    
C9    H93   S    
C1    O1    A    
C52   C56   A    
