data_mof_unit_27072.cif
_audit_creation_date              2012-12-10T17:17:32-0500
_audit_creation_method            fapswitch 2.2
_symmetry_space_group_name_H-M    P1
_symmetry_Int_Tables_number       1
_space_group_crystal_system       triclinic
_cell_length_a                    10.214925
_cell_length_b                    10.653003
_cell_length_c                    12.38775
_cell_angle_alpha                 91.418863
_cell_angle_beta                  109.465673
_cell_angle_gamma                 94.588498
_cell_volume                      1265.00748123

loop_
_atom_site_label
_atom_site_type_symbol
_atom_type_description
_atom_site_fract_x
_atom_site_fract_y
_atom_site_fract_z
_atom_type_partial_charge
C1    C     C_R   0.052909 0.733468 0.497101 0.803014
C2    C     C_R   0.202108 0.493754 0.838440 -0.166111
C3    C     C_2   0.087419 0.868489 0.507031 0.479711
C4    C     C_R   0.132549 0.503607 0.714246 0.843564
C5    C     C_2   0.055206 0.939593 0.584139 -0.236626
C6    C     C_2   0.941829 0.134313 0.538197 -0.364063
C7    C     C_2   0.059667 0.074305 0.574072 0.654900
C8    C     C_2   0.431146 0.508153 0.515666 0.480271
C9    C     C_2   0.568772 0.482415 0.500495 0.520015
C10   C     C_R   0.953259 0.266678 0.512773 0.926105
C11   C     C_R   0.863581 0.479815 0.286564 0.966210
C12   C     C_R   0.418621 0.462480 0.991049 0.142244
C13   C     C_R   0.756851 0.371346 0.972437 -0.139691
C14   C     C_R   0.782455 0.443318 0.166823 -0.340614
C15   C     C_R   0.152838 0.553131 0.919402 -0.003705
C16   C     C_R   0.239613 0.573417 0.032655 -0.120649
C17   C     C_R   0.373191 0.535507 0.066586 -0.115426
C18   C     C_1   0.022141 0.889523 0.680468 0.126873
C19   C     C_1   0.805184 0.070654 0.521322 0.202764
C20   C     C_1   0.685597 0.668506 0.600417 0.332105
C21   C     C_1   0.546344 0.261107 0.746349 0.225418
C22   C     C_1   0.824995 0.330055 0.894313 0.295186
C23   C     C_R   0.329814 0.437028 0.877563 0.044845
C24   C     C_1   0.015946 0.597384 0.890256 0.271744
C25   C     C_R   0.554790 0.423441 0.023075 -0.055513
C26   C     C_R   0.609338 0.376164 0.940083 -0.090628
C27   C     C_R   0.511938 0.333472 0.831781 0.008144
C28   C     C_R   0.372761 0.357266 0.805553 -0.143497
C29   C     C_R   0.638158 0.431019 0.137003 0.500137
C30   C     C_R   0.842755 0.413709 0.083922 0.539414
F1    F     F_    0.983755 0.419006 0.112576 -0.643497
F2    F     F_    0.138259 0.922570 0.428847 -0.602320
F3    F     F_    0.569887 0.376266 0.437887 -0.593835
F4    F     F_    0.429068 0.595032 0.597068 -0.649672
F5    F     F_    0.577398 0.413485 0.218613 -0.604442
F6    F     F_    0.188187 0.134646 0.591361 -0.630130
H1    H     H_    0.316748 0.380387 0.393898 0.210542
H2    H     H_    0.440306 0.568222 0.151664 0.199128
H3    H     H_    0.206261 0.624421 0.094272 0.180821
H4    H     H_    0.298725 0.315028 0.726521 0.214311
N1    N     N_2   0.313640 0.446500 0.454900 -0.190377
N2    N     N_2   0.686360 0.553430 0.545150 -0.197414
N3    N     N_1   0.996852 0.851198 0.758449 -0.149004
N4    N     N_1   0.695927 0.019960 0.507661 -0.093920
N5    N     N_1   0.684862 0.764296 0.646276 -0.129244
N6    N     N_1   0.572470 0.202999 0.677234 -0.101138
N7    N     N_1   0.880531 0.297098 0.832450 -0.188037
N8    N     N_1   0.905991 0.632070 0.868143 -0.179917
O1    O     O_R   0.936910 0.692950 0.509080 -0.659692
O2    O     O_R   0.138320 0.658600 0.480130 -0.530610
O3    O     O_R   0.002900 0.525670 0.675280 -0.624525
O4    O     O_R   0.204310 0.491320 0.646330 -0.560158
O5    O     O_R   0.861680 0.341400 0.519870 -0.553374
O6    O     O_R   0.063090 0.307050 0.490920 -0.553624
O7    O     O_R   0.795690 0.508680 0.353670 -0.530474
O8    O     O_R   0.997100 0.474330 0.324720 -0.564519
Zn1   Zn    Zn3+2 0.865520 0.522940 0.519330 1.041712
Zn2   Zn    Zn3+2 0.134480 0.477060 0.480670 1.097267

loop_
_geom_bond_atom_site_label_1
_geom_bond_atom_site_label_2
_ccdc_geom_bond_type
C12   C17   A    
C6    C10   S    
C20   N2    S    
C6    C7    D    
C6    C19   S    
C1    O2    A    
C29   F5    S    
C2    C4    S    
C20   N5    T    
C12   C25   A    
O6    Zn2   S    
C22   N7    T    
C9    N2    D    
O1    Zn1   S    
C8    F4    S    
C23   C28   A    
C8    N1    D    
C9    F3    S    
C2    C15   A    
C12   C23   A    
C26   C27   A    
C30   F1    S    
O4    Zn2   S    
C4    O4    A    
H1    N1    S    
O3    Zn1   S    
N2    Zn1   S    
C15   C24   S    
C14   C30   A    
C13   C22   S    
C17   H2    S    
O7    Zn1   S    
C25   C29   A    
C3    F2    S    
C10   O6    A    
C11   C14   S    
C13   C26   A    
C14   C29   A    
C28   H4    S    
C16   H3    S    
C15   C16   A    
C24   N8    T    
N1    Zn2   S    
C2    C23   A    
C11   O7    A    
C19   N4    T    
C21   N6    T    
C7    F6    S    
C18   N3    T    
C27   C28   A    
C5    C7    S    
C10   O5    A    
C21   C27   S    
C8    C9    S    
O5    Zn1   S    
C5    C18   S    
C4    O3    A    
C3    C5    D    
C25   C26   A    
C13   C30   A    
C1    O1    A    
C11   O8    A    
O8    Zn2   S    
C16   C17   A    
C1    C3    S    
O2    Zn2   S    
