data_mof_unit_38226.cif
_audit_creation_date              2012-12-11T14:11:02-0500
_audit_creation_method            fapswitch 2.2
_symmetry_space_group_name_H-M    P1
_symmetry_Int_Tables_number       1
_space_group_crystal_system       triclinic
_cell_length_a                    20.122464
_cell_length_b                    17.310321
_cell_length_c                    15.547884
_cell_angle_alpha                 90.024873
_cell_angle_beta                  51.752128
_cell_angle_gamma                 89.971616
_cell_volume                      4253.19213191

loop_
_atom_site_label
_atom_site_type_symbol
_atom_type_description
_atom_site_fract_x
_atom_site_fract_y
_atom_site_fract_z
_atom_type_partial_charge
C1    C     C_R   0.373378 0.196282 0.997488 0.137423
C2    C     C_3   0.697161 0.750707 0.437445 -0.208531
C3    C     C_3   0.869135 0.197287 0.414566 -0.184230
C4    C     C_3   0.213333 0.753756 0.567275 -0.188020
C5    C     C_3   0.725210 0.700539 0.576525 -0.224007
C6    C     C_3   0.197803 0.251203 0.436967 -0.209050
C7    C     C_3   0.369270 0.697518 0.414763 -0.184206
C8    C     C_3   0.713533 0.253989 0.567381 -0.187883
C9    C     C_2   0.205072 0.737317 0.068537 -0.074076
C10   C     C_2   0.762696 0.276251 0.977595 -0.093327
C11   C     C_2   0.794037 0.736886 0.932531 -0.071618
C12   C     C_R   0.638029 0.807900 0.986226 0.152280
C13   C     C_2   0.236552 0.275818 0.023540 -0.100901
C14   C     C_2   0.705110 0.237301 0.068487 -0.073934
C15   C     C_2   0.262657 0.776271 0.977648 -0.093296
C16   C     C_2   0.294078 0.236904 0.932478 -0.071594
C17   C     C_2   0.736498 0.775780 0.023608 -0.100923
C18   C     C_R   0.387149 0.804871 0.217147 -0.060369
C19   C     C_R   0.652868 0.168429 0.777436 -0.087772
C20   C     C_R   0.617320 0.806112 0.781331 -0.077687
C21   C     C_R   0.347004 0.168319 0.221972 -0.077726
C22   C     C_R   0.887186 0.304860 0.217129 -0.060362
C23   C     C_R   0.626555 0.196268 0.002548 0.149370
C24   C     C_R   0.152890 0.668401 0.777450 -0.087776
C25   C     C_R   0.117158 0.306049 0.781430 -0.077228
C26   C     C_R   0.846962 0.668267 0.221994 -0.078303
C27   C     C_R   0.347098 0.896567 0.923503 0.219372
C28   C     C_R   0.626486 0.113339 0.110518 0.250029
C29   C     C_R   0.652535 0.896381 0.077066 0.214781
C30   C     C_R   0.373229 0.113224 0.889756 0.240469
C31   C     C_R   0.847116 0.396557 0.923475 0.219205
C32   C     C_R   0.126463 0.613345 0.110542 0.250142
C33   C     C_R   0.152568 0.396404 0.077017 0.214742
C34   C     C_R   0.361202 0.808316 0.014929 0.174747
C35   C     C_R   0.873219 0.613223 0.889769 0.240530
C36   C     C_R   0.356153 0.078167 0.317041 -0.081676
C37   C     C_R   0.606787 0.896386 0.687606 -0.104837
C38   C     C_R   0.642535 0.078950 0.682392 -0.067940
C39   C     C_R   0.394168 0.896723 0.312123 -0.104593
C40   C     C_R   0.856147 0.578128 0.317032 -0.081308
C41   C     C_R   0.106641 0.396316 0.687683 -0.104908
C42   C     C_R   0.142566 0.578924 0.682403 -0.067912
C43   C     C_R   0.894238 0.396704 0.312086 -0.104353
C44   C     C_R   0.345404 0.183866 0.938415 -0.021680
C45   C     C_R   0.873362 0.696277 0.997510 0.137485
C46   C     C_R   0.681193 0.826742 0.024318 -0.023682
C47   C     C_R   0.654299 0.183983 0.061926 -0.022964
C48   C     C_R   0.317849 0.827287 0.977120 -0.031550
C49   C     C_R   0.845384 0.683859 0.938443 -0.021791
C50   C     C_R   0.181239 0.326771 0.024254 -0.023600
C51   C     C_R   0.154263 0.683997 0.061970 -0.023024
C52   C     C_R   0.817879 0.327271 0.977076 -0.031444
C53   C     C_R   0.368450 0.823076 0.315808 0.071035
C54   C     C_R   0.693050 0.136144 0.675145 0.073024
C55   C     C_R   0.636409 0.824054 0.682372 0.074511
C56   C     C_R   0.138053 0.307911 0.986197 0.152375
C57   C     C_R   0.305575 0.135394 0.323929 0.060287
C58   C     C_R   0.868556 0.323050 0.315753 0.071049
C59   C     C_R   0.193105 0.636096 0.675164 0.072934
C60   C     C_R   0.136109 0.323925 0.682547 0.074602
C61   C     C_R   0.805516 0.635304 0.323949 0.060083
C62   C     C_3   0.180064 0.153975 0.540560 0.275748
C63   C     C_3   0.741852 0.797002 0.473031 0.268767
C64   C     C_3   0.833147 0.221354 0.532354 0.272278
C65   C     C_3   0.248449 0.729080 0.451565 0.273765
C66   C     C_3   0.680753 0.653881 0.540797 0.275040
C67   C     C_R   0.126536 0.696275 0.002571 0.149339
C68   C     C_3   0.242248 0.296841 0.473418 0.269321
C69   C     C_3   0.332951 0.721698 0.532651 0.272315
C70   C     C_3   0.748331 0.229420 0.451775 0.273924
C71   C     C_3   0.627472 0.725573 0.557915 -0.172874
C72   C     C_3   0.293640 0.225603 0.458410 -0.184724
C73   C     C_3   0.295994 0.796338 0.523020 -0.204532
C74   C     C_3   0.785327 0.154722 0.460372 -0.199702
C75   C     C_3   0.127461 0.226109 0.557215 -0.173338
C76   C     C_3   0.793920 0.726192 0.457560 -0.184357
C77   C     C_3   0.796429 0.296222 0.522856 -0.204766
C78   C     C_R   0.861219 0.308308 0.014905 0.174703
C79   C     C_3   0.285689 0.654599 0.460301 -0.199496
C80   C     C_3   0.673541 0.771576 0.591178 0.028528
C81   C     C_3   0.248862 0.179808 0.422817 0.033412
C82   C     C_3   0.330573 0.771223 0.407489 0.021940
C83   C     C_3   0.750934 0.179643 0.575879 0.036574
C84   C     C_3   0.173287 0.271456 0.591351 0.028654
C85   C     C_3   0.748897 0.679750 0.422838 0.033366
C86   C     C_3   0.830671 0.271207 0.407430 0.021897
C87   C     C_3   0.250967 0.679624 0.575910 0.036587
C88   C     C_3   0.224272 0.199985 0.577169 -0.224417
H1    H     H_    0.384977 0.747909 0.191947 0.167498
H2    H     H_    0.601117 0.922805 0.629395 0.145271
H3    H     H_    0.652480 0.046274 0.616152 0.132999
H4    H     H_    0.398996 0.924313 0.370457 0.127382
H5    H     H_    0.845466 0.545737 0.383891 0.133878
H6    H     H_    0.101012 0.422758 0.629447 0.145079
H7    H     H_    0.152528 0.546241 0.616154 0.133058
H8    H     H_    0.899077 0.424299 0.370406 0.127378
H9    H     H_    0.558142 0.726823 0.602466 0.190743
H10   H     H_    0.362685 0.224998 0.416530 0.185941
H11   H     H_    0.300175 0.855070 0.548102 0.178293
H12   H     H_    0.675539 0.216802 0.795740 0.155047
H13   H     H_    0.780507 0.096193 0.435637 0.190194
H14   H     H_    0.058241 0.227834 0.601138 0.190831
H15   H     H_    0.863081 0.726036 0.415023 0.185833
H16   H     H_    0.801006 0.354813 0.547833 0.178466
H17   H     H_    0.281225 0.595923 0.435508 0.190151
H18   H     H_    0.235398 0.179656 0.635002 0.179029
H19   H     H_    0.685932 0.770103 0.379354 0.173980
H20   H     H_    0.934127 0.175910 0.349425 0.177506
H21   H     H_    0.148448 0.776243 0.630972 0.186598
H22   H     H_    0.736980 0.680673 0.633913 0.179000
H23   H     H_    0.621451 0.749676 0.805939 0.157593
H24   H     H_    0.187201 0.271061 0.378447 0.174055
H25   H     H_    0.434404 0.676336 0.349754 0.177340
H26   H     H_    0.648793 0.276674 0.631204 0.186675
H27   H     H_    0.200897 0.740560 0.141589 0.186580
H28   H     H_    0.769472 0.270586 0.902887 0.179131
H29   H     H_    0.797850 0.739988 0.859740 0.171525
H30   H     H_    0.230192 0.270432 0.097976 0.161631
H31   H     H_    0.700933 0.240549 0.141540 0.186539
H32   H     H_    0.269433 0.770608 0.902939 0.179288
H33   H     H_    0.297885 0.239992 0.859691 0.171577
H34   H     H_    0.324936 0.216903 0.203195 0.140304
H35   H     H_    0.730137 0.770384 0.098043 0.161623
H36   H     H_    0.884993 0.247903 0.191934 0.167452
H37   H     H_    0.175559 0.716772 0.795759 0.155165
H38   H     H_    0.121238 0.249624 0.806105 0.157379
H39   H     H_    0.824870 0.716857 0.203259 0.140631
H40   H     H_    0.345436 0.045768 0.383918 0.133622
I1    I     I_    0.403361 0.309132 0.017906 -0.266647
I2    I     I_    0.561322 0.109201 0.282191 -0.296100
I3    I     I_    0.681891 0.938527 0.177153 -0.270135
I4    I     I_    0.437705 0.109188 0.718166 -0.301512
I5    I     I_    0.818825 0.437801 0.821950 -0.275963
I6    I     I_    0.061265 0.609178 0.282220 -0.296250
I7    I     I_    0.181994 0.438592 0.177015 -0.270647
I8    I     I_    0.937692 0.609204 0.718179 -0.301765
I9    I     I_    0.131475 0.039442 0.591211 -0.296319
I10   I     I_    0.796909 0.908609 0.411052 -0.336840
I11   I     I_    0.898197 0.213420 0.600175 -0.387364
I12   I     I_    0.604671 0.692027 0.983231 -0.345395
I13   I     I_    0.175622 0.734109 0.394091 -0.288014
I14   I     I_    0.632953 0.539161 0.592044 -0.296807
I15   I     I_    0.298086 0.408274 0.412095 -0.337272
I16   I     I_    0.397796 0.714371 0.600853 -0.387691
I17   I     I_    0.675329 0.234913 0.394599 -0.287889
I18   I     I_    0.596711 0.309015 0.981590 -0.266292
I19   I     I_    0.393110 0.692266 0.019848 -0.297239
I20   I     I_    0.903295 0.809128 0.017999 -0.266448
I21   I     I_    0.104706 0.192026 0.983235 -0.345815
I22   I     I_    0.096689 0.809013 0.981593 -0.266560
I23   I     I_    0.893140 0.192264 0.019827 -0.297406
I24   I     I_    0.318790 0.937816 0.821997 -0.275766
N1    N     N_R   0.408680 0.130810 0.995780 -0.087222
N2    N     N_R   0.578590 0.132790 0.846380 -0.043810
N3    N     N_R   0.578590 0.867210 0.846380 -0.048306
N4    N     N_R   0.421410 0.132790 0.153620 -0.041898
N5    N     N_R   0.921410 0.367210 0.153620 -0.049956
N6    N     N_R   0.078590 0.632790 0.846380 -0.043814
N7    N     N_R   0.078590 0.367210 0.846380 -0.048352
N8    N     N_R   0.921410 0.632790 0.153620 -0.041869
N9    N     N_R   0.403840 0.921910 0.935760 -0.091712
N10   N     N_R   0.596160 0.078090 0.064240 -0.092614
N11   N     N_R   0.596160 0.921910 0.064240 -0.089949
N12   N     N_R   0.591320 0.869190 0.004220 -0.083211
N13   N     N_R   0.403840 0.078090 0.935760 -0.091717
N14   N     N_R   0.903840 0.421910 0.935760 -0.091688
N15   N     N_R   0.096160 0.578090 0.064240 -0.092613
N16   N     N_R   0.096160 0.421910 0.064240 -0.089929
N17   N     N_R   0.903840 0.578090 0.935760 -0.091706
N18   N     N_R   0.426250 0.076100 0.213650 -0.049518
N19   N     N_R   0.573750 0.923900 0.786350 -0.052651
N20   N     N_R   0.573750 0.076100 0.786350 -0.048874
N21   N     N_R   0.426250 0.923900 0.213650 -0.051958
N22   N     N_R   0.926250 0.576100 0.213650 -0.049569
N23   N     N_R   0.591320 0.130810 0.004220 -0.086464
N24   N     N_R   0.073750 0.423900 0.786350 -0.052622
N25   N     N_R   0.073750 0.576100 0.786350 -0.048874
N26   N     N_R   0.926250 0.423900 0.213650 -0.051991
N27   N     N_R   0.408680 0.869190 0.995780 -0.086146
N28   N     N_R   0.908680 0.630810 0.995780 -0.087209
N29   N     N_R   0.091320 0.369190 0.004220 -0.083205
N30   N     N_R   0.091320 0.630810 0.004220 -0.086458
N31   N     N_R   0.908680 0.369190 0.995780 -0.086135
N32   N     N_R   0.421410 0.867210 0.153620 -0.049970
Ni1   Ni    Ni4+2 0.500000 0.131570 0.000000 0.275127
Ni2   Ni    Ni4+2 0.500000 0.868430 0.000000 0.255997
Ni3   Ni    Ni4+2 0.000000 0.631570 0.000000 0.275106
Ni4   Ni    Ni4+2 0.000000 0.368430 0.000000 0.255958
Ni5   Ni    Ni4+2 0.488900 0.000000 0.862310 0.258458
Ni6   Ni    Ni4+2 0.511100 0.000000 0.137690 0.255246
Ni7   Ni    Ni4+2 0.988900 0.500000 0.862310 0.258406
Ni8   Ni    Ni4+2 0.011100 0.500000 0.137690 0.255234

loop_
_geom_bond_atom_site_label_1
_geom_bond_atom_site_label_2
_ccdc_geom_bond_type
C27   C48   A    
C32   I6    S    
C4    H21   S    
C28   C47   A    
C27   I24   S    
N25   Ni7   S    
C20   N3    A    
C36   N18   A    
C8    C83   S    
C64   C77   S    
C29   N11   A    
C62   C81   S    
N11   N12   A    
C9    C51   S    
N5    Ni4   S    
C74   C83   S    
C39   N21   A    
C10   C52   S    
N6    Ni3   S    
C66   C85   S    
C79   C87   S    
C13   H30   S    
C22   C58   A    
C28   N10   A    
C6    C75   S    
C43   N26   A    
N27   Ni2   S    
C72   H10   S    
C3    C64   S    
C69   I16   S    
N15   Ni8   S    
C71   H9    S    
N19   Ni5   S    
C37   H2    S    
C68   I15   S    
C65   C79   S    
C67   N30   A    
N6    N25   A    
C39   C53   A    
C78   N31   A    
C1    I1    S    
C4    C65   S    
C24   N6    A    
C75   C84   S    
N15   N30   A    
N23   Ni1   S    
C56   N29   A    
C42   N25   A    
C45   I20   S    
C2    H19   S    
C65   I13   S    
C15   H32   S    
C79   H17   S    
C2    C85   S    
N14   Ni7   S    
C21   H34   S    
C3    C74   S    
C70   C74   S    
C71   C80   S    
C18   C53   A    
C17   H35   S    
C5    H22   S    
C41   H6    S    
N21   N32   A    
C35   C49   A    
C75   H14   S    
N13   Ni5   S    
C12   I12   S    
C69   C73   S    
C25   C60   A    
C18   N32   A    
N9    N27   A    
C8    C77   S    
C40   H5    S    
N17   N28   A    
C72   C81   S    
C45   N28   A    
C8    H26   S    
C26   H39   S    
C76   H15   S    
C6    C68   S    
C6    C81   S    
C3    C86   S    
C30   C44   A    
C34   N27   A    
C36   H40   S    
N8    N22   A    
C15   C48   S    
C20   C55   A    
C52   C78   A    
C58   C86   S    
C54   C83   S    
C72   C88   S    
N29   Ni4   S    
C78   I23   S    
C63   C80   S    
N2    Ni1   S    
C23   C47   A    
C42   H7    S    
C68   C84   S    
C17   C46   S    
C30   N13   A    
N9    Ni5   S    
C36   C57   A    
C10   C14   D    
C31   I5    S    
C4    C87   S    
C25   N7    A    
N24   Ni7   S    
N10   N23   A    
C33   C50   A    
N4    Ni1   S    
C62   C88   S    
C38   H3    S    
C50   C56   A    
C40   C61   A    
C53   C82   S    
C9    H27   S    
N7    Ni4   S    
C35   I8    S    
C25   H38   S    
C64   C83   S    
C21   C57   A    
C11   C49   S    
N28   Ni3   S    
C12   N12   A    
C20   H23   S    
N26   Ni8   S    
C34   I19   S    
C33   I7    S    
C1    C44   A    
C66   C71   S    
C38   C54   A    
C31   N14   A    
C45   C49   A    
C68   C72   S    
C43   H8    S    
C88   H18   S    
N2    N20   A    
C70   I17   S    
C51   C67   A    
C5    C80   S    
C1    N1    A    
C4    C73   S    
C61   C85   S    
C74   H13   S    
C19   C54   A    
C12   C46   A    
C41   N24   A    
C77   C86   S    
C14   H31   S    
N7    N24   A    
C24   H37   S    
C35   N17   A    
C63   I10   S    
C57   C81   S    
C62   C75   S    
C13   C16   D    
C33   N16   A    
C34   C48   A    
N17   Ni7   S    
C2    C71   S    
C70   C86   S    
C39   H4    S    
N10   Ni6   S    
C10   H28   S    
C2    C63   S    
C7    C79   S    
C26   N8    A    
C32   C51   A    
C73   H11   S    
C16   H33   S    
C16   C44   S    
C11   C17   D    
N1    N13   A    
C18   H1    S    
C6    H24   S    
C26   C61   A    
N14   N31   A    
C84   C88   S    
C41   C60   A    
C5    C66   S    
N3    Ni2   S    
C69   C87   S    
C42   C59   A    
C37   N19   A    
C19   H12   S    
C22   H36   S    
C14   C47   S    
C66   I14   S    
C22   N5    A    
C3    H20   S    
N18   Ni6   S    
N12   Ni2   S    
N16   Ni8   S    
C31   C52   A    
C29   C46   A    
N20   Ni5   S    
N5    N26   A    
C7    H25   S    
C5    C76   S    
C7    C69   S    
C9    C15   D    
N31   Ni4   S    
C27   N9    A    
C40   N22   A    
C55   C80   S    
C60   C84   S    
C65   C82   S    
C29   I3    S    
N1    Ni1   S    
C24   C59   A    
C30   I4    S    
N4    N18   A    
C21   N4    A    
N32   Ni2   S    
C73   C82   S    
N11   Ni6   S    
C28   I2    S    
N30   Ni3   S    
C62   I9    S    
C59   C87   S    
C13   C50   S    
C37   C55   A    
N3    N19   A    
C7    C82   S    
C23   N23   A    
N16   N29   A    
C63   C76   S    
C32   N15   A    
C8    C70   S    
C23   I18   S    
C19   N2    A    
C43   C58   A    
C77   H16   S    
N8    Ni3   S    
C56   I21   S    
C76   C85   S    
C38   N20   A    
N21   Ni6   S    
N22   Ni8   S    
C67   I22   S    
C64   I11   S    
C11   H29   S    
