data_mof_unit_29520.cif
_audit_creation_date              2012-12-10T18:03:17-0500
_audit_creation_method            fapswitch 2.2
_symmetry_space_group_name_H-M    P1
_symmetry_Int_Tables_number       1
_space_group_crystal_system       triclinic
_cell_length_a                    10.790744
_cell_length_b                    9.493051
_cell_length_c                    15.21378
_cell_angle_alpha                 90.281328
_cell_angle_beta                  88.569338
_cell_angle_gamma                 90.484743
_cell_volume                      1557.89646338

loop_
_atom_site_label
_atom_site_type_symbol
_atom_type_description
_atom_site_fract_x
_atom_site_fract_y
_atom_site_fract_z
_atom_type_partial_charge
C1    C     C_R   0.262327 0.499552 0.500821 0.922544
C2    C     C_R   0.737749 0.500358 0.500530 0.925731
C3    C     C_R   0.499343 0.499791 0.329574 0.968583
C4    C     C_R   0.493359 0.500170 0.670577 0.954791
C5    C     C_R   0.408139 0.073178 0.460248 0.053651
C6    C     C_R   0.590895 0.926680 0.540947 0.058246
C7    C     C_R   0.591223 0.075594 0.540579 0.053169
C8    C     C_R   0.408764 0.924332 0.459469 0.053912
C9    C     C_R   0.061787 0.464247 0.578412 0.213544
C10   C     C_R   0.938799 0.532861 0.423372 0.221957
C11   C     C_R   0.932246 0.465870 0.578576 0.196047
C12   C     C_R   0.068091 0.534115 0.423597 0.198771
C13   C     C_R   0.533797 0.609631 0.090771 0.405383
C14   C     C_R   0.484717 0.378316 0.908468 0.380164
C15   C     C_R   0.421611 0.624014 0.905058 0.377956
C16   C     C_R   0.396618 0.404445 0.101308 0.440609
C17   C     C_R   0.538569 0.614093 0.182475 0.182634
C18   C     C_R   0.492974 0.375031 0.816657 0.186314
C19   C     C_R   0.437472 0.624602 0.813322 0.152868
C20   C     C_R   0.425547 0.390165 0.189682 0.153621
C21   C     C_R   0.489959 0.500079 0.232923 -0.294172
C22   C     C_R   0.475557 0.500257 0.767708 -0.280387
C23   C     C_R   0.457102 0.508401 0.049907 -0.164356
C24   C     C_R   0.449578 0.502578 0.953010 -0.138062
C25   C     C_R   0.871641 0.500620 0.501009 -0.243286
C26   C     C_R   0.128668 0.498841 0.500943 -0.237160
Cu1   Cu    Cu3+1 0.500000 0.640660 0.500000 1.054256
Cu2   Cu    Cu3+1 0.500000 0.359340 0.500000 1.051001
H1    H     H_    0.333925 0.128128 0.429089 0.165957
H2    H     H_    0.663288 0.871516 0.574183 0.143540
H3    H     H_    0.664058 0.132526 0.573420 0.167774
H4    H     H_    0.335983 0.867395 0.426564 0.161415
N1    N     N_R   0.500000 0.852070 0.500000 -0.174697
N2    N     N_R   0.500000 0.147930 0.500000 -0.179058
O1    O     O_R   0.319640 0.618740 0.499990 -0.575532
O2    O     O_R   0.680360 0.381260 0.500010 -0.579979
O3    O     O_R   0.680360 0.618740 0.500010 -0.573148
O4    O     O_R   0.319640 0.381260 0.499990 -0.575336
O5    O     O_R   0.499990 0.618780 0.371460 -0.537709
O6    O     O_R   0.500010 0.381220 0.628540 -0.533346
O7    O     O_R   0.500010 0.618780 0.628540 -0.555215
O8    O     O_R   0.499990 0.381220 0.371460 -0.553032
O9    O     O_3   0.594528 0.714865 0.043073 -0.531262
C27   C     C_3   0.698419 0.660640 0.995782 0.083836
H5    H     H_    0.713871 0.728234 0.937048 0.189064
H6    H     H_    0.684897 0.551655 0.970680 0.097003
C28   C     C_3   0.814201 0.665643 0.051540 -0.336439
H7    H     H_    0.825141 0.771731 0.081493 0.266661
H8    H     H_    0.803548 0.587980 0.105517 0.243604
C29   C     C_3   0.929719 0.631465 0.995797 -0.937820
H9    H     H_    0.922403 0.523794 0.967492 0.270459
H10   H     H_    0.012703 0.637695 0.037206 0.260100
H11   H     H_    0.941265 0.707868 0.941189 0.269481
O10   O     O_3   0.507483 0.256301 0.954797 -0.528977
C30   C     C_3   0.635418 0.245754 0.971316 0.054508
H12   H     H_    0.655603 0.299084 0.034694 0.137801
H13   H     H_    0.695425 0.293861 0.918378 0.150214
C31   C     C_3   0.667838 0.089760 0.977869 -0.203370
H14   H     H_    0.613328 0.040488 0.032747 0.270734
H15   H     H_    0.642961 0.035202 0.915899 0.264876
C32   C     C_3   0.805601 0.069415 0.992727 -0.935257
H16   H     H_    0.862526 0.133544 0.945790 0.269498
H17   H     H_    0.829346 0.957380 0.981831 0.268331
H18   H     H_    0.828114 0.098842 0.061185 0.273953
O11   O     O_3   0.397325 0.749580 0.948524 -0.532382
C33   C     C_3   0.268367 0.769203 0.958693 0.070816
H19   H     H_    0.234050 0.712636 0.018329 0.132044
H20   H     H_    0.216113 0.730790 0.900701 0.164451
C34   C     C_3   0.245147 0.926998 0.970649 -0.206187
H21   H     H_    0.287937 0.964354 0.032380 0.257180
H22   H     H_    0.289408 0.985380 0.914833 0.280788
C35   C     C_3   0.107278 0.960167 0.974086 -0.935876
H23   H     H_    0.062543 0.922230 0.913345 0.273147
H24   H     H_    0.094696 0.075831 0.978471 0.272932
H25   H     H_    0.061877 0.910293 0.032523 0.270193
O12   O     O_3   0.316123 0.308613 0.063458 -0.532972
C36   C     C_3   0.194828 0.364765 0.063088 0.064161
H26   H     H_    0.156639 0.344254 0.997053 0.172418
H27   H     H_    0.190799 0.481080 0.073790 0.118680
C37   C     C_3   0.112400 0.290582 0.132405 -0.293374
H28   H     H_    0.117334 0.174672 0.123048 0.245328
H29   H     H_    0.145293 0.316767 0.198949 0.278601
C38   C     C_3   0.978113 0.336935 0.128159 -0.890269
H30   H     H_    0.971680 0.449774 0.146361 0.306567
H31   H     H_    0.920131 0.275106 0.175623 0.284056
H32   H     H_    0.942408 0.320468 0.061129 0.243281
Br1   Br    Br    0.616152 0.778903 0.233071 -0.380252
Br2   Br    Br    0.531691 0.193210 0.764963 -0.407627
Br3   Br    Br    0.403677 0.801662 0.756122 -0.410815
Br4   Br    Br    0.376188 0.215308 0.245134 -0.470877
Br5   Br    Br    0.147705 0.419257 0.684415 -0.445227
Br6   Br    Br    0.853956 0.568182 0.316053 -0.480514
Br7   Br    Br    0.837876 0.423271 0.684831 -0.482534
Br8   Br    Br    0.162153 0.581802 0.318010 -0.512701

loop_
_geom_bond_atom_site_label_1
_geom_bond_atom_site_label_2
_ccdc_geom_bond_type
C33   H20   S    
C30   H12   S    
C3    O8    A    
C32   H18   S    
C14   C18   A    
C9    Br5   S    
C28   H8    S    
C36   H26   S    
Cu1   N1    S    
C15   C19   A    
C35   H25   S    
C33   C34   S    
C4    O7    A    
Cu2   O6    S    
C31   H15   S    
C15   O11   S    
C13   C23   A    
C34   H22   S    
C14   C24   A    
C32   H17   S    
C38   H30   S    
Cu1   O5    S    
C29   H10   S    
C23   C24   S    
C27   C28   S    
C11   Br7   S    
C31   C32   S    
C33   H19   S    
Cu2   N2    S    
C16   O12   S    
C12   Br8   S    
C32   H16   S    
C37   C38   S    
C27   H6    S    
C9    C26   A    
C28   C29   S    
C5    H1    S    
C36   H27   S    
C29   H11   S    
C7    H3    S    
C8    H4    S    
C4    O6    A    
C19   C22   A    
O12   C36   S    
C35   H24   S    
C37   H28   S    
Cu1   O1    S    
C31   H14   S    
C20   Br4   S    
C6    H2    S    
C17   C21   A    
C12   C26   A    
C34   C35   S    
O9    C27   S    
C19   Br3   S    
C4    C22   S    
Cu1   O7    S    
C28   H7    S    
Cu2   O4    S    
C16   C20   A    
C5    N2    A    
C29   H9    S    
C9    C11   A    
C10   C12   A    
C1    O4    A    
C10   Br6   S    
C10   C25   A    
C37   H29   S    
C15   C24   A    
C14   O10   S    
C16   C23   A    
C30   H13   S    
C1    C26   S    
C7    N2    A    
C3    C21   S    
C13   O9    S    
C27   H5    S    
C1    O1    A    
C36   C37   S    
C2    O2    A    
O10   C30   S    
C38   H31   S    
C18   C22   A    
C35   H23   S    
C5    C8    A    
C6    C7    A    
C6    N1    A    
C13   C17   A    
C2    O3    A    
Cu1   O3    S    
Cu2   O8    S    
C2    C25   S    
C8    N1    A    
C34   H21   S    
C18   Br2   S    
C17   Br1   S    
C3    O5    A    
C38   H32   S    
C20   C21   A    
Cu2   O2    S    
O11   C33   S    
C30   C31   S    
Cu1   Cu2   S    
C11   C25   A    
