data_mof_unit_31703.cif
_audit_creation_date              2012-12-11T16:31:30-0500
_audit_creation_method            fapswitch 2.2
_symmetry_space_group_name_H-M    P1
_symmetry_Int_Tables_number       1
_space_group_crystal_system       triclinic
_cell_length_a                    6.971324
_cell_length_b                    18.269489
_cell_length_c                    20.25247
_cell_angle_alpha                 68.324827
_cell_angle_beta                  90.868838
_cell_angle_gamma                 90.861102
_cell_volume                      2396.62397556

loop_
_atom_site_label
_atom_site_type_symbol
_atom_type_description
_atom_site_fract_x
_atom_site_fract_y
_atom_site_fract_z
_atom_type_partial_charge
O1    O     O_R   0.488990 0.443920 0.942160 -0.533123
O2    O     O_R   0.823840 0.406530 0.087600 -0.544688
O3    O     O_R   0.999650 0.556080 0.057840 -0.540899
C1    C     C_R   0.655485 0.383402 0.114829 0.678229
O4    O     O_R   0.818390 0.434590 0.944530 -0.533526
O5    O     O_R   0.994160 0.584350 0.913750 -0.534400
C2    C     C_R   0.648482 0.419780 0.924894 0.725375
O6    O     O_R   0.494480 0.415650 0.086250 -0.539437
O7    O     O_3   0.662600 0.549100 0.990070 -0.369020
V1    V     V_3+5 0.935320 0.490890 0.001840 1.444840
O8    O     O_R   0.324240 0.593470 0.912400 -0.531956
C3    C     C_R   0.155183 0.615602 0.884351 0.789524
O9    O     O_R   0.329690 0.565410 0.055470 -0.538709
C4    C     C_R   0.162518 0.579420 0.075879 0.705014
V2    V     V_3+5 0.435990 0.509110 0.998160 1.449416
O10   O     O_3   0.158840 0.450900 0.009930 -0.367545
C5    C     C_3   0.085039 0.653363 0.283539 -0.023701
C6    C     C_3   0.348340 0.743113 0.215663 -0.050311
C7    C     C_3   0.336115 0.791213 0.265916 -0.128325
H1    H     H_    0.205318 0.611399 0.304584 0.175930
H2    H     H_    0.446161 0.692116 0.240020 0.084196
H3    H     H_    0.370876 0.854230 0.234456 0.172188
C8    C     C_1   0.109180 0.874499 0.378911 -0.137581
C9    C     C_3   0.145059 0.709367 0.206783 0.196548
C10   C     C_3   0.054746 0.701843 0.332852 -0.191685
C11   C     C_3   0.127528 0.788941 0.294539 0.050941
C12   C     C_3   0.995588 0.826799 0.228324 -0.363874
C13   C     C_3   0.995059 0.778006 0.179260 0.079201
C14   C     C_1   0.115627 0.836190 0.341045 -0.001933
C15   C     C_1   0.152698 0.663036 0.159403 -0.011514
C16   C     C_1   0.157470 0.625147 0.121139 -0.190833
H4    H     H_    0.850706 0.750760 0.182193 0.128255
H5    H     H_    0.846302 0.830690 0.245104 0.177361
H6    H     H_    0.898203 0.705044 0.341200 0.135960
H7    H     H_    0.043413 0.888588 0.198722 0.171521
H8    H     H_    0.289177 0.538252 0.675884 0.196132
C17   C     C_R   0.078106 0.769915 0.880900 -0.150419
C18   C     C_R   0.042708 0.843430 0.883194 -0.118966
C19   C     C_R   0.033862 0.909036 0.820963 -0.117109
C20   C     C_R   0.059146 0.902460 0.754927 0.163062
C21   C     C_R   0.093693 0.827084 0.750694 0.072437
C22   C     C_R   0.104772 0.759806 0.815578 0.009309
C23   C     C_R   0.120899 0.816941 0.684829 -0.165086
C24   C     C_R   0.164622 0.741398 0.684488 0.009568
C25   C     C_R   0.175174 0.674036 0.749299 0.069802
C26   C     C_R   0.144553 0.683793 0.815197 -0.165750
C27   C     C_R   0.198447 0.732121 0.619201 -0.146391
C28   C     C_R   0.244555 0.659665 0.616959 -0.137510
C29   C     C_R   0.253162 0.594067 0.679003 -0.076893
C30   C     C_R   0.215751 0.599256 0.744850 0.177320
H9    H     H_    0.085366 0.721146 0.931422 0.095448
H10   H     H_    0.023137 0.849644 0.933781 0.141393
H11   H     H_    0.007397 0.966064 0.823856 0.159902
H12   H     H_    0.191397 0.780888 0.568689 0.099644
H13   H     H_    0.273009 0.654226 0.566593 0.147184
H14   H     H_    0.038534 0.445127 0.291001 0.149529
C31   C     C_R   0.451893 0.238939 0.129234 -0.140566
C32   C     C_R   0.350973 0.170690 0.133762 0.266822
C33   C     C_R   0.344681 0.107194 0.198581 -0.158862
C34   C     C_R   0.434737 0.112463 0.258488 -0.179640
C35   C     C_R   0.530906 0.182403 0.256088 0.079237
C36   C     C_R   0.541589 0.246571 0.189709 0.015086
C37   C     C_R   0.617995 0.188251 0.318101 -0.176544
C38   C     C_R   0.717528 0.259524 0.313224 -0.014890
C39   C     C_R   0.740883 0.320695 0.244892 0.074098
C40   C     C_R   0.646801 0.315584 0.184036 -0.161425
C41   C     C_R   0.794970 0.273600 0.373650 -0.004326
C42   C     C_R   0.918770 0.337963 0.364001 -0.090270
C43   C     C_R   0.949061 0.394070 0.297234 -0.168761
C44   C     C_R   0.854581 0.387797 0.239016 -0.140371
H15   H     H_    0.460297 0.285261 0.077305 0.126714
H16   H     H_    0.270691 0.053075 0.202874 0.117230
H17   H     H_    0.427901 0.060415 0.306385 0.136890
H18   H     H_    0.982407 0.348170 0.409049 0.166846
H19   H     H_    0.873263 0.436989 0.189635 0.133839
O11   O     O_R   0.770890 0.084490 0.414040 -0.531439
O12   O     O_R   0.445980 0.065450 0.555510 -0.542008
O13   O     O_R   0.270670 0.915620 0.586180 -0.541529
C45   C     C_R   0.614815 0.075700 0.579007 0.740279
O14   O     O_R   0.441480 0.093500 0.412450 -0.544718
O15   O     O_R   0.266140 0.943870 0.442100 -0.538340
C46   C     C_R   0.610303 0.117917 0.385938 0.669566
O16   O     O_R   0.775410 0.056240 0.558120 -0.517661
O17   O     O_3   0.602660 0.950990 0.510100 -0.371578
V3    V     V_3+5 0.329740 0.009100 0.498130 1.468927
O18   O     O_R   0.936120 0.934420 0.444240 -0.532670
C47   C     C_R   0.103479 0.920482 0.423937 0.697690
O19   O     O_R   0.940610 0.906370 0.587310 -0.536001
C48   C     C_R   0.109613 0.884781 0.615647 0.781014
V4    V     V_3+5 0.829110 0.990690 0.501470 1.500525
O20   O     O_3   0.106080 0.049010 0.489880 -0.357064
C49   C     C_3   0.839545 0.232765 0.720298 0.163385
C50   C     C_3   0.481933 0.271254 0.685314 -0.056734
C51   C     C_3   0.506228 0.331125 0.725523 -0.060730
H20   H     H_    0.903009 0.337796 0.749556 0.226325
H21   H     H_    0.339615 0.242687 0.699768 0.137630
C52   C     C_1   0.637717 0.372718 0.880948 -0.148079
C53   C     C_3   0.630250 0.201400 0.713354 0.099924
C54   C     C_3   0.834755 0.279005 0.772660 -0.320998
C55   C     C_3   0.627373 0.287657 0.795793 -0.013087
C56   C     C_3   0.542414 0.202101 0.836017 -0.191344
C57   C     C_3   0.569709 0.148573 0.791398 -0.223710
C58   C     C_1   0.632226 0.334016 0.843417 0.015096
C59   C     C_1   0.628289 0.154857 0.666010 -0.033502
C60   C     C_1   0.624035 0.118525 0.626530 -0.134446
H22   H     H_    0.685650 0.105620 0.816040 0.182146
H23   H     H_    0.922520 0.248660 0.821155 0.132421
H24   H     H_    0.386203 0.207731 0.843134 0.147188
C61   C     C_2   0.136769 0.662416 0.407388 0.356673
H25   H     H_    0.119739 0.690417 0.445713 0.063363
O21   O     O_2   0.217481 0.598983 0.426322 -0.530844
N1    N     N_3   0.914534 0.605463 0.282395 -0.678667
H26   H     H_    0.790674 0.639483 0.272300 0.218281
H27   H     H_    0.898928 0.561869 0.332995 0.260117
N2    N     N_3   0.051667 0.973475 0.693198 -0.668604
H28   H     H_    0.920851 0.000726 0.693042 0.221260
H29   H     H_    0.161564 0.011142 0.697282 0.217351
N3    N     N_3   0.217764 0.527529 0.805972 -0.662583
H30   H     H_    0.351139 0.501173 0.808570 0.241136
H31   H     H_    0.112956 0.489560 0.798684 0.246715
N4    N     N_3   0.259004 0.166465 0.071371 -0.596878
H32   H     H_    0.193868 0.111259 0.082841 0.241236
H33   H     H_    0.148835 0.207807 0.056812 0.216137
C62   C     C_2   0.729114 0.231631 0.446979 0.370959
H34   H     H_    0.584414 0.208110 0.456729 0.032449
O22   O     O_2   0.833301 0.226542 0.497461 -0.548450
N5    N     N_3   0.430281 0.791946 0.146903 -0.664337
H35   H     H_    0.558485 0.817367 0.155851 0.243552
H36   H     H_    0.467944 0.755506 0.119781 0.241960
C63   C     C_2   0.920015 0.281928 0.647373 0.356033
H37   H     H_    0.960166 0.252651 0.611874 0.118045
O23   O     O_2   0.939835 0.353249 0.626841 -0.511427
N6    N     N_3   0.470800 0.307716 0.607332 -0.654040
H38   H     H_    0.602437 0.330024 0.584745 0.258373
H39   H     H_    0.371182 0.353345 0.592464 0.279601
C64   C     C_2   0.601896 0.409582 0.680242 0.492502
H40   H     H_    0.618396 0.427133 0.623512 0.098667
O24   O     O_2   0.651448 0.457292 0.706611 -0.541840
C65   C     C_2   0.309549 0.352759 0.743492 0.310950
H41   H     H_    0.254176 0.327779 0.797045 0.042494
O25   O     O_2   0.209805 0.399125 0.697394 -0.514573
C66   C     C_2   0.396761 0.096209 0.795667 0.334878
H42   H     H_    0.326061 0.095646 0.747880 0.046247
O26   O     O_2   0.337869 0.052066 0.853308 -0.503145
C67   C     C_2   0.628904 0.162770 0.909571 0.479460
H43   H     H_    0.780337 0.148724 0.916202 0.052707
O27   O     O_2   0.528841 0.145833 0.962160 -0.499580
N7    N     N_3   0.967010 0.165003 0.752161 -0.704906
H44   H     H_    0.096939 0.184694 0.765861 0.222105
H45   H     H_    0.994811 0.137610 0.716198 0.210572
C68   C     C_2   0.483886 0.763299 0.325174 0.280351
H46   H     H_    0.505042 0.700872 0.354339 0.095182
O28   O     O_2   0.580643 0.810773 0.340976 -0.538048
N8    N     N_3   0.019279 0.830349 0.104667 -0.652269
H47   H     H_    0.030090 0.797594 0.072172 0.236134
H48   H     H_    0.141427 0.865898 0.098236 0.293073

loop_
_geom_bond_atom_site_label_1
_geom_bond_atom_site_label_2
_ccdc_geom_bond_type
C28   H13   S    
C45   O16   A    
C56   C57   S    
C49   N7    S    
C6    H2    S    
C21   C22   A    
C63   O23   D    
C4    C16   S    
C1    O6    A    
C41   C62   S    
N1    H27   S    
C67   H43   S    
V3    O20   S    
C49   C53   S    
C31   C36   A    
C19   H11   S    
C25   C26   A    
C12   H5    S    
H14   C43   S    
C56   C67   S    
C11   C12   S    
C23   C48   S    
C6    C9    S    
C8    C14   T    
C17   C18   A    
N7    H45   S    
C50   N6    S    
C61   O21   D    
O5    C3    A    
C15   C16   T    
C17   H9    S    
H20   C54   S    
C20   N2    S    
C18   H10   S    
C42   H18   S    
V2    O10   S    
C34   H17   S    
C5    H1    S    
C45   C60   S    
C6    C7    S    
C22   C26   A    
C17   C22   A    
C35   C37   A    
C7    C11   S    
N3    H30   S    
C59   C60   T    
O1    C2    A    
O8    V2    S    
C54   C55   S    
C42   C43   A    
N2    H29   S    
C51   C64   S    
C68   H46   S    
O1    V2    S    
O7    V1    S    
N8    H48   S    
C24   C27   A    
C10   C61   S    
C10   H6    S    
C56   H24   S    
O12   V3    S    
C33   C34   A    
C8    C47   S    
O9    C4    A    
C13   N8    S    
C51   C65   S    
C21   C23   A    
C35   C36   A    
O17   V4    S    
N1    H26   S    
C67   O27   D    
N3    H31   S    
O12   C45   A    
O13   C48   A    
C5    C9    S    
C66   H42   S    
C36   C40   A    
C37   C46   S    
C41   C42   A    
C38   C41   A    
C13   H4    S    
C7    H3    S    
O17   V3    S    
C3    C26   S    
O18   V4    S    
O11   C46   A    
C19   C20   A    
O4    C2    A    
O18   C47   A    
C12   H7    S    
C10   C11   S    
C53   C57   S    
C55   C58   S    
C34   C35   A    
O2    C1    A    
C23   C24   A    
N5    H36   S    
O14   V3    S    
C6    N5    S    
C7    C68   S    
C27   C28   A    
C51   C55   S    
C65   H41   S    
N8    H47   S    
C50   C51   S    
O15   C47   A    
C31   H15   S    
N4    H32   S    
C52   C58   T    
O3    C4    A    
C27   H12   S    
O13   V3    S    
O14   C46   A    
C28   C29   A    
O19   V4    S    
C29   C30   A    
C50   H21   S    
O9    V2    S    
N6    H38   S    
C66   O26   D    
N5    H35   S    
O2    V1    S    
C5    N1    S    
C12   C13   S    
C24   C25   A    
C64   O24   D    
C62   O22   D    
O16   V4    S    
C20   C21   A    
C32   N4    S    
C2    C52   S    
C30   N3    S    
C9    C13   S    
C64   H40   S    
O5    V1    S    
O8    C3    A    
O6    V2    S    
C54   H23   S    
C33   H16   S    
C5    C10   S    
C38   C39   A    
C63   H37   S    
C32   C33   A    
O4    V1    S    
O3    V1    S    
V1    O10   S    
C61   H25   S    
C1    C40   S    
C65   O25   D    
V4    O20   S    
C18   C19   A    
C25   C30   A    
C53   C59   S    
C55   C56   S    
C57   H22   S    
N7    H44   S    
C68   O28   D    
O7    V2    S    
C43   C44   A    
C9    C15   S    
N4    H33   S    
C37   C38   A    
O19   C48   A    
C11   C14   S    
C39   C40   A    
C44   H19   S    
N6    H39   S    
C49   C63   S    
C57   C66   S    
N2    H28   S    
C31   C32   A    
C50   C53   S    
O15   V3    S    
H8    C29   S    
C39   C44   A    
C49   C54   S    
O11   V4    S    
C62   H34   S    
