data_mof_unit_61231.cif
_audit_creation_date              2012-12-10T20:29:22-0500
_audit_creation_method            fapswitch 2.2
_symmetry_space_group_name_H-M    P1
_symmetry_Int_Tables_number       1
_space_group_crystal_system       triclinic
_cell_length_a                    18.789053
_cell_length_b                    18.593219
_cell_length_c                    18.992258
_cell_angle_alpha                 109.750778
_cell_angle_beta                  110.215752
_cell_angle_gamma                 109.106878
_cell_volume                      5065.19746821

loop_
_atom_site_label
_atom_site_type_symbol
_atom_type_description
_atom_site_fract_x
_atom_site_fract_y
_atom_site_fract_z
_atom_type_partial_charge
C1    C     C_R   0.379904 0.500303 0.380191 0.909752
C2    C     C_R   0.782713 0.889058 0.832668 -0.062785
C3    C     C_R   0.331521 0.271347 0.845325 -0.197897
C4    C     C_R   0.074455 0.312039 0.832339 -0.064944
C5    C     C_R   0.995897 0.311743 0.812791 -0.029509
C6    C     C_R   0.918966 0.249139 0.731492 0.163508
C7    C     C_R   0.923048 0.187999 0.668978 -0.161891
C8    C     C_R   0.001873 0.187784 0.688047 -0.071232
C9    C     C_R   0.078516 0.249533 0.771302 0.100574
C10   C     C_R   0.780404 0.210082 0.736194 0.657956
C11   C     C_R   0.700129 0.207904 0.712380 -0.403464
C12   C     C_R   0.673395 0.242761 0.660272 0.530602
C13   C     C_R   0.817413 0.830023 0.575122 -0.176133
C14   C     C_R   0.727017 0.280018 0.631895 0.611602
C15   C     C_R   0.807639 0.282966 0.656111 -0.391564
C16   C     C_R   0.835019 0.248468 0.708762 -0.173442
C17   C     C_R   0.811687 0.812133 0.495583 -0.137300
C18   C     C_R   0.740122 0.735708 0.417197 -0.027748
C19   C     C_R   0.679419 0.673361 0.421609 0.630806
C20   C     C_R   0.685135 0.690540 0.501789 -0.217034
C21   C     C_R   0.752701 0.772093 0.579501 0.010361
C22   C     C_R   0.696878 0.765884 0.294509 -0.112074
C23   C     C_R   0.679004 0.746755 0.210509 -0.276009
C24   C     C_R   0.688460 0.679518 0.160707 0.584434
C25   C     C_R   0.620360 0.621543 0.501076 1.021547
C26   C     C_R   0.715397 0.630987 0.194792 0.634418
C27   C     C_R   0.733340 0.650133 0.278959 -0.230045
C28   C     C_R   0.726113 0.718987 0.330115 0.008642
C29   C     C_R   0.475348 0.800789 0.523168 0.563574
C30   C     C_R   0.405667 0.714653 0.461039 0.607586
C31   C     C_R   0.403264 0.665964 0.384378 -0.318795
C32   C     C_R   0.471311 0.704956 0.370363 0.147495
C33   C     C_R   0.541281 0.791105 0.433522 0.568086
C34   C     C_R   0.542729 0.839019 0.509169 -0.456069
C35   C     C_R   0.261203 0.575316 0.248548 -0.120982
C36   C     C_R   0.620123 0.499940 0.619932 0.956037
C37   C     C_R   0.185332 0.495269 0.182750 -0.112684
C38   C     C_R   0.170495 0.415564 0.182524 0.165627
C39   C     C_R   0.235068 0.417783 0.249058 0.233781
C40   C     C_R   0.312157 0.499153 0.314543 -0.129907
C41   C     C_R   0.324704 0.578447 0.315428 0.154954
C42   C     C_R   0.019256 0.293851 0.125749 0.139347
C43   C     C_R   0.940990 0.215982 0.057064 0.469896
C44   C     C_R   0.930890 0.174792 0.974927 0.435383
C45   C     C_R   0.999064 0.210616 0.961060 0.483239
C46   C     C_R   0.078185 0.287371 0.029554 0.426979
C47   C     C_R   0.377072 0.379642 0.497133 0.896944
C48   C     C_R   0.088784 0.330070 0.112309 -0.246848
C49   C     C_R   0.318633 0.567692 0.670437 0.248286
C50   C     C_R   0.313827 0.484998 0.639839 0.311956
C51   C     C_R   0.256846 0.419744 0.550478 -0.021882
C52   C     C_R   0.205958 0.438310 0.493154 -0.198792
C53   C     C_R   0.211000 0.520639 0.524453 0.356046
C54   C     C_R   0.267069 0.584876 0.612643 -0.197461
C55   C     C_R   0.184525 0.264344 0.515254 0.247387
C56   C     C_R   0.186202 0.185524 0.499690 -0.152715
C57   C     C_R   0.250123 0.172037 0.484311 0.004066
C58   C     C_R   0.705132 0.860341 0.758909 -0.100273
C59   C     C_R   0.307897 0.234811 0.478223 -0.179911
C60   C     C_R   0.308514 0.313806 0.495453 -0.100680
C61   C     C_R   0.248790 0.331014 0.517558 0.023487
C62   C     C_R   0.332956 0.113268 0.555541 -0.191126
C63   C     C_R   0.367984 0.057285 0.549386 -0.172499
C64   C     C_R   0.335410 0.985482 0.468339 0.721681
C65   C     C_R   0.265482 0.967801 0.393617 0.228967
C66   C     C_R   0.230541 0.024185 0.399544 -0.286660
C67   C     C_R   0.265171 0.098096 0.480483 0.061637
C68   C     C_R   0.801349 0.583727 0.658887 0.566144
C69   C     C_R   0.694201 0.819796 0.676258 -0.106831
C70   C     C_R   0.883651 0.609807 0.667053 0.157044
C71   C     C_R   0.935779 0.578808 0.704226 0.172433
C72   C     C_R   0.909489 0.530501 0.742032 0.561729
C73   C     C_R   0.832794 0.516634 0.746822 -0.130922
C74   C     C_R   0.773439 0.533403 0.695366 -0.069544
C75   C     C_R   0.689322 0.502593 0.685398 0.053619
C76   C     C_R   0.667746 0.466084 0.732988 -0.136018
C77   C     C_R   0.729937 0.460776 0.792431 -0.164643
C78   C     C_R   0.812868 0.487401 0.801301 -0.079637
C79   C     C_R   0.998441 0.877502 0.379825 0.917509
C80   C     C_R   0.758595 0.802906 0.665712 0.110780
C81   C     C_R   0.879428 0.877228 0.496717 0.885960
C82   C     C_R   0.001532 0.121783 0.620581 0.905749
C83   C     C_R   0.120294 0.118270 0.498525 0.926599
C84   C     C_R   0.997310 0.379284 0.878264 0.879872
C85   C     C_R   0.119991 0.497763 0.118012 0.916018
C86   C     C_R   0.999658 0.620598 0.118544 0.929772
C87   C     C_R   0.879651 0.494563 0.874773 0.854535
C88   C     C_R   0.098318 0.740222 0.537883 0.268611
C89   C     C_R   0.099619 0.773311 0.481444 0.256825
C90   C     C_R   0.023684 0.731831 0.399163 -0.158270
C91   C     C_R   0.836765 0.832533 0.740712 -0.074285
C92   C     C_R   0.948269 0.656736 0.374432 0.536912
C93   C     C_R   0.947747 0.624107 0.430641 0.244785
C94   C     C_R   0.022931 0.665292 0.511588 -0.265971
C95   C     C_R   0.032937 0.694648 0.267024 0.296071
C96   C     C_R   0.003637 0.688545 0.185778 -0.194815
C97   C     C_R   0.974357 0.744072 0.167916 -0.010858
C98   C     C_R   0.976342 0.807947 0.233782 0.610602
C99   C     C_R   0.000012 0.811270 0.314078 -0.293569
C100  C     C_R   0.025298 0.751746 0.329941 0.032924
C101  C     C_R   0.984722 0.757920 0.043714 0.556280
C102  C     C_R   0.849265 0.876815 0.823757 0.368682
C103  C     C_R   0.944257 0.745294 0.959964 0.514823
C104  C     C_R   0.853387 0.709425 0.912698 0.483213
C105  C     C_R   0.802383 0.682567 0.947431 -0.286620
C106  C     C_R   0.842245 0.692805 0.030038 -0.237637
C107  C     C_R   0.933680 0.731149 0.079103 -0.115217
C108  C     C_R   0.267945 0.206253 0.845263 -0.156002
C109  C     C_R   0.185501 0.198714 0.821870 0.358733
C110  C     C_R   0.165356 0.255712 0.795660 -0.071655
C111  C     C_R   0.231325 0.323354 0.798942 0.263319
C112  C     C_R   0.313607 0.330237 0.823191 -0.110051
H1    H     H_    0.792123 0.923142 0.896772 0.202874
H2    H     H_    0.751333 0.610574 0.304042 0.252820
H3    H     H_    0.596567 0.905784 0.557391 0.247393
H4    H     H_    0.270249 0.636202 0.248889 0.197289
H5    H     H_    0.654554 0.872046 0.765921 0.205712
H6    H     H_    0.270599 0.648429 0.636353 0.237560
H7    H     H_    0.162012 0.388626 0.424684 0.220576
H8    H     H_    0.636081 0.802941 0.620592 0.148204
H9    H     H_    0.356827 0.224267 0.465610 0.194114
H10   H     H_    0.362191 0.171522 0.618006 0.189118
H11   H     H_    0.421720 0.070728 0.607240 0.212055
H12   H     H_    0.180163 0.013331 0.340838 0.220897
H13   H     H_    0.602890 0.442821 0.724883 0.162163
H14   H     H_    0.889541 0.825031 0.734885 0.207830
H15   H     H_    0.713440 0.437245 0.832706 0.190643
H16   H     H_    0.023398 0.637950 0.553628 0.259800
H17   H     H_    0.731952 0.653997 0.910453 0.240719
H18   H     H_    0.802071 0.671504 0.056228 0.270101
H19   H     H_    0.395355 0.277129 0.864006 0.198434
H20   H     H_    0.283097 0.161943 0.864186 0.195451
H21   H     H_    0.364381 0.382113 0.826121 0.222474
H22   H     H_    0.870822 0.892085 0.633749 0.185766
H23   H     H_    0.133133 0.361732 0.895486 0.196931
H24   H     H_    0.864212 0.139796 0.605587 0.175625
H25   H     H_    0.658278 0.178543 0.733788 0.233311
H26   H     H_    0.848652 0.311802 0.633688 0.256660
H27   H     H_    0.687369 0.816826 0.331526 0.247192
H28   H     H_    0.656890 0.783481 0.183724 0.221656
O1    O     O_R   0.408360 0.551710 0.460090 -0.622213
O2    O     O_R   0.948280 0.908380 0.356650 -0.561676
O3    O     O_R   0.960110 0.908350 0.551690 -0.600728
O4    O     O_R   0.856660 0.908370 0.448270 -0.631137
O5    O     O_R   0.051720 0.091580 0.643310 -0.616446
O6    O     O_R   0.948270 0.091600 0.539890 -0.600383
O7    O     O_R   0.143340 0.091590 0.551680 -0.620409
O8    O     O_R   0.039890 0.091610 0.448270 -0.564979
O9    O     O_R   0.051710 0.460040 0.908380 -0.561099
O10   O     O_R   0.948270 0.356620 0.908410 -0.619765
O11   O     O_R   0.143330 0.551680 0.091590 -0.607135
O12   O     O_R   0.408390 0.448280 0.356670 -0.567087
O13   O     O_R   0.039890 0.448260 0.091620 -0.618600
O14   O     O_R   0.051700 0.643310 0.091570 -0.562990
O15   O     O_R   0.948260 0.539890 0.091600 -0.570741
O16   O     O_R   0.960080 0.551670 0.908360 -0.562416
O17   O     O_R   0.856640 0.448250 0.908390 -0.643590
O18   O     O_R   0.591600 0.643340 0.551710 -0.663088
O19   O     O_R   0.591630 0.539900 0.448290 -0.528172
O20   O     O_R   0.591610 0.551720 0.643330 -0.588478
O21   O     O_R   0.591640 0.448290 0.539910 -0.583320
O22   O     O_R   0.408370 0.460100 0.551710 -0.626005
O23   O     O_R   0.408400 0.356660 0.448290 -0.604947
O24   O     O_R   0.051730 0.908360 0.460070 -0.614806
Zn1   Zn    Zn3+2 0.499980 0.569070 0.569050 1.052540
Zn2   Zn    Zn3+2 0.500020 0.430930 0.430950 1.172669
Zn3   Zn    Zn3+2 0.069080 0.999960 0.569030 1.056648
Zn4   Zn    Zn3+2 0.930920 0.999990 0.430930 1.098597
Zn5   Zn    Zn3+2 0.069060 0.569020 0.999970 1.193644
Zn6   Zn    Zn3+2 0.930920 0.430910 0.000010 1.098119
F1    F     F_    0.669484 0.660135 0.078644 -0.615447
F2    F     F_    0.722630 0.564343 0.145702 -0.563739
F3    F     F_    0.477323 0.847675 0.596877 -0.561944
F4    F     F_    0.339447 0.679245 0.474489 -0.567847
Br1   Br    Br    0.468186 0.643749 0.264189 -0.317913
F5    F     F_    0.607366 0.829282 0.421156 -0.636818
Br2   Br    Br    0.216005 0.309952 0.251616 -0.406821
Br3   Br    Br    0.027347 0.350870 0.235494 -0.252730
F6    F     F_    0.873855 0.180945 0.069438 -0.530605
F7    F     F_    0.854393 0.100387 0.908276 -0.541531
F8    F     F_    0.987538 0.171472 0.880498 -0.551050
F9    F     F_    0.144262 0.320856 0.015352 -0.617748
Br4   Br    Br    0.394729 0.659186 0.790573 -0.271748
Br5   Br    Br    0.387976 0.462671 0.718632 -0.434358
Br6   Br    Br    0.140518 0.545978 0.447871 -0.275363
Br7   Br    Br    0.098635 0.284459 0.539912 -0.390011
F10   F     F_    0.370988 0.932428 0.462833 -0.590152
Br8   Br    Br    0.221358 0.869781 0.283015 -0.293431
F11   F     F_    0.752420 0.614197 0.621673 -0.662972
Br9   Br    Br    0.922690 0.689337 0.628201 -0.394632
Br10  Br    Br    0.044027 0.602791 0.706064 -0.239189
F12   F     F_    0.956114 0.492928 0.768577 -0.621147
Br11  Br    Br    0.199325 0.792235 0.649838 -0.275229
Br12  Br    Br    0.206685 0.869182 0.514185 -0.351970
F13   F     F_    0.878324 0.610432 0.292230 -0.607410
Br13  Br    Br    0.846195 0.519887 0.395089 -0.269129
Br14  Br    Br    0.080449 0.621930 0.290985 -0.323740
F14   F     F_    0.953052 0.865439 0.218232 -0.615015
Br15  Br    Br    0.959772 0.927329 0.925234 -0.278315
F15   F     F_    0.073359 0.797294 0.090455 -0.552511
F16   F     F_    0.993383 0.768672 0.924953 -0.554174
F17   F     F_    0.814759 0.701948 0.833768 -0.634895
Br16  Br    Br    0.103236 0.109759 0.827190 -0.306866
Br17  Br    Br    0.213283 0.410356 0.775080 -0.355455
F18   F     F_    0.804407 0.174001 0.784998 -0.574130
F19   F     F_    0.595263 0.239979 0.636965 -0.629070
F20   F     F_    0.700910 0.313279 0.580827 -0.611414
F21   F     F_    0.612225 0.597099 0.346662 -0.612145

loop_
_geom_bond_atom_site_label_1
_geom_bond_atom_site_label_2
_ccdc_geom_bond_type
C78   C87   S    
C59   H9    S    
C102  Br15  S    
C55   C56   A    
C101  C107  A    
C93   C94   A    
C91   H14   S    
C63   H11   S    
C73   C74   A    
C95   C96   A    
C51   C61   S    
C79   O24   A    
C86   O15   A    
C92   F13   S    
C44   F7    S    
C103  F16   S    
C97   C98   A    
C101  F15   S    
C45   F8    S    
C7    C8    A    
C77   C78   A    
C56   C57   A    
C43   F6    S    
C26   C27   A    
C37   C38   A    
C62   C67   A    
O4    Zn4   S    
C3    H19   S    
C37   C85   S    
C35   C37   A    
C10   F18   S    
C24   C26   A    
C36   O21   A    
C88   C89   A    
C5    C6    A    
C2    H1    S    
C57   C59   A    
C79   O2    A    
C106  C107  A    
C2    C102  A    
C68   C74   A    
C15   C16   A    
C55   C61   A    
O16   Zn5   S    
C108  C109  A    
C25   O18   A    
C1    O12   A    
C18   C19   A    
C13   H22   S    
C55   Br7   S    
C24   F1    S    
C33   F5    S    
C53   Br6   S    
C110  C111  A    
C1    C40   S    
C39   Br2   S    
C47   C60   S    
C49   Br4   S    
C47   O22   A    
C81   O4    A    
C19   C20   A    
C8    C9    A    
O13   Zn6   S    
C25   O19   A    
C23   C24   A    
C70   C71   A    
C112  H21   S    
C38   C48   S    
O21   Zn2   S    
C77   H15   S    
C87   O17   A    
C95   Br14  S    
C15   H26   S    
C47   O23   A    
C84   O9    A    
C66   C67   A    
C65   Br8   S    
C26   F2    S    
C59   C60   A    
C101  C103  A    
C22   C28   A    
C14   F20   S    
C76   H13   S    
C57   C67   S    
C90   C100  S    
C104  C105  A    
C82   O6    A    
C50   C51   A    
C88   C94   A    
C38   C39   A    
C32   Br1   S    
C46   C48   A    
C74   C75   A    
C98   F14   S    
C51   C52   A    
C23   H28   S    
C109  Br16  S    
O23   Zn2   S    
C18   C28   S    
C76   C77   A    
C39   C40   A    
C5    C84   S    
C95   C100  A    
C4    C5    A    
C42   C48   A    
C34   H3    S    
C45   C46   A    
C6    C16   S    
C29   C34   A    
C58   H5    S    
C52   H7    S    
C83   O8    A    
O14   Zn5   S    
C60   C61   A    
C104  F17   S    
C75   C76   A    
C85   O11   A    
C29   C30   A    
C36   C75   S    
O17   Zn6   S    
O22   Zn1   S    
C90   C92   A    
C31   C32   A    
C81   O3    A    
C3    C112  A    
C73   C78   A    
C72   F12   S    
C96   C97   A    
C62   C63   A    
C17   C18   A    
C13   C21   A    
C35   H4    S    
C85   O13   A    
O20   Zn1   S    
C86   C96   S    
O3    Zn3   S    
O7    Zn3   S    
C4    H23   S    
C83   O7    A    
C40   C41   A    
C12   C14   A    
C65   C66   A    
C54   H6    S    
C43   C44   A    
C105  H17   S    
C19   F21   S    
O8    Zn4   S    
C66   H12   S    
O9    Zn5   S    
C93   Br13  S    
C42   C43   A    
C91   C102  A    
C89   C90   A    
C62   H10   S    
C82   O5    A    
C52   C53   A    
C70   Br9   S    
C56   C83   S    
O5    Zn3   S    
C79   C99   S    
C9    C110  S    
C106  H18   S    
O6    Zn4   S    
C31   C41   S    
C111  C112  A    
C14   C15   A    
C88   Br11  S    
O24   Zn3   S    
C50   Br5   S    
C44   C45   A    
C29   F3    S    
C72   C73   A    
C111  Br17  S    
O12   Zn2   S    
C11   C12   A    
C2    C58   A    
C58   C69   A    
C53   C54   A    
C6    C7    A    
C94   H16   S    
C3    C108  A    
C105  C106  A    
C69   H8    S    
O1    Zn1   S    
O11   Zn5   S    
O19   Zn2   S    
C13   C17   A    
C32   C33   A    
C46   F9    S    
C80   C91   A    
C49   C50   A    
C11   H25   S    
C7    H24   S    
C10   C16   A    
C99   C100  A    
C64   C65   A    
C30   C31   A    
O10   Zn6   S    
C68   F11   S    
C42   Br3   S    
C89   Br12  S    
C22   H27   S    
C21   C80   S    
C92   C93   A    
C33   C34   A    
C17   C81   S    
C86   O14   A    
C35   C41   A    
C108  H20   S    
C64   F10   S    
C1    O1    A    
C10   C11   A    
C36   O20   A    
O2    Zn4   S    
C63   C64   A    
C97   C107  S    
C27   H2    S    
O15   Zn6   S    
C8    C82   S    
C71   C72   A    
C20   C21   A    
C68   C70   A    
C98   C99   A    
C20   C25   S    
C103  C104  A    
C22   C23   A    
C69   C80   A    
C71   Br10  S    
C4    C9    A    
C109  C110  A    
C87   O16   A    
C30   F4    S    
C49   C54   A    
O18   Zn1   S    
C12   F19   S    
C27   C28   A    
C84   O10   A    
