data_mof_unit_55167.cif
_audit_creation_date              2013-03-05T16:24:09-0500
_audit_creation_method            fapswitch 2.2
_symmetry_space_group_name_H-M    P1
_symmetry_Int_Tables_number       1
_space_group_crystal_system       triclinic
_cell_length_a                    28.970439
_cell_length_b                    18.347932
_cell_length_c                    21.84327
_cell_angle_alpha                 90.285949
_cell_angle_beta                  140.730953
_cell_angle_gamma                 89.654775
_cell_volume                      7349.0304681

loop_
_atom_site_label
_atom_site_type_symbol
_atom_site_description
_atom_site_fract_x
_atom_site_fract_y
_atom_site_fract_z
_atom_type_partial_charge
O1    O     O_R   0.894200 0.438770 0.894190 -0.584045
O2    O     O_R   0.105800 0.561230 0.105810 -0.550396
O3    O     O_R   0.105800 0.438770 0.105810 -0.600316
O4    O     O_R   0.894200 0.561230 0.894190 -0.555845
O5    O     O_R   0.394200 0.938770 0.894190 -0.584072
O6    O     O_R   0.605800 0.061230 0.105810 -0.550373
O7    O     O_R   0.605800 0.938770 0.105810 -0.600322
O8    O     O_R   0.394200 0.061230 0.894190 -0.555839
C1    C     C_R   0.860317 0.500012 0.863574 0.917373
C2    C     C_R   0.139846 0.499854 0.138394 0.911741
C3    C     C_R   0.360317 0.000012 0.863573 0.917338
C4    C     C_R   0.639846 0.999854 0.138397 0.911701
O9    O     O_R   0.999990 0.438770 0.909810 -0.574594
O10   O     O_R   0.000010 0.561230 0.090190 -0.585969
O11   O     O_R   0.000010 0.438770 0.090190 -0.586766
O12   O     O_R   0.999990 0.561230 0.909810 -0.591226
O13   O     O_R   0.499990 0.938770 0.909810 -0.574594
O14   O     O_R   0.500010 0.061230 0.090190 -0.585967
O15   O     O_R   0.500010 0.938770 0.090190 -0.586767
O16   O     O_R   0.499990 0.061230 0.909810 -0.591217
C5    C     C_R   0.996752 0.499626 0.877712 0.862702
C6    C     C_R   0.002629 0.499892 0.121778 0.850460
C7    C     C_R   0.496751 0.999626 0.877711 0.862691
C8    C     C_R   0.502625 0.999892 0.121774 0.850429
Cu1   Cu    Cu3+1 0.000000 0.427490 0.000000 0.992087
Cu2   Cu    Cu3+1 0.000000 0.572510 0.000000 1.045002
Cu3   Cu    Cu3+1 0.500000 0.927490 0.000000 0.992061
Cu4   Cu    Cu3+1 0.500000 0.072510 0.000000 1.045056
C9    C     C_R   0.874554 0.565331 0.677675 0.253410
C10   C     C_R   0.110682 0.585020 0.309815 0.260307
C11   C     C_R   0.374553 0.065330 0.677672 0.253425
C12   C     C_R   0.610618 0.085089 0.309738 0.260347
C13   C     C_R   0.830653 0.614890 0.599782 0.224598
C14   C     C_R   0.144781 0.640201 0.379946 0.221400
C15   C     C_R   0.330649 0.114883 0.599770 0.224617
C16   C     C_R   0.644663 0.140314 0.379798 0.221469
C17   C     C_R   0.855709 0.643819 0.570283 -0.245783
C18   C     C_R   0.113219 0.663973 0.402930 -0.213134
C19   C     C_R   0.355704 0.143809 0.570269 -0.245785
C20   C     C_R   0.613117 0.164044 0.402813 -0.213002
C21   C     C_R   0.919824 0.615157 0.608977 0.287040
C22   C     C_R   0.051000 0.627753 0.361778 0.248534
C23   C     C_R   0.419825 0.115154 0.608976 0.287017
C24   C     C_R   0.550928 0.127783 0.361703 0.248391
C25   C     C_R   0.955378 0.554397 0.672916 -0.066508
C26   C     C_R   0.030957 0.560590 0.313806 -0.063990
C27   C     C_R   0.455379 0.054395 0.672916 -0.066491
C28   C     C_R   0.530920 0.060608 0.313769 -0.063963
C29   C     C_R   0.941264 0.539361 0.720527 -0.115500
C30   C     C_R   0.048803 0.548294 0.270359 -0.109261
C31   C     C_R   0.441264 0.039360 0.720526 -0.115498
C32   C     C_R   0.548769 0.048322 0.270323 -0.109208
C33   C     C_R   0.993837 0.497889 0.807558 -0.074956
C34   C     C_R   0.004736 0.498641 0.191259 -0.079378
C35   C     C_R   0.493837 0.997888 0.807558 -0.074963
C36   C     C_R   0.504732 0.998642 0.191255 -0.079361
C37   C     C_R   0.047942 0.457720 0.831351 -0.066159
C38   C     C_R   0.957882 0.450105 0.174586 -0.063993
C39   C     C_R   0.547941 0.957718 0.831350 -0.066152
C40   C     C_R   0.457904 0.950082 0.174611 -0.063985
C41   C     C_R   0.049605 0.458886 0.768959 -0.065687
C42   C     C_R   0.957171 0.449973 0.238067 -0.063119
C43   C     C_R   0.549605 0.958884 0.768959 -0.065685
C44   C     C_R   0.457199 0.949948 0.238097 -0.063117
C45   C     C_R   0.003947 0.507738 0.690164 -0.074690
C46   C     C_R   0.994050 0.505322 0.308123 -0.054063
C47   C     C_R   0.503947 0.007736 0.690165 -0.074677
C48   C     C_R   0.494048 0.005319 0.308122 -0.054044
C49   C     C_1   0.782684 0.499959 0.786790 -0.100844
C50   C     C_1   0.217394 0.499654 0.215228 -0.100033
C51   C     C_1   0.282684 0.999957 0.786788 -0.100851
C52   C     C_1   0.717394 0.999654 0.215230 -0.100096
C53   C     C_1   0.717300 0.500026 0.720419 -0.164768
C54   C     C_1   0.282730 0.499747 0.280575 -0.161307
C55   C     C_1   0.217300 0.000023 0.720418 -0.164708
C56   C     C_1   0.782730 0.999747 0.280576 -0.161351
O17   O     O_R   0.061240 0.605830 0.561270 -0.613269
O18   O     O_R   0.938760 0.394170 0.438730 -0.580282
O19   O     O_R   0.938760 0.605830 0.438730 -0.540899
O20   O     O_R   0.061240 0.394170 0.561270 -0.578911
O21   O     O_R   0.561240 0.105830 0.561270 -0.613360
O22   O     O_R   0.438760 0.894170 0.438730 -0.580300
O23   O     O_R   0.438760 0.105830 0.438730 -0.540857
O24   O     O_R   0.561240 0.894170 0.561270 -0.578901
C57   C     C_R   0.000036 0.639911 0.498566 0.961331
C58   C     C_R   0.000114 0.360056 0.500269 0.848957
C59   C     C_R   0.500036 0.139911 0.498563 0.961237
C60   C     C_R   0.500114 0.860055 0.500270 0.848970
O25   O     O_R   0.061260 0.500000 0.651450 -0.575207
O26   O     O_R   0.938740 0.500000 0.348550 -0.563440
O27   O     O_R   0.561260 0.000000 0.651450 -0.575190
O28   O     O_R   0.438740 0.000000 0.348550 -0.563417
O29   O     O_R   0.938780 0.500000 0.528960 -0.590498
O30   O     O_R   0.061220 0.500000 0.471040 -0.607541
O31   O     O_R   0.438780 1.000000 0.528960 -0.590513
O32   O     O_R   0.561220 1.000000 0.471040 -0.607530
C61   C     C_R   0.001136 0.503301 0.620123 0.861323
C62   C     C_R   0.998556 0.501938 0.379642 0.842652
C63   C     C_R   0.501136 0.003299 0.620123 0.861326
C64   C     C_R   0.498556 0.001938 0.379642 0.842645
Cu5   Cu    Cu3+1 0.072520 0.500000 0.572540 0.986007
Cu6   Cu    Cu3+1 0.927480 0.500000 0.427460 1.028125
Cu7   Cu    Cu3+1 0.572520 1.000000 0.572540 0.986019
Cu8   Cu    Cu3+1 0.427480 1.000000 0.427460 1.028105
O33   O     O_R   0.500010 0.605810 0.447830 -0.583119
O34   O     O_R   0.499990 0.394190 0.552170 -0.577792
O35   O     O_R   0.499990 0.605810 0.552170 -0.577910
O36   O     O_R   0.500010 0.394190 0.447830 -0.560508
O37   O     O_R   0.000010 0.105810 0.447830 -0.583086
O38   O     O_R   0.999990 0.894190 0.552170 -0.577799
O39   O     O_R   0.999990 0.105810 0.552170 -0.577921
O40   O     O_R   0.000010 0.894190 0.447830 -0.560547
C65   C     C_R   0.500104 0.639640 0.500243 0.837483
C66   C     C_R   0.500285 0.360382 0.500134 0.810050
C67   C     C_R   0.000104 0.139640 0.500243 0.837505
C68   C     C_R   0.000284 0.860382 0.500133 0.810046
O41   O     O_R   0.605800 0.500000 0.553630 -0.546828
O42   O     O_R   0.394200 0.500000 0.446370 -0.551160
O43   O     O_R   0.105800 1.000000 0.553630 -0.546860
O44   O     O_R   0.894200 0.000000 0.446370 -0.551230
O45   O     O_R   0.605820 0.500000 0.658030 -0.603115
O46   O     O_R   0.394180 0.500000 0.341970 -0.606190
O47   O     O_R   0.105820 1.000000 0.658030 -0.603099
O48   O     O_R   0.894180 0.000000 0.341970 -0.606171
C69   C     C_R   0.639677 0.499972 0.640604 0.823016
C70   C     C_R   0.360334 0.499897 0.359542 0.827983
C71   C     C_R   0.139677 0.999971 0.640604 0.823038
C72   C     C_R   0.860334 0.999897 0.359542 0.827994
Cu9   Cu    Cu3+1 0.500000 0.500000 0.438200 1.007427
Cu10  Cu    Cu3+1 0.500000 0.500000 0.561800 0.999138
Cu11  Cu    Cu3+1 0.000000 1.000000 0.438200 1.007384
Cu12  Cu    Cu3+1 0.000000 1.000000 0.561800 0.999071
C73   C     C_1   0.000501 0.717541 0.499196 0.014122
C74   C     C_1   0.000322 0.282523 0.500727 -0.157354
C75   C     C_1   0.500502 0.217541 0.499192 0.013966
C76   C     C_1   0.500321 0.782523 0.500727 -0.157324
C77   C     C_1   0.500554 0.282871 0.499913 -0.080782
C78   C     C_1   0.500286 0.717196 0.500718 -0.182269
C79   C     C_1   0.000553 0.782871 0.499914 -0.080788
C80   C     C_1   0.000286 0.217196 0.500718 -0.182267
C81   C     C_R   0.102597 0.412915 0.920618 0.120453
C82   C     C_R   0.088602 0.339222 0.918412 -0.076744
C83   C     C_R   0.141353 0.296387 0.001600 -0.136389
C84   C     C_R   0.208561 0.326602 0.086823 -0.082921
C85   C     C_R   0.223046 0.399716 0.088977 -0.134978
C86   C     C_R   0.170064 0.443029 0.006360 -0.191147
H1    H     H_    0.037032 0.315158 0.852329 0.135510
H2    H     H_    0.130333 0.239659 0.999827 0.131388
H3    H     H_    0.249538 0.293295 0.151030 0.147430
H4    H     H_    0.275405 0.422776 0.154640 0.150816
H5    H     H_    0.181849 0.499586 0.008677 0.128204
C87   C     C_R   0.908569 0.399753 0.090458 0.133903
C88   C     C_R   0.928878 0.326775 0.101516 -0.080648
C89   C     C_R   0.881862 0.279429 0.022257 -0.138355
C90   C     C_R   0.814329 0.304546 0.931897 -0.093608
C91   C     C_R   0.793677 0.377033 0.920698 -0.126834
C92   C     C_R   0.840705 0.424684 0.999640 -0.179317
H6    H     H_    0.981046 0.306835 0.171279 0.129803
H7    H     H_    0.897727 0.223249 0.030902 0.128079
H8    H     H_    0.777945 0.267826 0.870619 0.124327
H9    H     H_    0.741223 0.396263 0.850824 0.136354
H10   H     H_    0.824274 0.480781 0.990244 0.122925
C93   C     C_R   0.602593 0.912909 0.920614 0.120460
C94   C     C_R   0.588592 0.839216 0.918399 -0.076744
C95   C     C_R   0.641339 0.796376 0.001584 -0.136396
C96   C     C_R   0.708547 0.826587 0.086813 -0.082937
C97   C     C_R   0.723037 0.899702 0.088975 -0.134965
C98   C     C_R   0.670060 0.943018 0.006361 -0.191125
H11   H     H_    0.537022 0.815155 0.852312 0.135508
H12   H     H_    0.630316 0.739648 0.999804 0.131380
H13   H     H_    0.749521 0.793277 0.151017 0.147408
H14   H     H_    0.775396 0.922757 0.154642 0.150805
H15   H     H_    0.681848 0.999575 0.008685 0.128202
C99   C     C_R   0.408607 0.899713 0.090501 0.133927
C100  C     C_R   0.428938 0.826741 0.101582 -0.080639
C101  C     C_R   0.381940 0.779382 0.022334 -0.138394
C102  C     C_R   0.314405 0.804483 0.931963 -0.093641
C103  C     C_R   0.293733 0.876964 0.920740 -0.126782
C104  C     C_R   0.340741 0.924627 0.999670 -0.179275
H16   H     H_    0.481110 0.806815 0.171353 0.129796
H17   H     H_    0.397822 0.723208 0.030997 0.128071
H18   H     H_    0.278037 0.767754 0.870694 0.124320
H19   H     H_    0.241278 0.896182 0.850856 0.136326
H20   H     H_    0.324294 0.980719 0.990256 0.122906
N1    N     N_R   0.846686 0.536549 0.705055 0.117838
O49   O     O_R   0.812340 0.579691 0.707475 -0.323525
O50   O     O_R   0.840639 0.466348 0.705203 -0.402320
N2    N     N_R   0.146287 0.559101 0.291948 0.131142
O51   O     O_R   0.175155 0.605115 0.283570 -0.303731
O52   O     O_R   0.161771 0.490128 0.302311 -0.418374
N3    N     N_R   0.346686 0.036553 0.705055 0.117851
O53   O     O_R   0.312345 0.079699 0.707478 -0.323532
O54   O     O_R   0.340632 0.966352 0.705197 -0.402205
N4    N     N_R   0.646273 0.059142 0.291952 0.131069
O55   O     O_R   0.675162 0.105130 0.283586 -0.303547
O56   O     O_R   0.661758 0.990165 0.302347 -0.418436
N5    N     N_R   0.759671 0.635002 0.549338 0.166464
O57   O     O_R   0.709596 0.585578 0.504510 -0.323435
O58   O     O_R   0.744849 0.702531 0.547843 -0.345124
N6    N     N_R   0.213735 0.668995 0.431843 0.162924
O59   O     O_R   0.271722 0.628035 0.493364 -0.311806
O60   O     O_R   0.217062 0.732464 0.409163 -0.341738
N7    N     N_R   0.259663 0.134987 0.549319 0.166467
O61   O     O_R   0.209597 0.085556 0.504506 -0.323367
O62   O     O_R   0.244830 0.202515 0.547807 -0.345142
N8    N     N_R   0.713554 0.169214 0.431596 0.162853
O63   O     O_R   0.771701 0.128516 0.493693 -0.312163
O64   O     O_R   0.716689 0.232427 0.408273 -0.341413
C105  C     C_R   0.812353 0.701918 0.495952 0.245688
C106  C     C_R   0.830063 0.775566 0.523379 -0.040959
C107  C     C_R   0.790010 0.830116 0.452750 -0.100077
C108  C     C_R   0.732060 0.811436 0.354693 -0.085321
C109  C     C_R   0.713818 0.738230 0.327076 -0.159406
C110  C     C_R   0.753763 0.683516 0.397416 -0.062542
H21   H     H_    0.875129 0.790472 0.599159 0.134494
H22   H     H_    0.804029 0.886835 0.473981 0.173307
H23   H     H_    0.701339 0.853605 0.300073 0.180448
H24   H     H_    0.668901 0.723882 0.251146 0.134172
H25   H     H_    0.739527 0.626923 0.375329 0.130019
C111  C     C_R   0.150100 0.720536 0.478264 0.211649
C112  C     C_R   0.153861 0.793060 0.462053 -0.042804
C113  C     C_R   0.187148 0.846162 0.532826 -0.077086
C114  C     C_R   0.216402 0.827307 0.619738 -0.078476
C115  C     C_R   0.212074 0.755485 0.635883 -0.172393
C116  C     C_R   0.178966 0.702220 0.565425 -0.100962
H26   H     H_    0.130145 0.808587 0.394268 0.156094
H27   H     H_    0.189985 0.901992 0.520149 0.187131
H28   H     H_    0.242302 0.868303 0.674518 0.162773
H29   H     H_    0.234336 0.741104 0.702974 0.133809
H30   H     H_    0.175675 0.646763 0.578581 0.137839
C117  C     C_R   0.312337 0.201893 0.495919 0.245680
C118  C     C_R   0.330005 0.275548 0.523321 -0.040949
C119  C     C_R   0.289941 0.330085 0.452674 -0.100055
C120  C     C_R   0.232024 0.311384 0.354623 -0.085351
C121  C     C_R   0.213825 0.238170 0.327029 -0.159408
C122  C     C_R   0.253780 0.183470 0.397387 -0.062544
H31   H     H_    0.375045 0.290471 0.599098 0.134499
H32   H     H_    0.303927 0.386810 0.473887 0.173381
H33   H     H_    0.201295 0.353543 0.299989 0.180447
H34   H     H_    0.168934 0.223805 0.251102 0.134173
H35   H     H_    0.239578 0.126871 0.375318 0.130008
C123  C     C_R   0.649970 0.220641 0.478105 0.211600
C124  C     C_R   0.653881 0.293116 0.461946 -0.043652
C125  C     C_R   0.687172 0.346246 0.532692 -0.077021
C126  C     C_R   0.716285 0.327468 0.619527 -0.078231
C127  C     C_R   0.711809 0.255698 0.635621 -0.172603
C128  C     C_R   0.678697 0.202405 0.565191 -0.100667
H36   H     H_    0.630277 0.308588 0.394219 0.156259
H37   H     H_    0.690124 0.402037 0.520053 0.187174
H38   H     H_    0.742193 0.368482 0.674289 0.162847
H39   H     H_    0.733964 0.241377 0.702655 0.133801
H40   H     H_    0.675302 0.146987 0.578315 0.137886
N9    N     N_R   0.954246 0.653228 0.594705 0.102613
O65   O     O_R   0.024871 0.660167 0.666602 -0.404704
O66   O     O_R   0.915752 0.691737 0.517207 -0.405110
N10   N     N_R   0.000662 0.665118 0.350860 0.095620
O67   O     O_R   0.934631 0.640624 0.289741 -0.379768
O68   O     O_R   0.011957 0.732700 0.377838 -0.391664
N11   N     N_R   0.454255 0.153231 0.594719 0.102635
O69   O     O_R   0.524882 0.160158 0.666620 -0.404677
O70   O     O_R   0.415771 0.191758 0.517236 -0.405085
N12   N     N_R   0.500567 0.165127 0.350756 0.095587
O71   O     O_R   0.434559 0.140581 0.289682 -0.379728
O72   O     O_R   0.511804 0.232731 0.377637 -0.391514
C129  C     C_R   0.097838 0.406924 0.785259 0.123740
C130  C     C_R   0.069792 0.340584 0.734749 -0.166279
C131  C     C_R   0.115376 0.290982 0.751223 -0.119062
C132  C     C_R   0.188950 0.307490 0.817765 -0.088104
C133  C     C_R   0.217133 0.373536 0.868220 -0.130343
C134  C     C_R   0.171790 0.423187 0.852202 -0.083581
H41   H     H_    0.012866 0.327323 0.683102 0.138767
H42   H     H_    0.093703 0.239731 0.712483 0.145986
H43   H     H_    0.224131 0.269066 0.830326 0.136744
H44   H     H_    0.274132 0.386201 0.919835 0.133116
H45   H     H_    0.194090 0.474158 0.891722 0.124205
C135  C     C_R   0.917144 0.392117 0.229987 0.106943
C136  C     C_R   0.953028 0.327372 0.282992 -0.174344
C137  C     C_R   0.914655 0.271558 0.272490 -0.129887
C138  C     C_R   0.840657 0.280470 0.210078 -0.094227
C139  C     C_R   0.804722 0.345004 0.157316 -0.126318
C140  C     C_R   0.842717 0.400658 0.166812 -0.081136
H46   H     H_    0.010329 0.319939 0.331415 0.148818
H47   H     H_    0.942263 0.221367 0.312649 0.159802
H48   H     H_    0.811134 0.237286 0.202368 0.135660
H49   H     H_    0.747356 0.351739 0.108707 0.133590
H50   H     H_    0.814340 0.450201 0.124996 0.132153
C141  C     C_R   0.597838 0.906921 0.785259 0.123732
C142  C     C_R   0.569791 0.840582 0.734746 -0.166283
C143  C     C_R   0.615375 0.790980 0.751222 -0.119067
C144  C     C_R   0.688949 0.807486 0.817767 -0.088109
C145  C     C_R   0.717133 0.873531 0.868224 -0.130344
C146  C     C_R   0.671790 0.923182 0.852205 -0.083584
H51   H     H_    0.512864 0.827322 0.683097 0.138776
H52   H     H_    0.593701 0.739729 0.712480 0.145986
H53   H     H_    0.724131 0.769061 0.830328 0.136741
H54   H     H_    0.774133 0.886194 0.919842 0.133115
H55   H     H_    0.694091 0.974153 0.891727 0.124207
C147  C     C_R   0.417207 0.892071 0.230055 0.106880
C148  C     C_R   0.453120 0.827331 0.283059 -0.174350
C149  C     C_R   0.414778 0.771493 0.272587 -0.129916
C150  C     C_R   0.340785 0.780377 0.210210 -0.094263
C151  C     C_R   0.304822 0.844907 0.157450 -0.126298
C152  C     C_R   0.342784 0.900583 0.166913 -0.081134
H56   H     H_    0.510416 0.819919 0.331455 0.148859
H57   H     H_    0.442408 0.721306 0.312744 0.159859
H58   H     H_    0.311287 0.737175 0.202525 0.135645
H59   H     H_    0.247459 0.851620 0.108868 0.133583
H60   H     H_    0.314385 0.950123 0.125098 0.132172

loop_
_geom_bond_atom_site_label_1
_geom_bond_atom_site_label_2
_geom_bond_distance
_ccdc_geom_bond_type
N4    O56   1.301079 A    
C126  H38   1.080835 S    
C35   C39   1.413780 A    
C40   C99   1.485069 S    
O17   Cu5   1.952023 S    
C145  C146  1.398208 A    
C141  C146  1.403515 A    
C85   C86   1.398187 A    
C128  H40   1.083296 S    
N7    O62   1.301116 A    
O31   C63   1.289412 A    
C83   C84   1.397976 A    
C9    C13   1.410756 A    
C125  C126  1.397772 A    
C75   C77   1.198686 T    
C66   C77   1.422136 S    
N5    O58   1.301114 A    
C139  H49   1.082232 S    
O35   C65   1.297944 A    
O20   C58   1.286340 A    
C58   C74   1.422595 S    
C114  C115  1.397043 A    
C50   C54   1.198701 T    
O19   Cu6   1.953495 S    
C117  C122  1.403802 A    
C43   C141  1.485013 S    
C126  C127  1.397031 A    
C146  H55   1.083005 S    
O7    C4    1.286049 A    
C38   C87   1.485067 S    
C152  H60   1.083077 S    
N3    O53   1.300359 A    
C10   C14   1.414584 A    
N8    O63   1.300819 A    
O16   Cu4   1.979636 S    
C150  C151  1.398240 A    
C129  C134  1.403516 A    
C131  H42   1.082169 S    
C100  C101  1.398301 A    
O9    C5    1.285246 A    
O2    Cu2   1.951323 S    
C42   C135  1.482810 S    
O10   Cu2   1.981690 S    
C7    C35   1.468176 S    
C89   C90   1.398179 A    
C12   N4    1.434628 S    
C73   C79   1.198688 T    
O5    C3    1.284983 A    
O8    Cu4   1.952795 S    
C147  C148  1.402716 A    
O38   C68   1.297970 A    
O19   C57   1.289700 A    
C149  C150  1.397782 A    
C140  H50   1.083081 S    
O34   Cu10  1.951692 S    
C87   C92   1.403297 A    
O25   Cu5   1.986954 S    
O24   C60   1.286340 A    
O27   Cu7   1.986954 S    
C84   C85   1.397674 A    
N11   O70   1.299208 A    
O33   Cu9   1.951691 S    
C37   C41   1.400737 A    
C143  H52   1.082168 S    
C8    C36   1.471247 S    
C39   C43   1.400742 A    
C116  H30   1.083297 S    
C40   C44   1.402633 A    
C115  H29   1.082421 S    
O6    C4    1.286551 A    
C113  H27   1.082511 S    
C29   C33   1.424788 A    
C145  H54   1.082244 S    
C31   C35   1.424791 A    
O40   Cu11  1.953777 S    
O28   Cu8   1.986954 S    
C41   C45   1.411194 A    
C28   C32   1.405369 A    
C108  C109  1.397922 A    
N6    O60   1.300718 A    
C124  H36   1.082688 S    
C90   C91   1.397740 A    
O22   Cu8   1.952025 S    
C23   C27   1.424298 A    
C92   H10   1.083061 S    
C24   C28   1.416830 A    
C149  H57   1.081708 S    
C136  H46   1.083083 S    
O12   C5    1.292084 A    
O47   Cu12  1.959328 S    
C121  H34   1.082356 S    
O45   Cu10  1.959328 S    
C103  C104  1.398475 A    
C6    C34   1.471245 S    
C9    C29   1.424991 A    
O13   C7    1.285245 A    
C133  H44   1.082244 S    
O14   C8    1.293864 A    
C12   C16   1.414550 A    
O33   C65   1.297747 A    
C130  H41   1.083082 S    
N9    O65   1.301831 A    
N1    O50   1.301312 A    
C106  H21   1.083021 S    
C21   N9    1.439261 S    
N2    O52   1.301080 A    
C88   H6    1.083074 S    
C99   C100  1.403963 A    
O26   Cu6   1.986954 S    
O5    Cu3   1.951325 S    
C12   C32   1.423742 A    
N10   O68   1.300358 A    
O43   Cu11  1.945746 S    
C13   N5    1.437216 S    
O41   Cu9   1.945746 S    
C119  C120  1.398403 A    
C85   H4    1.081700 S    
C107  H22   1.082437 S    
O17   C57   1.282880 A    
C136  C137  1.397768 A    
C111  C112  1.405038 A    
C143  C144  1.397840 A    
C127  H39   1.082420 S    
C83   H2    1.082236 S    
C125  H37   1.082509 S    
C42   C46   1.407343 A    
O13   Cu3   1.981690 S    
O14   Cu4   1.981690 S    
C139  C140  1.398324 A    
Cu1   Cu2   2.660819 S    
C122  H35   1.083116 S    
C48   C64   1.465056 S    
O45   C69   1.298094 A    
C112  C113  1.398969 A    
C14   N6    1.433580 S    
O47   C71   1.298098 A    
O16   C7    1.292086 A    
C121  C122  1.398572 A    
C17   C105  1.481089 S    
C34   C38   1.419191 A    
C105  C106  1.404444 A    
C132  C133  1.398236 A    
C49   C53   1.199073 T    
C91   H9    1.082108 S    
C137  H47   1.081715 S    
C25   C45   1.422158 A    
C118  H31   1.083033 S    
O29   C61   1.289411 A    
O40   C68   1.297333 A    
Cu9   Cu10  2.699828 S    
O21   Cu7   1.952023 S    
C127  C128  1.397972 A    
C21   C25   1.424303 A    
C82   C83   1.398245 A    
C134  H45   1.083003 S    
C11   C31   1.424989 A    
C131  C132  1.397841 A    
N12   O71   1.301417 A    
C47   C63   1.469649 S    
O10   C6    1.293864 A    
C93   C98   1.402820 A    
C89   H7    1.082242 S    
O22   C60   1.285908 A    
O32   C64   1.292610 A    
C9    N1    1.429780 S    
C55   C71   1.423389 S    
C147  C152  1.403201 A    
C17   C21   1.415211 A    
N5    O57   1.301207 A    
C4    C52   1.423307 S    
C39   C93   1.484873 S    
C100  H16   1.083074 S    
C86   H5    1.083021 S    
C20   C24   1.413650 A    
C135  C136  1.402722 A    
C137  C138  1.397784 A    
O27   C63   1.288214 A    
O4    C1    1.289092 A    
O41   C69   1.298262 A    
O43   C71   1.298258 A    
C38   C42   1.402632 A    
O23   C59   1.289701 A    
Cu5   Cu6   2.660955 S    
O18   Cu6   1.952025 S    
C115  C116  1.397978 A    
C16   N8    1.433491 S    
C109  C110  1.398573 A    
C30   C34   1.424090 A    
C94   C95   1.398246 A    
C1    C49   1.425016 S    
C26   C46   1.411810 A    
C24   N12   1.450757 S    
C3    C51   1.425016 S    
C108  H23   1.082118 S    
O30   C62   1.292611 A    
C124  C125  1.398964 A    
C11   N3    1.429779 S    
O7    Cu3   1.952793 S    
C144  C145  1.398236 A    
C22   C26   1.416828 A    
O36   C66   1.297324 A    
O11   C6    1.285196 A    
O37   Cu11  1.951691 S    
C138  C139  1.398243 A    
O38   Cu12  1.951692 S    
O46   Cu9   1.959333 S    
C103  H19   1.082110 S    
C52   C56   1.198700 T    
O48   C72   1.300608 A    
C68   C79   1.422134 S    
N4    O55   1.301017 A    
C10   C30   1.423744 A    
O44   Cu12  1.945749 S    
C133  C134  1.398209 A    
O35   Cu10  1.953775 S    
C82   H1    1.083081 S    
O12   Cu2   1.979636 S    
C101  H17   1.082240 S    
C59   C75   1.424401 S    
O3    Cu1   1.952793 S    
O1    C1    1.284986 A    
C60   C76   1.422595 S    
C97   C98   1.398189 A    
C33   C37   1.413779 A    
C27   C31   1.409792 A    
C151  H59   1.082231 S    
C13   C17   1.398606 A    
C36   C40   1.419188 A    
C10   N2    1.434582 S    
C15   C19   1.398614 A    
C119  H32   1.082445 S    
N3    O54   1.301312 A    
O42   Cu10  1.945749 S    
C141  C142  1.403404 A    
C25   C29   1.409793 A    
C109  H24   1.082346 S    
C123  C124  1.405039 A    
C138  H48   1.082351 S    
C28   C48   1.411813 A    
C102  H18   1.082394 S    
O21   C59   1.282879 A    
C81   C86   1.402819 A    
C2    C50   1.423310 S    
C56   C72   1.423126 S    
C11   C15   1.410759 A    
C120  C121  1.397932 A    
Cu11  Cu12  2.699828 S    
C44   C48   1.407340 A    
C95   H12   1.082234 S    
O29   Cu6   1.974553 S    
O4    Cu2   1.952795 S    
O44   C72   1.295567 A    
C97   H14   1.081700 S    
C105  C110  1.403792 A    
C37   C81   1.484871 S    
O15   C8    1.285196 A    
C46   C62   1.465069 S    
N1    O49   1.300355 A    
C150  H58   1.082352 S    
C112  H26   1.082698 S    
C118  C119  1.399254 A    
O11   Cu1   1.979636 S    
C104  H20   1.083062 S    
C67   C80   1.422981 S    
C102  C103  1.397739 A    
O32   Cu7   1.974554 S    
Cu7   Cu8   2.660955 S    
C65   C78   1.422981 S    
C57   C73   1.424401 S    
C5    C33   1.468174 S    
N7    O61   1.301207 A    
C95   C96   1.397976 A    
O6    Cu4   1.951323 S    
C93   C94   1.403799 A    
C148  C149  1.397763 A    
C23   N11   1.439275 S    
O34   C66   1.297981 A    
C91   C92   1.398476 A    
C18   C22   1.413666 A    
C110  H25   1.083110 S    
C74   C80   1.198623 T    
C53   C69   1.423389 S    
C135  C140  1.403202 A    
C107  C108  1.398395 A    
O30   Cu5   1.974554 S    
N6    O59   1.300843 A    
C132  H43   1.082317 S    
O15   Cu3   1.979636 S    
C129  C130  1.403404 A    
O18   C58   1.285908 A    
C96   H13   1.082400 S    
O1    Cu1   1.951325 S    
O9    Cu1   1.981690 S    
C94   H11   1.083082 S    
C27   C47   1.422151 A    
C19   C23   1.415211 A    
C98   H15   1.083020 S    
C43   C47   1.411191 A    
O23   Cu8   1.953495 S    
C144  H53   1.082319 S    
C18   C111  1.483403 S    
C16   C20   1.407836 A    
C76   C78   1.198623 T    
N9    O66   1.299203 A    
C114  H28   1.080850 S    
N12   O72   1.300356 A    
C142  H51   1.083082 S    
O48   Cu11  1.959333 S    
O25   C61   1.288220 A    
N2    O51   1.301027 A    
O46   C70   1.300604 A    
C19   C117  1.481084 S    
C84   H3    1.082399 S    
C22   N10   1.450740 S    
N10   O67   1.301426 A    
C87   C88   1.403963 A    
C41   C129  1.485014 S    
O36   Cu9   1.953777 S    
C101  C102  1.398180 A    
C44   C147  1.482802 S    
C96   C97   1.397678 A    
N11   O69   1.301830 A    
O2    C2    1.286551 A    
C117  C118  1.404449 A    
O31   Cu8   1.974553 S    
O28   C64   1.282067 A    
C148  H56   1.083081 S    
C151  C152  1.398321 A    
C90   H8    1.082395 S    
C14   C18   1.407868 A    
C26   C30   1.405348 A    
C123  C128  1.405297 A    
O20   Cu5   1.953497 S    
C142  C143  1.398090 A    
C45   C61   1.469651 S    
O3    C2    1.286049 A    
C81   C82   1.403799 A    
C51   C55   1.199071 T    
C15   N7    1.437214 S    
C54   C70   1.423126 S    
O8    C3    1.289095 A    
C111  C116  1.405277 A    
C120  H33   1.082115 S    
C113  C114  1.397781 A    
C130  C131  1.398089 A    
O37   C67   1.297745 A    
O39   Cu12  1.953775 S    
C106  C107  1.399254 A    
Cu3   Cu4   2.660819 S    
O24   Cu7   1.953497 S    
O39   C67   1.297946 A    
O42   C70   1.295571 A    
C88   C89   1.398301 A    
N8    O64   1.300705 A    
C99   C104  1.403299 A    
O26   C62   1.282071 A    
C20   C123  1.483436 S    
C32   C36   1.424074 A    
