data_mof_unit_14543.cif
_audit_creation_date              2012-12-11T15:06:49-0500
_audit_creation_method            fapswitch 2.2
_symmetry_space_group_name_H-M    P1
_symmetry_Int_Tables_number       1
_space_group_crystal_system       triclinic
_cell_length_a                    19.903589
_cell_length_b                    11.248408
_cell_length_c                    18.738849
_cell_angle_alpha                 90.000013
_cell_angle_beta                  91.990002
_cell_angle_gamma                 90.00003
_cell_volume                      4192.79246356

loop_
_atom_site_label
_atom_site_type_symbol
_atom_type_description
_atom_site_fract_x
_atom_site_fract_y
_atom_site_fract_z
_atom_type_partial_charge
C1    C     C_R   0.760961 0.523698 0.639247 0.549840
C2    C     C_R   0.238613 0.522726 0.361048 0.559571
C3    C     C_R   0.261387 0.022726 0.638951 0.559572
C4    C     C_R   0.739039 0.023698 0.360752 0.549840
C5    C     C_3   0.810018 0.127788 0.453320 -0.249978
C6    C     C_3   0.190743 0.121284 0.544474 -0.251745
C7    C     C_3   0.309257 0.621284 0.455526 -0.251745
C8    C     C_3   0.689982 0.627787 0.546680 -0.249977
C9    C     C_3   0.747383 0.055630 0.437321 0.042552
C10   C     C_3   0.254761 0.053442 0.562280 0.043458
C11   C     C_3   0.245239 0.553443 0.437720 0.043459
C12   C     C_3   0.752617 0.555629 0.562678 0.042552
C13   C     C_3   0.759646 0.086940 0.575443 0.064396
C14   C     C_3   0.243871 0.084742 0.423884 0.047155
C15   C     C_3   0.256129 0.584742 0.576116 0.047155
C16   C     C_3   0.740353 0.586940 0.424557 0.064395
C17   C     C_3   0.760784 0.953748 0.561578 -0.264433
C18   C     C_3   0.253758 0.952993 0.437461 -0.275548
C19   C     C_3   0.246242 0.452993 0.562539 -0.275547
C20   C     C_3   0.739215 0.453748 0.438421 -0.264431
C21   C     C_3   0.819148 0.137121 0.534674 -0.221305
C22   C     C_3   0.180267 0.120705 0.463191 -0.222333
C23   C     C_3   0.319733 0.620706 0.536809 -0.222333
C24   C     C_3   0.680852 0.637121 0.465326 -0.221307
C25   C     C_3   0.013981 0.208895 0.462706 0.013868
C26   C     C_3   0.978553 0.211164 0.532429 0.005185
C27   C     C_3   0.521447 0.711163 0.467571 0.005186
C28   C     C_3   0.486018 0.708894 0.537294 0.013867
C29   C     C_3   0.086052 0.375405 0.502030 -0.235002
C30   C     C_3   0.944845 0.424000 0.519825 -0.227972
C31   C     C_3   0.555157 0.923997 0.480177 -0.227974
C32   C     C_3   0.413949 0.875407 0.497971 -0.235001
C33   C     C_3   0.974928 0.432435 0.446508 0.395365
C34   C     C_3   0.057568 0.381680 0.578492 0.386186
C35   C     C_3   0.442434 0.881681 0.421509 0.386188
C36   C     C_3   0.525074 0.932433 0.553494 0.395360
C37   C     C_3   0.032953 0.338144 0.440729 0.024764
C38   C     C_3   0.984087 0.336286 0.569556 0.042842
C39   C     C_3   0.515915 0.836285 0.430444 0.042840
C40   C     C_3   0.467048 0.838144 0.559271 0.024765
C41   C     C_3   0.813102 0.016976 0.047066 -0.221329
C42   C     C_3   0.186902 0.016966 0.952940 -0.221396
C43   C     C_3   0.313098 0.516966 0.047060 -0.221396
C44   C     C_3   0.686898 0.516975 0.952934 -0.221329
C45   C     C_R   0.773237 0.118700 0.650661 0.548928
C46   C     C_R   0.227993 0.116775 0.348447 0.515485
C47   C     C_R   0.272007 0.616775 0.651553 0.515485
C48   C     C_R   0.726762 0.618701 0.349339 0.548929
C49   C     C_3   0.819385 0.031306 0.967933 -0.231657
C50   C     C_3   0.180624 0.031285 0.032075 -0.231113
C51   C     C_3   0.319375 0.531285 0.967925 -0.231113
C52   C     C_3   0.680615 0.531306 0.032067 -0.231657
C53   C     C_3   0.683563 0.030728 0.027465 -0.223388
C54   C     C_3   0.316438 0.030720 0.972546 -0.221544
C55   C     C_3   0.183562 0.530720 0.027454 -0.221544
C56   C     C_3   0.816437 0.530728 0.972535 -0.223388
C57   C     C_3   0.753161 0.204426 0.061400 -0.258148
C58   C     C_3   0.246837 0.204419 0.938606 -0.258228
C59   C     C_3   0.253163 0.704419 0.061394 -0.258228
C60   C     C_3   0.746839 0.704426 0.938600 -0.258148
C61   C     C_3   0.746339 0.071056 0.074150 0.058832
C62   C     C_3   0.253662 0.071050 0.925856 0.058162
C63   C     C_3   0.246337 0.571050 0.074144 0.058162
C64   C     C_3   0.753661 0.571056 0.925850 0.058832
C65   C     C_3   0.760656 0.105319 0.935623 0.058481
C66   C     C_3   0.239351 0.105308 0.064386 0.060607
C67   C     C_3   0.260649 0.605307 0.935613 0.060607
C68   C     C_3   0.739344 0.605319 0.064377 0.058480
C69   C     C_3   0.697038 0.031049 0.946179 -0.253903
C70   C     C_3   0.302967 0.031037 0.053836 -0.255700
C71   C     C_3   0.197033 0.531037 0.946164 -0.255700
C72   C     C_3   0.802962 0.531049 0.053821 -0.253903
C73   C     C_3   0.750239 0.223091 0.979008 -0.221092
C74   C     C_3   0.249773 0.223082 0.021000 -0.219494
C75   C     C_3   0.250227 0.723082 0.979000 -0.219494
C76   C     C_3   0.749761 0.723091 0.020992 -0.221092
C77   C     C_3   0.004998 0.479446 0.040043 -0.230117
C78   C     C_3   0.995041 0.479452 0.959921 -0.230387
C79   C     C_3   0.504959 0.979452 0.040079 -0.230387
C80   C     C_3   0.495002 0.979446 0.959957 -0.230118
C81   C     C_3   0.063269 0.274891 0.028968 -0.220061
C82   C     C_3   0.936771 0.274895 0.970987 -0.218623
C83   C     C_3   0.563229 0.774895 0.029013 -0.218623
C84   C     C_3   0.436731 0.774891 0.971032 -0.220061
C85   C     C_3   0.941936 0.292729 0.052803 -0.261257
C86   C     C_3   0.058106 0.292740 0.947149 -0.261981
C87   C     C_3   0.441894 0.792740 0.052851 -0.261981
C88   C     C_3   0.558064 0.792729 0.947197 -0.261257
C89   C     C_R   0.951749 0.343881 0.638319 0.572590
C90   C     C_R   0.058183 0.345440 0.364258 0.578816
C91   C     C_R   0.441817 0.845440 0.635742 0.578815
C92   C     C_R   0.548252 0.843881 0.361682 0.572588
C93   C     C_3   0.010326 0.350511 0.069301 0.058161
C94   C     C_3   0.989716 0.350518 0.930660 0.061848
C95   C     C_3   0.510284 0.850518 0.069340 0.061848
C96   C     C_3   0.489674 0.850512 0.930699 0.058161
C97   C     C_R   0.761446 0.533627 0.849179 0.542039
C98   C     C_R   0.238554 0.533628 0.150820 0.545773
C99   C     C_R   0.261446 0.033628 0.849180 0.545774
C100  C     C_R   0.738554 0.033627 0.150821 0.542039
C101  C     C_R   0.775116 0.133539 0.858972 0.534394
C102  C     C_R   0.224891 0.133523 0.141036 0.527323
C103  C     C_R   0.275109 0.633523 0.858964 0.527323
C104  C     C_R   0.724884 0.633539 0.141028 0.534394
C105  C     C_R   0.969144 0.352982 0.853879 0.546651
C106  C     C_R   0.030892 0.352984 0.146092 0.561486
C107  C     C_R   0.469108 0.852984 0.853908 0.561487
C108  C     C_R   0.530856 0.852982 0.146121 0.546652
C109  C     C_3   0.688785 0.131231 0.464152 -0.238026
C110  C     C_3   0.312121 0.136181 0.537586 -0.238906
C111  C     C_3   0.187879 0.636181 0.462414 -0.238908
C112  C     C_3   0.811215 0.631229 0.535848 -0.238028
C113  C     C_3   0.691753 0.134646 0.545508 -0.245417
C114  C     C_3   0.307242 0.148271 0.456340 -0.242424
C115  C     C_3   0.192757 0.648271 0.543660 -0.242425
C116  C     C_3   0.808247 0.634646 0.454492 -0.245416
C117  C     C_3   0.755270 0.936790 0.480105 -0.231643
C118  C     C_3   0.249896 0.934749 0.518934 -0.235557
C119  C     C_3   0.250104 0.434749 0.481066 -0.235558
C120  C     C_3   0.744731 0.436790 0.519895 -0.231643
Cr1   Cr    Cr6+3 0.885690 0.492860 0.745310 1.002298
Cr2   Cr    Cr6+3 0.114310 0.492860 0.254690 1.025586
Cr3   Cr    Cr6+3 0.385690 0.992860 0.745310 1.025584
Cr4   Cr    Cr6+3 0.614310 0.992860 0.254690 1.002299
Cr5   Cr    Cr6+3 0.729880 0.332270 0.748190 1.021505
Cr6   Cr    Cr6+3 0.270120 0.332270 0.251810 1.008382
Cr7   Cr    Cr6+3 0.229880 0.832270 0.748190 1.008382
Cr8   Cr    Cr6+3 0.770120 0.832270 0.251810 1.021507
Cr9   Cr    Cr6+3 0.888120 0.178590 0.753010 1.063843
Cr10  Cr    Cr6+3 0.111880 0.178590 0.246990 1.052132
Cr11  Cr    Cr6+3 0.388120 0.678590 0.753010 1.052133
Cr12  Cr    Cr6+3 0.611880 0.678590 0.246990 1.063843
H1    H     H_    0.640341 0.098195 0.444487 0.136865
H2    H     H_    0.362959 0.111098 0.557256 0.181016
H3    H     H_    0.137041 0.611097 0.442745 0.181019
H4    H     H_    0.859659 0.598190 0.555511 0.136862
H5    H     H_    0.862807 0.079942 0.549746 0.192397
H6    H     H_    0.140801 0.052901 0.450288 0.171095
H7    H     H_    0.359199 0.552902 0.549712 0.171096
H8    H     H_    0.637193 0.579942 0.450253 0.192396
H9    H     H_    0.802370 0.894422 0.464456 0.144139
H10   H     H_    0.198194 0.903278 0.525848 0.143867
H11   H     H_    0.301806 0.403278 0.474152 0.143868
H12   H     H_    0.697631 0.394419 0.535544 0.144139
H13   H     H_    0.808315 0.914174 0.583634 0.140587
H14   H     H_    0.213914 0.902644 0.407805 0.133168
H15   H     H_    0.286086 0.402645 0.592194 0.133169
H16   H     H_    0.691684 0.414174 0.416365 0.140587
H17   H     H_    0.060051 0.161712 0.475097 0.163311
H18   H     H_    0.928089 0.204942 0.512611 0.143822
H19   H     H_    0.571911 0.704939 0.487389 0.143822
H20   H     H_    0.439949 0.661713 0.524903 0.163310
H21   H     H_    0.608573 0.899127 0.485367 0.061035
H22   H     H_    0.373841 0.815203 0.491750 0.059212
H23   H     H_    0.126160 0.315201 0.508251 0.059213
H24   H     H_    0.891429 0.399132 0.514635 0.061035
H25   H     H_    0.947953 0.513168 0.543853 0.199310
H26   H     H_    0.109631 0.458088 0.488891 0.172747
H27   H     H_    0.390371 0.958090 0.511110 0.172747
H28   H     H_    0.552050 0.013165 0.456148 0.199311
H29   H     H_    0.818763 0.923160 0.060089 0.138249
H30   H     H_    0.181242 0.923151 0.939912 0.137686
H31   H     H_    0.318758 0.423152 0.060088 0.137686
H32   H     H_    0.681237 0.423160 0.939911 0.138249
H33   H     H_    0.691520 0.222422 0.442676 0.121200
H34   H     H_    0.307385 0.224762 0.561708 0.111961
H35   H     H_    0.192615 0.724762 0.438292 0.111960
H36   H     H_    0.808482 0.722420 0.557325 0.121201
H37   H     H_    0.856934 0.059632 0.075172 0.124133
H38   H     H_    0.143068 0.059624 0.924837 0.125211
H39   H     H_    0.356932 0.559624 0.075163 0.125211
H40   H     H_    0.643066 0.559632 0.924828 0.124133
H41   H     H_    0.868043 0.071238 0.958122 0.130270
H42   H     H_    0.131963 0.071194 0.041893 0.130553
H43   H     H_    0.368037 0.571194 0.958107 0.130553
H44   H     H_    0.631956 0.571238 0.041878 0.130270
H45   H     H_    0.820982 0.942537 0.942091 0.119440
H46   H     H_    0.179036 0.942513 0.057912 0.118877
H47   H     H_    0.320964 0.442513 0.942087 0.118877
H48   H     H_    0.679018 0.442537 0.057909 0.119440
H49   H     H_    0.662242 0.947994 0.045616 0.106752
H50   H     H_    0.337761 0.947991 0.954392 0.105874
H51   H     H_    0.162239 0.447991 0.045608 0.105874
H52   H     H_    0.837758 0.447994 0.954384 0.106752
H53   H     H_    0.703942 0.939612 0.926181 0.114441
H54   H     H_    0.296060 0.939603 0.073838 0.111830
H55   H     H_    0.203939 0.439603 0.926162 0.111829
H56   H     H_    0.796058 0.439612 0.073819 0.114440
H57   H     H_    0.711736 0.253113 0.086808 0.114101
H58   H     H_    0.288258 0.253107 0.913190 0.113183
H59   H     H_    0.211742 0.753107 0.086810 0.113183
H60   H     H_    0.788264 0.753112 0.913192 0.114101
H61   H     H_    0.801179 0.238045 0.085446 0.116538
H62   H     H_    0.198817 0.238036 0.914563 0.116710
H63   H     H_    0.301183 0.738036 0.085437 0.116710
H64   H     H_    0.698821 0.738045 0.914554 0.116538
H65   H     H_    0.783024 0.294072 0.963124 0.107035
H66   H     H_    0.217009 0.294087 0.036895 0.107748
H67   H     H_    0.282991 0.794087 0.963105 0.107748
H68   H     H_    0.716976 0.794072 0.036876 0.107035
H69   H     H_    0.698458 0.251752 0.965294 0.121588
H70   H     H_    0.301559 0.251727 0.034706 0.121407
H71   H     H_    0.198440 0.751727 0.965294 0.121406
H72   H     H_    0.801542 0.751752 0.034707 0.121588
H73   H     H_    0.644000 0.097978 0.035657 0.116446
H74   H     H_    0.355993 0.097983 0.964358 0.116348
H75   H     H_    0.144007 0.597983 0.035642 0.116348
H76   H     H_    0.856000 0.597978 0.964343 0.116446
H77   H     H_    0.678408 0.222920 0.565253 0.133494
H78   H     H_    0.310663 0.239278 0.438561 0.144639
H79   H     H_    0.189337 0.739278 0.561439 0.144638
H80   H     H_    0.821590 0.722922 0.434748 0.133495
H81   H     H_    0.653462 0.070039 0.915713 0.119563
H82   H     H_    0.346541 0.070022 0.084311 0.110729
H83   H     H_    0.153459 0.570022 0.915689 0.110729
H84   H     H_    0.846538 0.570039 0.084287 0.119564
H85   H     H_    0.049548 0.532219 0.054655 0.134191
H86   H     H_    0.950480 0.532215 0.945321 0.136067
H87   H     H_    0.549520 0.032215 0.054679 0.136067
H88   H     H_    0.450452 0.032219 0.945345 0.134192
H89   H     H_    0.962364 0.526666 0.064435 0.120253
H90   H     H_    0.037667 0.526684 0.935523 0.115460
H91   H     H_    0.462333 0.026684 0.064477 0.115460
H92   H     H_    0.537635 0.026667 0.935565 0.120253
H93   H     H_    0.614103 0.785642 0.051152 0.109817
H94   H     H_    0.385859 0.785608 0.948885 0.109639
H95   H     H_    0.114141 0.285608 0.051115 0.109638
H96   H     H_    0.885897 0.285642 0.948847 0.109817
H97   H     H_    0.599382 0.849833 0.929029 0.116759
H98   H     H_    0.400583 0.849853 0.071025 0.113041
H99   H     H_    0.099417 0.349853 0.928975 0.113041
H100  H     H_    0.900618 0.349833 0.070971 0.116758
H101  H     H_    0.938225 0.205896 0.080612 0.117988
H102  H     H_    0.061817 0.205917 0.919329 0.119495
H103  H     H_    0.438182 0.705917 0.080670 0.119495
H104  H     H_    0.561775 0.705896 0.919388 0.117988
H105  H     H_    0.949883 0.180973 0.960662 0.123801
H106  H     H_    0.050149 0.180970 0.039282 0.123819
H107  H     H_    0.449851 0.680970 0.960718 0.123819
H108  H     H_    0.550117 0.680973 0.039338 0.123801
H109  H     H_    0.653141 0.074708 0.564345 0.157293
H110  H     H_    0.352453 0.110192 0.436293 0.186807
H111  H     H_    0.147547 0.610192 0.563708 0.186809
H112  H     H_    0.846858 0.574711 0.435652 0.157303
H113  H     H_    0.713207 0.880317 0.466292 0.114491
H114  H     H_    0.284475 0.867397 0.540525 0.102147
H115  H     H_    0.215525 0.367397 0.459474 0.102146
H116  H     H_    0.786795 0.380318 0.533706 0.114492
H117  H     H_    0.719929 0.908214 0.588356 0.163753
H118  H     H_    0.302000 0.922461 0.417737 0.157074
H119  H     H_    0.198000 0.422460 0.582263 0.157074
H120  H     H_    0.780070 0.408214 0.411643 0.163754
H121  H     H_    0.852030 0.078325 0.432092 0.212336
H122  H     H_    0.146711 0.079914 0.569498 0.219210
H123  H     H_    0.353289 0.579915 0.430502 0.219210
H124  H     H_    0.647970 0.578325 0.567908 0.212336
H125  H     H_    0.807956 0.216449 0.427824 0.157927
H126  H     H_    0.197842 0.212481 0.564132 0.161595
H127  H     H_    0.302158 0.712482 0.435868 0.161595
H128  H     H_    0.692044 0.716448 0.572176 0.157927
H129  H     H_    0.832394 0.226389 0.553223 0.089155
H130  H     H_    0.162187 0.204036 0.439796 0.100199
H131  H     H_    0.337813 0.704037 0.560204 0.100199
H132  H     H_    0.667606 0.726389 0.446777 0.089154
O1    O     O_R   0.957210 0.449410 0.665480 -0.506118
O2    O     O_R   0.042790 0.449410 0.334520 -0.430588
O3    O     O_R   0.457210 0.949410 0.665480 -0.430594
O4    O     O_R   0.542790 0.949410 0.334520 -0.506114
O5    O     O_R   0.736260 0.212010 0.826560 -0.508751
O6    O     O_R   0.263740 0.212010 0.173440 -0.517271
O7    O     O_R   0.236260 0.712010 0.826560 -0.517272
O8    O     O_R   0.763740 0.712010 0.173440 -0.508751
O9    O     O_R   0.832520 0.095300 0.836000 -0.531060
O10   O     O_R   0.167480 0.095300 0.164000 -0.531201
O11   O     O_R   0.332520 0.595300 0.836000 -0.531202
O12   O     O_R   0.667480 0.595300 0.164000 -0.531060
O13   O     O_R   0.946380 0.253940 0.826940 -0.497679
O14   O     O_R   0.053620 0.253940 0.173060 -0.499580
O15   O     O_R   0.446380 0.753940 0.826940 -0.499580
O16   O     O_R   0.553620 0.753940 0.173060 -0.497679
O17   O     O_3   0.834560 0.334570 0.748840 -0.307649
O18   O     O_3   0.165440 0.334570 0.251160 -0.314578
O19   O     O_3   0.334560 0.834570 0.748840 -0.314578
O20   O     O_3   0.665440 0.834570 0.251160 -0.307651
O21   O     O_R   0.820730 0.541240 0.668250 -0.523387
O22   O     O_R   0.179270 0.541240 0.331750 -0.529331
O23   O     O_R   0.320730 0.041240 0.668250 -0.529331
O24   O     O_R   0.679270 0.041240 0.331750 -0.523388
O25   O     O_R   0.714240 0.455060 0.663710 -0.502494
O26   O     O_R   0.285760 0.455060 0.336290 -0.492624
O27   O     O_R   0.214240 0.955060 0.663710 -0.492624
O28   O     O_R   0.785760 0.955060 0.336290 -0.502494
O29   O     O_R   0.736780 0.204870 0.675910 -0.512452
O30   O     O_R   0.263220 0.204870 0.324090 -0.528140
O31   O     O_R   0.236780 0.704870 0.675910 -0.528140
O32   O     O_R   0.763220 0.704870 0.324090 -0.512450
O33   O     O_R   0.833070 0.087590 0.673490 -0.508184
O34   O     O_R   0.166930 0.087590 0.326510 -0.513853
O35   O     O_R   0.333070 0.587590 0.673490 -0.513853
O36   O     O_R   0.666930 0.587590 0.326510 -0.508185
O37   O     O_R   0.946890 0.246800 0.676300 -0.424820
O38   O     O_R   0.053110 0.246800 0.323700 -0.425614
O39   O     O_R   0.446890 0.746800 0.676300 -0.425613
O40   O     O_R   0.553110 0.746800 0.323700 -0.424819
O41   O     O_R   0.956650 0.457120 0.827980 -0.541830
O42   O     O_R   0.043350 0.457120 0.172020 -0.524231
O43   O     O_R   0.456650 0.957120 0.827980 -0.524231
O44   O     O_R   0.543350 0.957120 0.172020 -0.541830
O45   O     O_R   0.820220 0.548390 0.818890 -0.507921
O46   O     O_R   0.179780 0.548390 0.181110 -0.510999
O47   O     O_R   0.320220 0.048390 0.818890 -0.510998
O48   O     O_R   0.679780 0.048390 0.181110 -0.507922
O49   O     O_R   0.713680 0.462770 0.826210 -0.520753
O50   O     O_R   0.286320 0.462770 0.173790 -0.516977
O51   O     O_R   0.213680 0.962770 0.826210 -0.516977
O52   O     O_R   0.786320 0.962770 0.173790 -0.520753
Br1   Br    Br    0.972304 0.096205 0.394386 -0.501158
Br2   Br    Br    0.999750 0.065439 0.587344 -0.490165
Br3   Br    Br    0.500249 0.565439 0.412655 -0.490162
Br4   Br    Br    0.527695 0.596204 0.605614 -0.501155
Br5   Br    Br    0.593887 0.895185 0.629643 -0.563265
Br6   Br    Br    0.395122 0.776064 0.349974 -0.576676
Br7   Br    Br    0.104879 0.276061 0.650026 -0.576677
Br8   Br    Br    0.906113 0.395190 0.370360 -0.563261
O53   O     O_3   0.007373 0.546588 0.441173 -0.555706
C121  C     C_3   0.967435 0.644113 0.419946 -0.073046
H133  H     H_    0.935652 0.626930 0.371400 0.168366
H134  H     H_    0.001775 0.717070 0.405206 0.156230
H135  H     H_    0.939694 0.678324 0.465753 0.111941
O54   O     O_3   0.058057 0.504651 0.599692 -0.563507
C122  C     C_3   0.088329 0.531388 0.667892 -0.053745
H136  H     H_    0.142871 0.512393 0.670003 0.121323
H137  H     H_    0.064987 0.484209 0.712649 0.193644
H138  H     H_    0.082356 0.627928 0.677935 0.134139
O55   O     O_3   0.441945 0.004653 0.400310 -0.563502
C123  C     C_3   0.411672 0.031391 0.332110 -0.053743
H139  H     H_    0.357131 0.012395 0.329999 0.121322
H140  H     H_    0.435014 0.984213 0.287352 0.193644
H141  H     H_    0.417645 0.127932 0.322067 0.134139
O56   O     O_3   0.492632 0.046588 0.558827 -0.555702
C124  C     C_3   0.532571 0.144107 0.580065 -0.073040
H142  H     H_    0.564362 0.126905 0.628602 0.168364
H143  H     H_    0.498233 0.217060 0.594819 0.156228
H144  H     H_    0.560307 0.178332 0.534257 0.111952

loop_
_geom_bond_atom_site_label_1
_geom_bond_atom_site_label_2
_ccdc_geom_bond_type
C82   C94   S    
C119  H11   S    
C7    H127  S    
C120  H12   S    
C21   H5    S    
C53   C69   S    
C49   H41   S    
C43   C63   S    
C25   Br1   S    
C44   C64   S    
C27   Br3   S    
C34   O54   S    
C85   H101  S    
C86   H99   S    
C28   Br4   S    
C50   H46   S    
C112  H4    S    
C63   C98   S    
C28   C40   S    
C115  H79   S    
Cr12  O12   S    
C87   H103  S    
C81   H106  S    
C30   C38   S    
C42   H38   S    
C59   H59   S    
C56   C72   S    
C34   Br7   S    
C98   O46   A    
Cr1   O41   S    
C121  H133  S    
C106  O14   A    
C41   C61   S    
C89   O37   A    
C18   C118  S    
C81   C86   S    
C29   H23   S    
C30   H24   S    
C83   C88   S    
C92   O40   A    
C91   O3    A    
C41   C49   S    
C49   H45   S    
O54   C122  S    
C109  H1    S    
C70   H82   S    
O56   C124  S    
Cr1   O1    S    
C26   C38   S    
C56   H52   S    
C59   H63   S    
C14   C114  S    
C82   H96   S    
Cr4   O4    S    
C24   H8    S    
C15   C19   S    
C44   H40   S    
C79   H87   S    
C54   C70   S    
C23   H131  S    
C68   C72   S    
C121  H135  S    
C1    O25   A    
C98   O50   A    
C102  O10   A    
C32   H22   S    
C64   C97   S    
C17   H13   S    
C15   C115  S    
C111  H35   S    
C69   H53   S    
Cr6   O50   S    
Cr7   O31   S    
Cr8   O32   S    
C75   H71   S    
Cr6   O6    S    
C46   O34   A    
C71   H55   S    
C123  H139  S    
C118  H114  S    
C57   C61   S    
C29   H26   S    
C82   C85   S    
C59   C63   S    
C60   C64   S    
C13   C45   S    
C77   H85   S    
C66   C70   S    
C22   H130  S    
Cr9   O33   S    
C95   C108  S    
C62   C99   S    
C92   O4    A    
C5    C21   S    
C108  O44   A    
C84   H94   S    
C57   H61   S    
C31   C36   S    
C48   O36   A    
C55   C71   S    
Cr6   O30   S    
Cr7   O51   S    
C116  H112  S    
Cr2   O2    S    
C65   C101  S    
C111  H3    S    
Cr11  O19   S    
C67   C103  S    
C57   H57   S    
C37   C90   S    
Cr10  O34   S    
Cr11  O39   S    
C78   C94   S    
C100  O48   A    
C20   H120  S    
C66   C74   S    
C25   H17   S    
C57   C73   S    
C119  H115  S    
C53   C61   S    
C106  O42   A    
C74   H66   S    
C55   C63   S    
C58   H58   S    
C56   C64   S    
C10   C110  S    
C2    O26   A    
C47   O31   A    
C104  O12   A    
C48   O32   A    
C60   H60   S    
C44   C52   S    
C26   Br2   S    
C91   O39   A    
C73   H69   S    
Cr7   O7    S    
Cr8   O8    S    
C1    C12   S    
Cr1   O17   S    
C36   O56   S    
C123  H141  S    
C51   H47   S    
C2    C11   S    
C124  H143  S    
Cr12  O16   S    
C118  H10   S    
C43   H39   S    
C25   C26   S    
C101  O5    A    
O55   C123  S    
C87   C95   S    
C103  O7    A    
C8    H128  S    
C5    C9    S    
C93   C106  S    
C50   C66   S    
C8    C12   S    
C5    H125  S    
C51   C67   S    
C78   H90   S    
C114  H110  S    
Cr5   O17   S    
Cr4   O44   S    
C61   C100  S    
C67   C75   S    
Cr8   O20   S    
C112  C116  S    
C58   C74   S    
C21   H129  S    
C83   H108  S    
Cr12  O36   S    
Cr4   O20   S    
C42   H30   S    
C79   H91   S    
C75   H67   S    
C68   C76   S    
C55   H75   S    
C33   O53   S    
C14   C22   S    
C99   O51   A    
C113  H77   S    
C19   H119  S    
C7    C23   S    
C17   H117  S    
C8    C24   S    
C89   O1    A    
C40   C91   S    
C122  H138  S    
Cr5   O25   S    
C110  H2    S    
C70   H54   S    
C84   H107  S    
Cr8   O28   S    
Cr1   O45   S    
Cr2   O42   S    
Cr3   O47   S    
C120  H116  S    
C35   Br6   S    
C4    C9    S    
C58   C62   S    
C30   H25   S    
C88   C96   S    
C94   C105  S    
C41   H29   S    
Cr9   O9    S    
C12   C112  S    
C1    O21   A    
C14   C46   S    
C77   C78   S    
C3    O23   A    
Cr9   O37   S    
C86   H102  S    
C6    C22   S    
C82   H105  S    
C9    C117  S    
C14   C18   S    
Cr6   O26   S    
C99   O47   A    
C54   H74   S    
C20   C120  S    
C15   C47   S    
Cr10  O10   S    
C52   H44   S    
Cr11  O15   S    
C31   H28   S    
C17   C117  S    
C42   C62   S    
C32   H27   S    
C88   H97   S    
C19   C119  S    
Cr10  O38   S    
Cr11  O35   S    
C16   C116  S    
C100  O52   A    
C9    C109  S    
C117  H9    S    
C11   C111  S    
C26   H18   S    
C69   H81   S    
C123  H140  S    
C74   H70   S    
C107  O43   A    
C29   C34   S    
C58   H62   S    
C19   H15   S    
C45   O33   A    
C35   C39   S    
C122  H136  S    
C104  O8    A    
C79   C95   S    
C80   H92   S    
C90   O38   A    
Cr5   O29   S    
C56   H76   S    
C107  O15   A    
Cr1   O21   S    
C51   H43   S    
Cr2   O18   S    
C109  H33   S    
Cr4   O24   S    
Cr12  O20   S    
C96   C107  S    
C39   C92   S    
C27   H19   S    
C102  O6    A    
C7    H123  S    
C68   C104  S    
C6    C10   S    
C117  H113  S    
C87   H98   S    
C54   C62   S    
C22   H6    S    
C6    H126  S    
C116  H80   S    
C78   H86   S    
C43   C51   S    
C41   H37   S    
C65   C69   S    
Cr6   O18   S    
C77   C93   S    
C60   C76   S    
Cr4   O48   S    
C67   C71   S    
O53   C121  S    
C33   C37   S    
C103  O11   A    
C13   C17   S    
Cr3   O3    S    
Cr12  O40   S    
C29   C37   S    
C55   H51   S    
C44   H32   S    
C43   H31   S    
C97   O45   A    
C105  O13   A    
C66   C102  S    
C47   O35   A    
C42   C50   S    
C84   C87   S    
C3    O27   A    
C11   C119  S    
C16   C48   S    
C4    O28   A    
C124  H142  S    
C7    C11   S    
C38   C89   S    
C4    O24   A    
C49   C65   S    
C23   H7    S    
C90   O2    A    
C71   H83   S    
C5    H121  S    
C112  H36   S    
Cr2   O46   S    
C65   C73   S    
C6    H122  S    
Cr3   O43   S    
C84   C96   S    
Cr7   O19   S    
C72   H56   S    
C86   C94   S    
C25   C37   S    
C12   C120  S    
C27   C39   S    
C73   H65   S    
C53   H73   S    
C54   H50   S    
Cr9   O13   S    
C80   C96   S    
C52   C68   S    
C16   C20   S    
C2    O22   A    
C15   C23   S    
C16   C24   S    
C97   O49   A    
C101  O9    A    
C85   H100  S    
C85   C93   S    
C35   O55   S    
C31   H21   S    
C88   H104  S    
C13   C21   S    
C32   C35   S    
C36   C40   S    
Cr5   O49   S    
C76   H68   S    
Cr7   O27   S    
Cr8   O52   S    
C33   Br8   S    
Cr5   O5    S    
Cr10  O14   S    
C52   H48   S    
Cr11  O11   S    
C10   C118  S    
C53   H49   S    
C81   C93   S    
C83   C95   S    
C24   H132  S    
C20   H16   S    
Cr9   O17   S    
C122  H137  S    
Cr3   O23   S    
C115  H111  S    
C77   H89   S    
C28   H20   S    
C113  H109  S    
C59   C75   S    
C60   H64   S    
C83   H93   S    
C124  H144  S    
C110  C114  S    
C81   H95   S    
C30   C33   S    
C72   H84   S    
C34   C38   S    
C45   O29   A    
C18   H14   S    
C80   H88   S    
C121  H134  S    
C76   H72   S    
C109  C113  S    
C46   O30   A    
C50   H42   S    
C114  H78   S    
Cr2   O22   S    
Cr10  O18   S    
C3    C10   S    
Cr3   O19   S    
C110  H34   S    
C18   H118  S    
C31   C39   S    
C32   C40   S    
C79   C80   S    
C27   C28   S    
C36   Br5   S    
C111  C115  S    
C8    H124  S    
C108  O16   A    
C13   C113  S    
C105  O41   A    
