data_mof_unit_45191.cif
_audit_creation_date              2012-12-10T17:54:25-0500
_audit_creation_method            fapswitch 2.2
_symmetry_space_group_name_H-M    P1
_symmetry_Int_Tables_number       1
_space_group_crystal_system       triclinic
_cell_length_a                    27.739928
_cell_length_b                    10.56169
_cell_length_c                    9.887974
_cell_angle_alpha                 90.70293
_cell_angle_beta                  90.193716
_cell_angle_gamma                 91.662902
_cell_volume                      2895.52556393

loop_
_atom_site_label
_atom_site_type_symbol
_atom_type_description
_atom_site_fract_x
_atom_site_fract_y
_atom_site_fract_z
_atom_type_partial_charge
C1    C     C_R   0.502230 0.258567 0.499896 0.872227
C2    C     C_R   0.973354 0.386900 0.491599 0.047029
C3    C     C_R   0.975649 0.620338 0.509514 0.073962
C4    C     C_R   0.406070 0.499506 0.499807 0.892426
C5    C     C_R   0.949266 0.503336 0.501349 0.080935
C6    C     C_R   0.945381 0.273573 0.474553 -0.203742
C7    C     C_R   0.895415 0.274318 0.473700 -0.113531
C8    C     C_R   0.871475 0.387887 0.489070 -0.029399
C9    C     C_R   0.898212 0.502789 0.502825 -0.051659
C10   C     C_R   0.873783 0.617160 0.517894 -0.029828
C11   C     C_R   0.823353 0.614513 0.518164 0.567822
C12   C     C_R   0.278128 0.503046 0.622576 0.451318
C13   C     C_R   0.821092 0.389664 0.489574 0.570975
C14   C     C_R   0.722042 0.497861 0.623790 -0.147556
C15   C     C_R   0.671987 0.497377 0.623618 -0.157623
C16   C     C_R   0.490055 0.735896 0.501283 0.969966
C17   C     C_R   0.671986 0.504781 0.378042 -0.243631
C18   C     C_R   0.722120 0.505360 0.378183 0.452527
C19   C     C_R   0.747071 0.501734 0.501517 0.220259
C20   C     C_R   0.024380 0.387463 0.498179 0.056846
C21   C     C_R   0.050824 0.504852 0.497863 0.081935
C22   C     C_R   0.026592 0.621068 0.498918 -0.014814
C23   C     C_R   0.253062 0.501718 0.499219 0.202851
C24   C     C_R   0.050003 0.274152 0.506426 -0.198682
C25   C     C_R   0.104162 0.736404 0.483479 0.453796
C26   C     C_R   0.949998 0.732929 0.529520 -0.200357
C27   C     C_R   0.900027 0.731141 0.533018 -0.119389
C28   C     C_R   0.593938 0.500304 0.500226 0.922612
C29   C     C_R   0.054103 0.734745 0.487203 -0.254608
C30   C     C_R   0.525774 0.106436 0.742805 -0.128781
C31   C     C_R   0.518372 0.049180 0.867569 -0.185254
C32   C     C_R   0.487918 0.942718 0.876346 -0.112761
C33   C     C_R   0.468922 0.885473 0.759045 0.446478
C34   C     C_R   0.101973 0.505785 0.496689 -0.097766
C35   C     C_R   0.481650 0.934835 0.630585 -0.033176
C36   C     C_R   0.503075 0.055870 0.624627 0.038951
C37   C     C_R   0.499369 0.122097 0.501273 -0.151386
C38   C     C_R   0.481423 0.060538 0.384444 -0.259064
C39   C     C_R   0.470407 0.932730 0.386123 0.391458
C40   C     C_R   0.176403 0.391299 0.501756 0.572496
C41   C     C_R   0.476029 0.867163 0.507128 -0.185749
C42   C     C_R   0.437402 0.332468 0.137784 -0.161722
C43   C     C_R   0.406914 0.248782 0.066294 -0.162523
C44   C     C_R   0.406764 0.248831 0.926348 -0.147847
C45   C     C_R   0.126137 0.390167 0.501649 -0.019354
C46   C     C_R   0.437114 0.332514 0.857147 -0.126198
C47   C     C_R   0.469034 0.417441 0.926272 0.104789
C48   C     C_R   0.469114 0.417426 0.071027 0.157610
C49   C     C_R   0.529491 0.578985 0.073503 -0.119483
C50   C     C_R   0.529652 0.579048 0.930467 0.420979
C51   C     C_R   0.179748 0.617106 0.491817 0.613787
C52   C     C_R   0.277948 0.498947 0.376696 -0.133164
C53   C     C_R   0.327977 0.497848 0.376620 -0.169576
C54   C     C_R   0.328232 0.501900 0.622474 -0.210751
C55   C     C_R   0.099875 0.275761 0.507809 -0.082459
C56   C     C_R   0.128970 0.621682 0.490799 -0.132943
C57   C     C_R   0.353438 0.499608 0.499573 -0.106126
C58   C     C_R   0.646623 0.500742 0.500672 -0.119288
Cl1   Cl    Cl    0.132575 0.887509 0.467939 -0.505046
Cl2   Cl    Cl    0.753095 0.511242 0.223333 -0.556679
Cl3   Cl    Cl    0.247356 0.506672 0.777756 -0.531674
Cl4   Cl    Cl    0.423623 0.766319 0.778471 -0.564318
Cl5   Cl    Cl    0.446973 0.859944 0.237561 -0.599650
Cl6   Cl    Cl    0.569660 0.684294 0.848970 -0.582561
H1    H     H_    0.347289 0.503135 0.718327 0.214557
H2    H     H_    0.479360 0.904049 0.974179 0.221735
H3    H     H_    0.553513 0.643224 0.129305 0.186699
H4    H     H_    0.383121 0.183887 0.120001 0.188335
H5    H     H_    0.382856 0.183950 0.870853 0.182049
H6    H     H_    0.434372 0.327558 0.749939 0.201023
H7    H     H_    0.117813 0.186235 0.514150 0.230889
H8    H     H_    0.653251 0.494217 0.719492 0.203479
H9    H     H_    0.875602 0.185047 0.460548 0.196458
H10   H     H_    0.960931 0.182430 0.458174 0.145039
H11   H     H_    0.032638 0.182131 0.515463 0.151943
H12   H     H_    0.258392 0.497794 0.281688 0.181964
H13   H     H_    0.346620 0.495772 0.280568 0.195458
H14   H     H_    0.435041 0.327706 0.244934 0.200277
H15   H     H_    0.741503 0.495116 0.718796 0.178715
H16   H     H_    0.967458 0.824227 0.546323 0.145447
H17   H     H_    0.653033 0.507727 0.282208 0.197273
H18   H     H_    0.882033 0.819949 0.547735 0.193984
H19   H     H_    0.037569 0.825137 0.476676 0.169825
H20   H     H_    0.475662 0.111325 0.291537 0.189856
H21   H     H_    0.549461 0.189483 0.740179 0.171659
H22   H     H_    0.534580 0.090595 0.958151 0.171636
N1    N     N_R   0.201758 0.503412 0.497476 -0.355141
N2    N     N_R   0.798373 0.501950 0.503389 -0.345108
N3    N     N_R   0.499540 0.498800 0.142780 -0.137610
N4    N     N_R   0.499520 0.498720 0.857170 -0.142711
O1    O     O_R   0.500000 0.316780 0.614690 -0.659240
O2    O     O_R   0.571250 0.499990 0.614680 -0.582379
O3    O     O_R   0.571240 0.499970 0.385350 -0.626028
O4    O     O_2   0.200002 0.281364 0.506442 -0.496273
O5    O     O_2   0.794892 0.280462 0.476181 -0.521156
O6    O     O_2   0.207362 0.724112 0.488262 -0.434236
O7    O     O_2   0.799350 0.723249 0.532263 -0.519116
O8    O     O_R   0.500000 0.316750 0.385360 -0.643780
O9    O     O_R   0.428760 0.500030 0.614650 -0.616203
O10   O     O_R   0.428750 0.500010 0.385320 -0.632394
O11   O     O_R   0.500000 0.683250 0.614640 -0.549078
O12   O     O_R   0.500000 0.683220 0.385310 -0.573171
Zn1   Zn    Zn3+2 0.500000 0.500020 0.653130 1.015483
Zn2   Zn    Zn3+2 0.500000 0.499980 0.346870 0.985929

loop_
_geom_bond_atom_site_label_1
_geom_bond_atom_site_label_2
_ccdc_geom_bond_type
C10   C27   A    
O9    Zn1   S    
C34   C56   A    
C8    C13   A    
C22   C29   A    
C50   Cl6   S    
C35   C36   A    
C25   C56   A    
C7    C8    A    
C7    H9    S    
C54   H1    S    
C31   C32   A    
C24   C55   A    
C15   H8    S    
C12   C23   A    
C26   C27   A    
C13   O5    S    
C40   N1    A    
C36   C37   A    
C29   H19   S    
C30   C31   A    
O10   Zn2   S    
C18   C19   A    
O2    Zn1   S    
C33   C35   A    
C50   N4    A    
C20   C24   A    
C8    C9    A    
C4    C57   S    
C40   O4    S    
C9    C10   A    
C1    C37   S    
C17   C58   A    
C1    O1    A    
C31   H22   S    
C23   N1    S    
C21   C22   A    
C2    C6    A    
O3    Zn2   S    
C44   C46   A    
C6    H10   S    
C27   H18   S    
C25   C29   A    
C40   C45   A    
C2    C20   A    
C39   C41   A    
C19   N2    S    
C51   N1    A    
C53   C57   A    
C33   Cl4   S    
C21   C34   A    
C3    C5    A    
C26   H16   S    
C28   O3    A    
C53   H13   S    
C43   C44   A    
C5    C9    A    
C37   C38   A    
O1    Zn1   S    
C47   C48   A    
C11   N2    A    
C51   O6    S    
C17   C18   A    
C44   H5    S    
C28   O2    A    
C34   C45   A    
C42   C48   A    
C14   H15   S    
C30   H21   S    
O12   Zn2   S    
C18   Cl2   S    
C42   H14   S    
C48   N3    A    
C4    O10   A    
N3    Zn2   S    
C47   N4    A    
C2    C5    A    
C42   C43   A    
C52   C53   A    
C32   H2    S    
C16   O12   A    
C46   C47   A    
C49   H3    S    
C38   H20   S    
C14   C19   A    
C3    C26   A    
C51   C56   A    
C49   N3    A    
C52   H12   S    
C1    O8    A    
C24   H11   S    
C6    C7    A    
C28   C58   S    
C39   Cl5   S    
C43   H4    S    
C30   C36   A    
C11   O7    S    
C32   C33   A    
C12   Cl3   S    
C23   C52   A    
C38   C39   A    
O8    Zn2   S    
C13   N2    A    
C15   C58   A    
C17   H17   S    
C35   C41   A    
C55   H7    S    
N4    Zn1   S    
C46   H6    S    
C10   C11   A    
C16   O11   A    
C20   C21   A    
C45   C55   A    
O11   Zn1   S    
C49   C50   A    
C4    O9    A    
C14   C15   A    
C3    C22   A    
C25   Cl1   S    
C16   C41   S    
C12   C54   A    
C54   C57   A    
