data_mof_unit_62069.cif
_audit_creation_date              2012-12-10T19:26:45-0500
_audit_creation_method            fapswitch 2.2
_symmetry_space_group_name_H-M    P1
_symmetry_Int_Tables_number       1
_space_group_crystal_system       triclinic
_cell_length_a                    19.163417
_cell_length_b                    10.495725
_cell_length_c                    9.833731
_cell_angle_alpha                 91.987887
_cell_angle_beta                  89.807494
_cell_angle_gamma                 90.655349
_cell_volume                      1976.56888346

loop_
_atom_site_label
_atom_site_type_symbol
_atom_type_description
_atom_site_fract_x
_atom_site_fract_y
_atom_site_fract_z
_atom_type_partial_charge
Br1   Br    Br    0.353412 0.390692 0.882702 -0.297606
Br2   Br    Br    0.341941 0.108994 0.538118 -0.358671
Br3   Br    Br    0.473219 0.213961 0.096715 -0.375657
Br4   Br    Br    0.526747 0.786052 0.903300 -0.375645
Br5   Br    Br    0.646582 0.609329 0.117303 -0.297770
Br6   Br    Br    0.137402 0.652389 0.752017 -0.305026
Br7   Br    Br    0.862865 0.349241 0.247795 -0.304968
Br8   Br    Br    0.127118 0.331282 0.258596 -0.251859
Br9   Br    Br    0.872665 0.670444 0.741178 -0.251864
Br10  Br    Br    0.299371 0.322749 0.254814 -0.265743
Br11  Br    Br    0.700379 0.677585 0.745272 -0.265912
Br12  Br    Br    0.658058 0.891035 0.461828 -0.358952
C1    C     C_R   0.501314 0.257863 0.498224 0.932794
C2    C     C_3   0.526708 0.034708 0.379367 -0.165734
C3    C     C_3   0.490304 0.386944 0.042953 0.292659
C4    C     C_3   0.509695 0.613056 0.957048 0.292743
C5    C     C_3   0.549074 0.428464 0.947378 -0.263408
C6    C     C_3   0.450926 0.571534 0.052622 -0.263427
C7    C     C_3   0.441566 0.458127 0.951135 0.307123
C8    C     C_3   0.558433 0.541874 0.048866 0.307162
C9    C     C_R   0.365865 0.496151 0.499746 0.938975
C10   C     C_R   0.634134 0.503903 0.500257 0.938829
C11   C     C_R   0.254634 0.555261 0.604820 -0.208721
C12   C     C_R   0.498685 0.742137 0.501775 0.932706
C13   C     C_R   0.745469 0.445484 0.395133 -0.208522
C14   C     C_R   0.182470 0.556829 0.607168 0.297629
C15   C     C_R   0.817645 0.444481 0.392685 0.297683
C16   C     C_R   0.145097 0.493234 0.502432 -0.143611
C17   C     C_R   0.854926 0.508365 0.497376 -0.143622
C18   C     C_R   0.179747 0.425350 0.397084 0.232013
C19   C     C_R   0.820170 0.575975 0.602767 0.232129
C20   C     C_R   0.252715 0.423427 0.395316 0.263868
C21   C     C_R   0.747188 0.577316 0.604647 0.264023
C22   C     C_R   0.290071 0.490750 0.499206 -0.204467
C23   C     C_3   0.540284 0.046915 0.602566 -0.189101
C24   C     C_R   0.709927 0.509703 0.500803 -0.204504
C25   C     C_R   0.930098 0.503494 0.497815 0.382268
C26   C     C_R   0.069928 0.498383 0.502100 0.382318
C27   C     C_3   0.459712 0.953086 0.397426 -0.189154
C28   C     C_3   0.564631 0.956797 0.485539 0.308501
C29   C     C_3   0.435364 0.043205 0.514451 0.308427
C30   C     C_3   0.498440 0.877298 0.503711 -0.137964
C31   C     C_3   0.501556 0.122703 0.496282 -0.138014
C32   C     C_3   0.473287 0.965295 0.620625 -0.165777
H1    H     H_    0.283187 0.607135 0.684413 0.212239
H2    H     H_    0.716992 0.393407 0.315568 0.212248
H3    H     H_    0.573688 0.088576 0.685201 0.205456
H4    H     H_    0.426309 0.911424 0.314791 0.205446
H5    H     H_    0.449222 0.935347 0.717228 0.225781
H6    H     H_    0.550771 0.064657 0.282763 0.225786
H7    H     H_    0.590307 0.368204 0.899669 0.199019
H8    H     H_    0.409693 0.631794 0.100332 0.199018
N1    N     N_R   0.036537 0.556012 0.400237 -0.088934
N2    N     N_R   0.963489 0.445885 0.599686 -0.089045
N3    N     N_R   0.967375 0.558689 0.398180 -0.077147
N4    N     N_R   0.032649 0.443207 0.601742 -0.077247
N5    N     N_3   0.499950 0.500030 0.863290 -0.154554
N6    N     N_3   0.500050 0.499970 0.136710 -0.154552
O1    O     O_R   0.500000 0.313960 0.616610 -0.605264
O2    O     O_R   0.500000 0.686040 0.383390 -0.605274
O3    O     O_R   0.500030 0.313950 0.383350 -0.578831
O4    O     O_R   0.499970 0.686050 0.616650 -0.578836
O5    O     O_R   0.398120 0.499990 0.616660 -0.587996
O6    O     O_R   0.601880 0.500010 0.383340 -0.587984
O7    O     O_R   0.398150 0.499980 0.383410 -0.589997
O8    O     O_R   0.601850 0.500020 0.616590 -0.589966
Zn1   Zn    Zn3+2 0.499980 0.500010 0.655740 1.052242
Zn2   Zn    Zn3+2 0.500020 0.499990 0.344260 1.052242

loop_
_geom_bond_atom_site_label_1
_geom_bond_atom_site_label_2
_ccdc_geom_bond_type
C32   H5    S    
Br4   C4    S    
C11   H1    S    
C15   C17   A    
C12   C30   S    
C23   H3    S    
C5    H7    S    
C6    H8    S    
C27   C29   S    
Br5   C8    S    
C2    H6    S    
C7    N5    S    
C3    C7    S    
O4    Zn1   S    
O6    Zn2   S    
Br2   C29   S    
C21   C24   A    
Br7   C15   S    
C6    C7    S    
C11   C14   A    
C10   O8    A    
O1    Zn1   S    
C2    C27   S    
C6    N6    S    
C19   C21   A    
C23   C31   S    
C4    C8    S    
O7    Zn2   S    
C28   C30   S    
O8    Zn1   S    
C29   C31   S    
C30   C32   S    
N5    Zn1   S    
C27   C30   S    
N2    N4    A    
N1    N3    A    
O5    Zn1   S    
Br1   C7    S    
Br11  C21   S    
C9    C22   S    
C10   O6    A    
C20   C22   A    
Br12  C28   S    
C16   C26   S    
C12   O2    A    
C11   C22   A    
C1    O3    A    
C23   C32   S    
C25   N2    A    
N6    Zn2   S    
C29   C32   S    
C8    N6    S    
C1    C31   S    
Br3   C3    S    
C3    C5    S    
C12   O4    A    
C9    O7    A    
C5    C8    S    
C1    O1    A    
C13   C15   A    
C10   C24   S    
C14   C16   A    
Br8   C18   S    
C16   C18   A    
C23   C28   S    
C17   C19   A    
C18   C20   A    
O3    Zn2   S    
Br6   C14   S    
C26   N1    A    
C3    N6    S    
C4    N5    S    
C9    O5    A    
Br9   C19   S    
C13   C24   A    
C2    C28   S    
C25   N3    A    
Br10  C20   S    
C26   N4    A    
O2    Zn2   S    
C4    C6    S    
C17   C25   S    
C27   H4    S    
C13   H2    S    
C5    N5    S    
C2    C31   S    
