data_mof_unit_44360.cif
_audit_creation_date              2012-12-11T15:50:44-0500
_audit_creation_method            fapswitch 2.2
_symmetry_space_group_name_H-M    P1
_symmetry_Int_Tables_number       1
_space_group_crystal_system       triclinic
_cell_length_a                    18.949773
_cell_length_b                    10.987208
_cell_length_c                    18.653823
_cell_angle_alpha                 90.098927
_cell_angle_beta                  90.938921
_cell_angle_gamma                 89.885323
_cell_volume                      3883.28621269

loop_
_atom_site_label
_atom_site_type_symbol
_atom_type_description
_atom_site_fract_x
_atom_site_fract_y
_atom_site_fract_z
_atom_type_partial_charge
C1    C     C_R   0.290553 0.996448 0.860763 0.557083
C2    C     C_R   0.709577 0.996532 0.139104 0.557532
C3    C     C_R   0.790552 0.496448 0.860763 0.557083
C4    C     C_R   0.209577 0.496532 0.139104 0.557532
C5    C     C_3   0.528985 0.728930 0.970780 -0.128162
C6    C     C_3   0.472133 0.728100 0.028719 -0.127815
C7    C     C_3   0.028985 0.228930 0.970780 -0.128162
C8    C     C_3   0.972133 0.228100 0.028719 -0.127815
C9    C     C_R   0.218727 0.511525 0.061738 0.006207
C10   C     C_R   0.781598 0.511168 0.938157 0.005379
C11   C     C_R   0.718727 0.011525 0.061738 0.006207
C12   C     C_R   0.281598 0.011168 0.938157 0.005379
C13   C     C_R   0.273830 0.456814 0.023893 0.016261
C14   C     C_R   0.726825 0.456103 0.976037 0.015979
C15   C     C_R   0.773830 0.956814 0.023893 0.016261
C16   C     C_R   0.226825 0.956103 0.976037 0.015979
C17   C     C_R   0.285285 0.486032 0.952458 0.020547
C18   C     C_R   0.715255 0.485645 0.047459 0.020743
C19   C     C_R   0.785285 0.986032 0.952458 0.020547
C20   C     C_R   0.215255 0.985645 0.047459 0.020743
C21   C     C_R   0.177315 0.600176 0.949764 -0.161146
C22   C     C_R   0.822590 0.600914 0.049988 -0.159739
C23   C     C_R   0.677315 0.100176 0.949764 -0.161146
C24   C     C_R   0.322590 0.100914 0.049988 -0.159739
C25   C     C_R   0.167262 0.575201 0.021959 -0.166474
C26   C     C_R   0.832779 0.575444 0.977858 -0.167016
C27   C     C_R   0.667262 0.075201 0.021959 -0.166474
C28   C     C_R   0.332779 0.075444 0.977858 -0.167016
C29   C     C_3   0.350926 0.452501 0.040474 -0.264796
C30   C     C_3   0.649745 0.450791 0.959531 -0.263667
C31   C     C_3   0.850926 0.952501 0.040474 -0.264797
C32   C     C_3   0.149745 0.950791 0.959531 -0.263667
C33   C     C_3   0.363352 0.483854 0.962189 -0.274334
C34   C     C_3   0.637187 0.482736 0.037782 -0.275043
C35   C     C_3   0.863352 0.983854 0.962189 -0.274334
C36   C     C_3   0.137187 0.982736 0.037782 -0.275043
C37   C     C_R   0.240635 0.567663 0.916143 0.021162
C38   C     C_R   0.759516 0.567848 0.083705 0.023856
C39   C     C_R   0.740634 0.067663 0.916143 0.021162
C40   C     C_R   0.259516 0.067848 0.083705 0.023856
C41   C     C_R   0.509855 0.830770 0.428104 0.025815
C42   C     C_R   0.505303 0.844274 0.578773 0.023969
C43   C     C_R   0.009855 0.330770 0.428104 0.025815
C44   C     C_R   0.005303 0.344274 0.578773 0.023969
C45   C     C_R   0.469615 0.821560 0.855715 0.541360
C46   C     C_R   0.530496 0.821506 0.144234 0.549002
C47   C     C_R   0.969615 0.321560 0.855715 0.541360
C48   C     C_R   0.030496 0.321506 0.144234 0.549002
C49   C     C_R   0.538687 0.740470 0.472247 0.004177
C50   C     C_R   0.537408 0.746509 0.545148 -0.012203
C51   C     C_R   0.038687 0.240470 0.472247 0.004177
C52   C     C_R   0.037408 0.246509 0.545148 -0.012203
C53   C     C_R   0.490297 0.951082 0.536520 -0.052706
C54   C     C_R   0.487086 0.940473 0.460359 -0.065600
C55   C     C_R   0.990297 0.451082 0.536520 -0.052706
C56   C     C_R   0.987086 0.440473 0.460359 -0.065600
C57   C     C_3   0.531311 0.605334 0.471202 -0.261360
C58   C     C_3   0.533455 0.610952 0.552484 -0.270101
C59   C     C_3   0.031310 0.105334 0.471202 -0.261360
C60   C     C_3   0.033455 0.110952 0.552484 -0.270101
C61   C     C_R   0.252968 0.615970 0.415554 0.023395
C62   C     C_R   0.751178 0.583292 0.576096 0.015475
C63   C     C_R   0.752968 0.115970 0.415554 0.023395
C64   C     C_R   0.251178 0.083293 0.576096 0.015475
C65   C     C_R   0.202999 0.686492 0.451325 0.027444
C66   C     C_R   0.796644 0.662951 0.543531 0.009553
C67   C     C_R   0.702999 0.186492 0.451325 0.027444
C68   C     C_R   0.296644 0.162951 0.543531 0.009553
C69   C     C_R   0.212115 0.713516 0.522372 -0.000230
C70   C     C_R   0.797849 0.670684 0.470907 0.032985
C71   C     C_R   0.712115 0.213516 0.522372 -0.000230
C72   C     C_R   0.297849 0.170684 0.470907 0.032985
C73   C     C_R   0.328781 0.627602 0.520884 -0.157696
C74   C     C_R   0.711936 0.509616 0.459308 -0.163451
C75   C     C_R   0.828781 0.127602 0.520884 -0.157696
C76   C     C_R   0.211935 0.009616 0.459308 -0.163451
C77   C     C_R   0.319196 0.597260 0.448263 -0.160117
C78   C     C_R   0.709693 0.504210 0.533578 -0.167329
C79   C     C_R   0.819196 0.097260 0.448263 -0.160117
C80   C     C_R   0.209693 0.004210 0.533578 -0.167329
C81   C     C_3   0.125599 0.664014 0.460329 -0.272925
C82   C     C_3   0.803698 0.796510 0.554760 -0.283391
C83   C     C_3   0.625598 0.164014 0.460329 -0.272925
C84   C     C_3   0.303698 0.296510 0.554760 -0.283391
C85   C     C_3   0.136380 0.690314 0.538710 -0.247053
C86   C     C_3   0.805066 0.806350 0.474156 -0.251314
C87   C     C_3   0.636380 0.190314 0.538710 -0.247053
C88   C     C_3   0.305066 0.306350 0.474156 -0.251314
C89   C     C_R   0.259705 0.633908 0.850934 0.546879
C90   C     C_R   0.740318 0.633972 0.149035 0.543080
C91   C     C_R   0.759705 0.133908 0.850934 0.546879
C92   C     C_R   0.240318 0.133972 0.149035 0.543080
C93   C     C_R   0.272347 0.676291 0.559753 0.011934
C94   C     C_R   0.753315 0.598458 0.427889 0.054231
C95   C     C_R   0.772347 0.176291 0.559753 0.011934
C96   C     C_R   0.253315 0.098458 0.427889 0.054231
C97   C     C_R   0.270505 0.046674 0.646923 0.548130
C98   C     C_R   0.729472 0.049836 0.352339 0.543522
C99   C     C_R   0.770505 0.546674 0.646923 0.548130
C100  C     C_R   0.229472 0.549836 0.352339 0.543522
C101  C     C_R   0.471108 0.825334 0.647590 0.559780
C102  C     C_R   0.529902 0.823436 0.353210 0.597440
C103  C     C_R   0.971108 0.325335 0.647590 0.559780
C104  C     C_R   0.029902 0.323436 0.353210 0.597440
C105  C     C_R   0.274893 0.691603 0.636962 0.566805
C106  C     C_R   0.740612 0.637578 0.356122 0.571969
C107  C     C_R   0.774893 0.191603 0.636962 0.566805
C108  C     C_R   0.240612 0.137578 0.356122 0.571969
C109  C     C_3   0.471181 0.927978 0.029488 -0.123705
C110  C     C_3   0.528154 0.928791 0.970912 -0.124767
C111  C     C_3   0.971181 0.427978 0.029488 -0.123705
C112  C     C_3   0.028154 0.428791 0.970912 -0.124767
C113  C     C_3   0.430193 0.827425 0.988373 -0.112794
C114  C     C_3   0.570023 0.828741 0.011591 -0.114532
C115  C     C_3   0.930193 0.327425 0.988373 -0.112794
C116  C     C_3   0.070022 0.328741 0.011591 -0.114532
C117  C     C_3   0.487972 0.828396 0.931357 0.057236
C118  C     C_3   0.512236 0.828105 0.068583 0.056801
C119  C     C_3   0.987972 0.328396 0.931357 0.057236
C120  C     C_3   0.012235 0.328105 0.068583 0.056801
Cr1   Cr    Cr6+3 0.229640 0.835880 0.747370 1.015475
Cr2   Cr    Cr6+3 0.770360 0.835880 0.252630 1.021341
Cr3   Cr    Cr6+3 0.729640 0.335880 0.747370 1.015475
Cr4   Cr    Cr6+3 0.270360 0.335880 0.252630 1.021341
Cr5   Cr    Cr6+3 0.387390 0.989720 0.750850 1.057432
Cr6   Cr    Cr6+3 0.612610 0.989720 0.249150 1.032993
Cr7   Cr    Cr6+3 0.887390 0.489720 0.750850 1.057432
Cr8   Cr    Cr6+3 0.112610 0.489720 0.249150 1.032993
Cr9   Cr    Cr6+3 0.385770 0.677220 0.749340 1.005206
Cr10  Cr    Cr6+3 0.614230 0.677220 0.250660 1.008534
Cr11  Cr    Cr6+3 0.885770 0.177220 0.749340 1.005206
Cr12  Cr    Cr6+3 0.114230 0.177220 0.250660 1.008534
H1    H     H_    0.372647 0.822961 0.977020 0.110778
H2    H     H_    0.627579 0.824954 0.022956 0.110704
H3    H     H_    0.872647 0.322961 0.977020 0.110778
H4    H     H_    0.127580 0.324954 0.022956 0.110704
H5    H     H_    0.077173 0.059380 0.447586 0.155160
H6    H     H_    0.985391 0.074500 0.576996 0.155972
H7    H     H_    0.577173 0.559380 0.447586 0.155160
H8    H     H_    0.485391 0.574500 0.576996 0.155972
H9    H     H_    0.479565 0.575534 0.448867 0.128781
H10   H     H_    0.582521 0.573704 0.576805 0.141519
H11   H     H_    0.979565 0.075534 0.448867 0.128781
H12   H     H_    0.082521 0.073704 0.576805 0.141519
H13   H     H_    0.377061 0.602930 0.547905 0.130563
H14   H     H_    0.678578 0.450490 0.427003 0.123116
H15   H     H_    0.877061 0.102930 0.547905 0.130563
H16   H     H_    0.178579 0.950490 0.427003 0.123116
H17   H     H_    0.360043 0.548324 0.420434 0.117334
H18   H     H_    0.676382 0.437535 0.558055 0.135867
H19   H     H_    0.860043 0.048324 0.420434 0.117334
H20   H     H_    0.176382 0.937535 0.558055 0.135867
H21   H     H_    0.110468 0.567864 0.450273 0.155625
H22   H     H_    0.854741 0.821191 0.581119 0.151736
H23   H     H_    0.610468 0.067864 0.450273 0.155625
H24   H     H_    0.354741 0.321191 0.581119 0.151736
H25   H     H_    0.107100 0.772021 0.556862 0.150628
H26   H     H_    0.757851 0.853955 0.451917 0.156466
H27   H     H_    0.607100 0.272021 0.556862 0.150628
H28   H     H_    0.257850 0.353955 0.451917 0.156466
H29   H     H_    0.130019 0.607863 0.572419 0.202640
H30   H     H_    0.856831 0.836873 0.453663 0.135631
H31   H     H_    0.630019 0.107863 0.572419 0.202640
H32   H     H_    0.356831 0.336873 0.453663 0.135631
H33   H     H_    0.451834 0.009113 0.058203 0.115433
H34   H     H_    0.546882 0.010676 0.942767 0.113933
H35   H     H_    0.951834 0.509113 0.058203 0.115433
H36   H     H_    0.046881 0.510676 0.942767 0.113933
H37   H     H_    0.549311 0.648211 0.942753 0.116159
H38   H     H_    0.452713 0.646505 0.056280 0.116325
H39   H     H_    0.049311 0.148211 0.942753 0.116159
H40   H     H_    0.952713 0.146505 0.056280 0.116325
H41   H     H_    0.137713 0.654580 0.922378 0.130903
H42   H     H_    0.861890 0.656057 0.077231 0.131362
H43   H     H_    0.637713 0.154580 0.922378 0.130903
H44   H     H_    0.361890 0.156057 0.077231 0.131362
H45   H     H_    0.120265 0.610431 0.047057 0.139231
H46   H     H_    0.879569 0.610980 0.952737 0.139704
H47   H     H_    0.620265 0.110431 0.047057 0.139231
H48   H     H_    0.379569 0.110980 0.952737 0.139704
H49   H     H_    0.869332 0.859919 0.054942 0.137693
H50   H     H_    0.131895 0.857895 0.945223 0.139071
H51   H     H_    0.369332 0.359919 0.054942 0.137693
H52   H     H_    0.631895 0.357895 0.945223 0.139071
H53   H     H_    0.366301 0.524176 0.079480 0.145638
H54   H     H_    0.633894 0.521798 0.920397 0.145346
H55   H     H_    0.866301 0.024176 0.079480 0.145638
H56   H     H_    0.133894 0.021798 0.920397 0.145346
H57   H     H_    0.387177 0.574514 0.953608 0.156019
H58   H     H_    0.612867 0.573274 0.046230 0.155788
H59   H     H_    0.887177 0.074514 0.953608 0.156019
H60   H     H_    0.112867 0.073274 0.046230 0.155788
H61   H     H_    0.388003 0.408263 0.931769 0.142847
H62   H     H_    0.612939 0.407208 0.068297 0.141746
H63   H     H_    0.888003 0.908263 0.931769 0.142847
H64   H     H_    0.112939 0.907208 0.068297 0.141746
O1    O     O_R   0.214300 0.709080 0.827500 -0.524504
O2    O     O_R   0.785700 0.709080 0.172500 -0.525699
O3    O     O_R   0.714300 0.209080 0.827500 -0.524504
O4    O     O_R   0.285700 0.209080 0.172500 -0.525699
O5    O     O_R   0.445900 0.919370 0.676500 -0.447159
O6    O     O_R   0.554100 0.919370 0.323500 -0.473332
O7    O     O_R   0.945900 0.419370 0.676500 -0.447159
O8    O     O_R   0.054100 0.419370 0.323500 -0.473332
O9    O     O_R   0.456660 0.717710 0.669820 -0.542490
O10   O     O_R   0.543340 0.717710 0.330180 -0.524945
O11   O     O_R   0.956660 0.217710 0.669820 -0.542490
O12   O     O_R   0.043340 0.217710 0.330180 -0.524945
O13   O     O_R   0.320590 0.625770 0.672930 -0.505368
O14   O     O_R   0.679410 0.625770 0.327070 -0.515634
O15   O     O_R   0.820590 0.125770 0.672930 -0.505368
O16   O     O_R   0.179410 0.125770 0.327070 -0.515634
O17   O     O_3   0.334270 0.834280 0.749190 -0.303297
O18   O     O_3   0.665730 0.834280 0.250810 -0.282625
O19   O     O_3   0.834270 0.334280 0.749190 -0.303297
O20   O     O_3   0.165730 0.334280 0.250810 -0.282625
O21   O     O_R   0.236190 0.958390 0.823150 -0.500301
O22   O     O_R   0.763810 0.958390 0.176850 -0.498938
O23   O     O_R   0.736190 0.458390 0.823150 -0.500301
O24   O     O_R   0.263810 0.458390 0.176850 -0.498938
O25   O     O_R   0.332090 0.075280 0.831290 -0.515169
O26   O     O_R   0.667910 0.075280 0.168710 -0.517244
O27   O     O_R   0.832090 0.575280 0.831290 -0.515169
O28   O     O_R   0.167910 0.575280 0.168710 -0.517244
O29   O     O_R   0.446280 0.918040 0.826620 -0.515394
O30   O     O_R   0.553720 0.918040 0.173380 -0.514422
O31   O     O_R   0.946280 0.418040 0.826620 -0.515394
O32   O     O_R   0.053720 0.418040 0.173380 -0.514422
O33   O     O_R   0.457080 0.716270 0.831760 -0.525045
O34   O     O_R   0.542920 0.716270 0.168240 -0.525528
O35   O     O_R   0.957080 0.216270 0.831760 -0.525045
O36   O     O_R   0.042920 0.216270 0.168240 -0.525528
O37   O     O_R   0.320980 0.624440 0.823040 -0.497598
O38   O     O_R   0.679020 0.624440 0.176960 -0.503046
O39   O     O_R   0.820980 0.124440 0.823040 -0.497598
O40   O     O_R   0.179020 0.124440 0.176960 -0.503046
O41   O     O_R   0.213880 0.710510 0.665560 -0.506416
O42   O     O_R   0.786120 0.710510 0.334440 -0.493632
O43   O     O_R   0.713880 0.210510 0.665560 -0.506416
O44   O     O_R   0.286120 0.210510 0.334440 -0.493632
O45   O     O_R   0.235800 0.959720 0.673040 -0.527467
O46   O     O_R   0.764200 0.959720 0.326960 -0.513003
O47   O     O_R   0.735800 0.459720 0.673040 -0.527467
O48   O     O_R   0.264200 0.459720 0.326960 -0.513003
O49   O     O_R   0.331670 0.076720 0.669350 -0.493611
O50   O     O_R   0.668330 0.076720 0.330650 -0.517843
O51   O     O_R   0.831670 0.576720 0.669350 -0.493611
O52   O     O_R   0.168330 0.576720 0.330650 -0.517843
C121  C     C_2   0.475526 0.071663 0.570025 0.230710
H65   H     H_    0.438256 0.134219 0.545681 0.097506
O53   O     O_2   0.507279 0.104663 0.624103 -0.507229
C122  C     C_2   0.458477 0.041570 0.415242 0.223774
H66   H     H_    0.466655 0.135769 0.430447 0.076880
O54   O     O_2   0.424084 0.020092 0.360764 -0.487746
C123  C     C_2   0.975526 0.571662 0.570025 0.230710
H67   H     H_    0.938256 0.634219 0.545681 0.097506
O55   O     O_2   0.007279 0.604663 0.624103 -0.507229
C124  C     C_2   0.958477 0.541570 0.415242 0.223774
H68   H     H_    0.966655 0.635769 0.430447 0.076880
O56   O     O_2   0.924083 0.520092 0.360764 -0.487746
H69   H     H_    0.092523 0.733299 0.432208 0.130072
H70   H     H_    0.756065 0.838374 0.578787 0.148780
H71   H     H_    0.592523 0.233299 0.432208 0.130072
H72   H     H_    0.256064 0.338374 0.578787 0.148780

loop_
_geom_bond_atom_site_label_1
_geom_bond_atom_site_label_2
_ccdc_geom_bond_type
C73   C77   A    
C87   H31   S    
C55   C56   A    
C123  O55   D    
C15   C19   A    
C67   C83   S    
C110  H34   S    
C7    H39   S    
C5    C114  S    
Cr6   O50   S    
C85   H29   S    
C5    C117  S    
C14   C18   A    
C83   H71   S    
C111  C112  S    
Cr12  O16   S    
C73   C93   A    
C13   C29   S    
C99   O51   A    
Cr11  O11   S    
Cr8   O28   S    
Cr3   O47   S    
Cr5   O49   S    
C9    C25   A    
C7    C8    S    
Cr2   O46   S    
C63   C79   A    
C53   C54   A    
Cr6   O6    S    
C23   H43   S    
Cr1   O45   S    
Cr5   O25   S    
C111  C115  S    
C69   C93   A    
C46   C118  S    
C121  H65   S    
C17   C33   S    
C12   C28   A    
C100  O52   A    
C6    H38   S    
C64   C68   A    
C32   H50   S    
C16   C20   A    
C70   C94   A    
C103  O11   A    
C98   O50   A    
C63   C98   S    
Cr3   O19   S    
C29   H53   S    
C42   C53   A    
C97   O49   A    
C5    C6    S    
Cr4   O44   S    
C72   C96   A    
C65   C69   A    
C83   H23   S    
C59   H5    S    
C115  H3    S    
Cr11  O35   S    
C22   C38   A    
Cr9   O33   S    
C2    O26   A    
C49   C57   S    
C41   C102  S    
C57   H7    S    
C90   O38   A    
C33   H57   S    
Cr8   O8    S    
C89   O37   A    
C19   C35   S    
C9    C13   A    
C43   C104  S    
C109  H33   S    
C1    O25   A    
Cr3   O23   S    
C52   C60   S    
C8    C115  S    
C93   C105  S    
C43   C51   A    
C64   C80   A    
C11   C15   A    
C41   C49   A    
C108  O44   A    
C12   C16   A    
C29   C33   S    
C61   C77   A    
C4    O24   A    
C82   H70   S    
Cr5   O17   S    
C76   C80   A    
Cr12  O20   S    
C91   O39   A    
Cr4   O24   S    
Cr4   O48   S    
Cr6   O18   S    
C110  C114  S    
C67   C71   A    
C105  O41   A    
C100  O48   A    
Cr7   O27   S    
C91   O3    A    
C10   C26   A    
C55   C123  S    
C47   C119  S    
C96   C108  S    
C59   H11   S    
C59   C60   S    
C113  H1    S    
C95   C107  S    
C99   O47   A    
C46   O34   A    
Cr7   O7    S    
Cr6   O30   S    
C1    C12   S    
C85   H25   S    
C14   C30   S    
Cr5   O29   S    
C2    C11   S    
Cr12  O36   S    
C110  C117  S    
C39   C91   S    
C108  O16   A    
C44   C103  S    
C74   H14   S    
C109  C118  S    
Cr3   O43   S    
C26   H46   S    
C114  H2    S    
Cr11  O15   S    
C63   C67   A    
C121  O53   D    
C60   H6    S    
C30   C34   S    
C75   C95   A    
C51   C52   A    
C68   C84   S    
C7    C119  S    
C34   H58   S    
C8    H40   S    
C22   C26   A    
C48   C120  S    
C22   H42   S    
C77   H17   S    
C57   H9    S    
C102  O10   A    
C62   C66   A    
C81   H69   S    
C20   C36   S    
C53   C121  S    
Cr11  O39   S    
C6    C118  S    
C4    O28   A    
Cr11  O19   S    
C15   C31   S    
C92   O40   A    
C40   C92   S    
C116  C120  S    
C115  C119  S    
Cr9   O37   S    
C111  C120  S    
Cr1   O17   S    
C7    C116  S    
C28   H48   S    
C36   H64   S    
C6    C113  S    
Cr10  O10   S    
C61   C65   A    
C76   C96   A    
C66   C82   S    
C47   O31   A    
Cr9   O9    S    
C38   C90   S    
C58   H10   S    
C44   C52   A    
C65   C81   S    
C45   O33   A    
C5    H37   S    
C20   C40   A    
C11   C27   A    
C88   H32   S    
C68   C72   A    
Cr5   O5    S    
Cr6   O26   S    
C46   O30   A    
C50   C58   S    
C21   C37   A    
C78   H18   S    
C45   O29   A    
Cr2   O2    S    
C88   H28   S    
C35   H59   S    
C109  C113  S    
C86   H26   S    
Cr1   O1    S    
C114  C118  S    
Cr7   O51   S    
C19   C39   A    
Cr8   O20   S    
C70   C86   S    
C86   H30   S    
Cr7   O19   S    
Cr7   O31   S    
C47   O35   A    
C3    O23   A    
C64   C97   S    
C42   C50   A    
Cr12  O12   S    
C23   C27   A    
C71   C87   S    
C113  C117  S    
Cr10  O14   S    
C61   C100  S    
C51   C59   S    
C17   C37   A    
C105  O13   A    
Cr9   O13   S    
C48   O36   A    
C24   H44   S    
C42   C101  S    
C104  O8    A    
C124  O56   D    
C112  C116  S    
C69   C85   S    
C81   H21   S    
C8    C120  S    
C122  O54   D    
Cr4   O20   S    
C79   H19   S    
C58   H8    S    
C80   H20   S    
C48   O32   A    
C21   C25   A    
C94   C106  S    
C3    O27   A    
Cr8   O52   S    
Cr2   O22   S    
C36   H60   S    
C30   H52   S    
C62   C78   A    
C56   C124  S    
C24   C28   A    
C27   H47   S    
C54   C122  S    
C106  O14   A    
Cr10  O38   S    
C83   C87   S    
Cr3   O3    S    
C112  C119  S    
C101  O9    A    
C32   C36   S    
C29   H51   S    
C116  H4    S    
C35   H63   S    
C16   C32   S    
Cr1   O21   S    
C89   O1    A    
C90   O2    A    
Cr4   O4    S    
C21   H41   S    
C37   C89   S    
C72   C88   S    
C75   H15   S    
C124  H68   S    
C18   C38   A    
C3    C10   S    
C101  O5    A    
C109  C110  S    
C60   H12   S    
C107  O15   A    
C82   C86   S    
C62   C99   S    
C84   H24   S    
C44   C55   A    
C34   H62   S    
C57   C58   S    
Cr2   O42   S    
C84   C88   S    
C107  O43   A    
C18   C34   S    
Cr1   O41   S    
C32   H56   S    
C74   C78   A    
C24   C40   A    
Cr12  O40   S    
C87   H27   S    
Cr10  O18   S    
C31   C35   S    
C104  O12   A    
C41   C54   A    
Cr9   O17   S    
Cr8   O32   S    
C103  O7    A    
C45   C117  S    
C98   O46   A    
C111  H35   S    
C33   H61   S    
C13   C17   A    
C82   H22   S    
Cr2   O18   S    
C43   C56   A    
C30   H54   S    
C71   C95   A    
C66   C70   A    
C76   H16   S    
C102  O6    A    
C81   C85   S    
C49   C50   A    
C106  O42   A    
C73   H13   S    
C74   C94   A    
C2    O22   A    
Cr10  O34   S    
C84   H72   S    
C1    O21   A    
C97   O45   A    
C31   H55   S    
C4    C9    S    
C92   O4    A    
C25   H45   S    
C75   C79   A    
C23   C39   A    
C31   H49   S    
C123  H67   S    
C10   C14   A    
C122  H66   S    
C112  H36   S    
