data_mof_unit_66679.cif
_audit_creation_date              2013-03-05T16:47:54-0500
_audit_creation_method            fapswitch 2.2
_symmetry_space_group_name_H-M    P1
_symmetry_Int_Tables_number       1
_space_group_crystal_system       triclinic
_cell_length_a                    10.893641
_cell_length_b                    10.919863
_cell_length_c                    9.699483
_cell_angle_alpha                 91.661432
_cell_angle_beta                  90.251394
_cell_angle_gamma                 93.965795
_cell_volume                      1150.55169799

loop_
_atom_site_label
_atom_site_type_symbol
_atom_site_description
_atom_site_fract_x
_atom_site_fract_y
_atom_site_fract_z
_atom_type_partial_charge
O1    O     O_R   0.499990 0.319640 0.618810 -0.574812
O2    O     O_R   0.500000 0.319660 0.381240 -0.520450
C1    C     C_R   0.499971 0.262322 0.498647 0.836860
O3    O     O_R   0.319640 0.500000 0.618780 -0.562573
O4    O     O_R   0.319650 0.500020 0.381210 -0.591290
C2    C     C_R   0.263849 0.506185 0.499923 0.808324
Cu1   Cu    Cu3+1 0.499990 0.499990 0.640660 1.029633
Cu2   Cu    Cu3+1 0.500010 0.500010 0.359340 1.028577
O5    O     O_R   0.500000 0.680340 0.618760 -0.583414
O6    O     O_R   0.500010 0.680360 0.381190 -0.607299
O7    O     O_R   0.680350 0.499980 0.618790 -0.531734
O8    O     O_R   0.680360 0.500000 0.381220 -0.565791
C3    C     C_R   0.489444 0.736410 0.502957 0.861560
C4    C     C_R   0.737255 0.491252 0.498470 0.864307
C5    C     C_R   0.128810 0.853595 0.200693 -0.117265
H1    H     H_    0.109143 0.949105 0.212387 0.218680
C6    C     C_R   0.112883 0.776510 0.312591 -0.215620
H2    H     H_    0.078382 0.813056 0.408777 0.201613
C7    C     C_R   0.129445 0.650539 0.296598 0.088861
C8    C     C_R   0.170467 0.604444 0.169183 -0.064658
H3    H     H_    0.178900 0.506856 0.152979 0.189071
C9    C     C_R   0.187248 0.682057 0.057605 -0.101227
H4    H     H_    0.213684 0.644691 0.958338 0.169945
C10   C     C_R   0.162952 0.805959 0.072301 0.390611
C11   C     C_R   0.940576 0.543462 0.385027 0.271011
C12   C     C_R   0.872718 0.484831 0.491691 -0.081405
C13   C     C_R   0.937496 0.415297 0.584588 0.116360
C14   C     C_R   0.065524 0.433374 0.591727 -0.112574
H5    H     H_    0.115862 0.376754 0.658738 0.204526
C15   C     C_R   0.130841 0.508377 0.499678 -0.133141
C16   C     C_R   0.067975 0.565965 0.396122 -0.017514
C17   C     C_R   0.904107 0.261786 0.770217 0.296304
C18   C     C_R   0.894868 0.138808 0.807083 -0.199881
H6    H     H_    0.910176 0.114678 0.912995 0.223633
C19   C     C_R   0.870889 0.046070 0.707138 -0.224492
H7    H     H_    0.869770 0.951288 0.735926 0.232207
C20   C     C_R   0.851013 0.075053 0.570096 0.279934
C21   C     C_R   0.859055 0.198329 0.530890 0.210806
C22   C     C_R   0.887947 0.293489 0.631358 -0.183385
C23   C     C_R   0.595424 0.130932 0.731224 -0.180212
H8    H     H_    0.647242 0.217779 0.720128 0.175269
C24   C     C_R   0.587916 0.085111 0.862494 -0.175342
H9    H     H_    0.628444 0.140150 0.947833 0.210668
C25   C     C_R   0.522762 0.973132 0.883907 0.403276
C26   C     C_R   0.483616 0.898782 0.768917 -0.181758
H10   H     H_    0.434804 0.811521 0.787308 0.189983
C27   C     C_R   0.498692 0.942374 0.633593 0.082131
C28   C     C_R   0.533613 0.067768 0.619361 0.066292
C29   C     C_R   0.496990 0.127141 0.498960 -0.130960
C30   C     C_R   0.437233 0.055318 0.391653 0.333992
H11   H     H_    0.399351 0.873482 0.306282 0.225501
C31   C     C_R   0.435905 0.927787 0.394024 -0.156016
C32   C     C_R   0.473075 0.869611 0.511862 -0.149780
H12   H     H_    0.366839 0.354515 0.123862 0.205662
C33   C     C_R   0.643517 0.678737 0.156827 -0.006203
H13   H     H_    0.664850 0.672336 0.262636 0.219833
C34   C     C_R   0.705442 0.777224 0.098834 -0.110604
H14   H     H_    0.758362 0.845091 0.162017 0.225645
C35   C     C_R   0.708654 0.783945 0.959478 -0.186794
H15   H     H_    0.767625 0.857196 0.917165 0.167447
C36   C     C_R   0.658529 0.687602 0.874783 0.360284
C37   C     C_R   0.576466 0.589269 0.930315 0.043561
C38   C     C_R   0.572106 0.588525 0.079604 0.201979
N1    N     N_R   0.501190 0.501210 0.147910 -0.220969
C39   C     C_R   0.427881 0.419273 0.071228 -0.053299
C40   C     C_R   0.426910 0.418933 0.924936 0.343899
N2    N     N_R   0.501230 0.501290 0.852040 -0.235386
Br1   Br    Br    0.170327 0.908853 0.915954 -0.443837
Br2   Br    Br    0.824883 0.943605 0.435908 -0.456439
N3    N     N_R   0.852297 0.224875 0.387276 0.136026
O9    O     O_R   0.952689 0.254286 0.320170 -0.300858
O10   O     O_R   0.750123 0.199421 0.319055 -0.300609
Br3   Br    Br    0.342645 0.122710 0.248145 -0.420330
N4    N     N_R   0.500915 0.933954 0.021900 0.130852
O11   O     O_R   0.559651 0.991051 0.124533 -0.339609
O12   O     O_R   0.433556 0.833788 0.044748 -0.426059
N5    N     N_R   0.732834 0.677308 0.756352 0.143238
O13   O     O_R   0.837156 0.627814 0.772976 -0.323609
O14   O     O_R   0.728043 0.759435 0.662479 -0.391682
Br4   Br    Br    0.313840 0.299672 0.836216 -0.429405
Br5   Br    Br    0.876740 0.549020 0.200881 -0.417888
Br6   Br    Br    0.951886 0.382375 0.910500 -0.362187

loop_
_geom_bond_atom_site_label_1
_geom_bond_atom_site_label_2
_geom_bond_distance
_ccdc_geom_bond_type
C11   C16   1.395720 A    
C33   H13   1.056629 S    
C21   N3    1.433631 S    
C23   H8    1.077975 S    
C20   Br2   1.915034 S    
C19   H7    1.079082 S    
C7    C16   1.484926 S    
C1    C29   1.474357 S    
Cu1   Cu2   2.728666 S    
H12   C39   1.077850 S    
N5    O13   1.303085 A    
C25   C26   1.407283 A    
Cu1   O7    1.977128 S    
C12   C13   1.412299 A    
C37   C38   1.449253 A    
N4    O12   1.299394 A    
C37   N2    1.419323 A    
C14   H5    1.082822 S    
C19   C20   1.394720 A    
C15   C16   1.401258 A    
O7    C4    1.327943 A    
C34   C35   1.356277 A    
C5    H1    1.082030 S    
C5    C6    1.396804 A    
C17   C22   1.413598 A    
O5    C3    1.303162 A    
C6    C7    1.403946 A    
C7    C8    1.407221 A    
C13   C22   1.484664 S    
C33   C38   1.408087 A    
C30   C31   1.392563 A    
N3    O9    1.301019 A    
C27   C32   1.419631 A    
C23   C24   1.382176 A    
C40   N2    1.380351 A    
C35   H15   1.082223 S    
C11   Br5   1.917996 S    
C24   C25   1.392150 A    
O3    Cu1   1.975179 S    
C18   H6    1.082980 S    
C3    C32   1.477719 S    
C26   C27   1.415537 A    
C21   C22   1.421914 A    
C35   C36   1.395109 A    
N4    O11   1.300917 A    
H11   C31   1.081487 S    
O3    C2    1.306545 A    
C30   Br3   1.921597 S    
C36   N5    1.414452 S    
C11   C12   1.416476 A    
C26   H10   1.078493 S    
O1    C1    1.306858 A    
C20   C21   1.406442 A    
C27   C28   1.406441 A    
Cu2   O8    1.975179 S    
C6    H2    1.083130 S    
N5    O14   1.299783 A    
C4    C12   1.483839 S    
C25   N4    1.432850 S    
Cu2   N1    2.051274 S    
C5    C10   1.397517 A    
C2    C15   1.450781 S    
C8    C9    1.398739 A    
C29   C30   1.413608 A    
C33   C34   1.366080 A    
C9    C10   1.399870 A    
C24   H9    1.082840 S    
C40   Br4   1.912482 S    
C31   C32   1.395539 A    
Cu1   O5    1.986926 S    
C23   C28   1.411504 A    
C28   C29   1.420889 A    
O1    Cu1   1.974649 S    
O2    Cu2   1.986926 S    
O8    C4    1.301898 A    
O6    C3    1.323566 A    
O4    Cu2   1.977128 S    
C17   Br6   1.910865 S    
C17   C18   1.396728 A    
C14   C15   1.393414 A    
O2    C1    1.315367 A    
N1    C39   1.359737 A    
C34   H14   1.081022 S    
O4    C2    1.306599 A    
C18   C19   1.392047 A    
C36   C37   1.465362 A    
C10   Br1   1.912073 S    
Cu1   N2    2.049894 S    
C38   N1    1.372626 A    
C8    H3    1.082918 S    
Cu2   O6    1.974648 S    
C39   C40   1.418841 A    
C13   C14   1.396141 A    
C9    H4    1.082772 S    
N3    O10   1.301570 A    
