data_mof_unit_24666.cif
_audit_creation_date              2012-10-26T21:13:36-0400
_audit_creation_method            fapswitch 2.2
_symmetry_space_group_name_H-M    P1
_symmetry_Int_Tables_number       1
_space_group_crystal_system       triclinic
_cell_length_a                    9.07324
_cell_length_b                    10.826831
_cell_length_c                    9.559871
_cell_angle_alpha                 90.258329
_cell_angle_beta                  89.909322
_cell_angle_gamma                 90.381525
_cell_volume                      939.077039745

loop_
_atom_site_label
_atom_site_type_symbol
_atom_type_description
_atom_site_fract_x
_atom_site_fract_y
_atom_site_fract_z
_atom_type_partial_charge
C1    C     C_R   0.496759 0.262417 0.499709 0.564648
C2    C     C_R   0.592128 0.577335 0.926327 0.127220
C3    C     C_3   0.757289 0.576604 0.921829 0.161784
C4    C     C_R   0.220712 0.499968 0.500045 0.554011
C5    C     C_3   0.756559 0.580007 0.081201 0.109428
C6    C     C_R   0.497414 0.737677 0.500097 0.552245
C7    C     C_R   0.779263 0.500102 0.499963 0.564571
C8    C     C_1   0.065536 0.500082 0.500084 -0.034077
C9    C     C_1   0.934403 0.500134 0.499933 -0.033240
C10   C     C_R   0.483170 0.064331 0.625006 0.014366
C11   C     C_R   0.481768 0.129357 0.499329 0.010979
C12   C     C_R   0.460692 0.934877 0.373956 -0.144472
C13   C     C_R   0.460266 0.063755 0.373674 -0.159790
C14   C     C_R   0.482624 0.870773 0.499894 0.008897
C15   C     C_R   0.483753 0.937085 0.625292 -0.020392
C16   C     C_3   0.588288 0.930855 0.745617 -0.233969
C17   C     C_3   0.587154 0.071491 0.746693 0.113563
C18   C     C_R   0.591785 0.577845 0.074046 0.145082
C19   C     C_R   0.401675 0.430709 0.074127 -0.007561
C20   C     C_R   0.401642 0.430730 0.925425 -0.004667
Cu1   Cu    Cu3+1 0.499990 0.499980 0.640670 0.997769
Cu2   Cu    Cu3+1 0.500010 0.500020 0.359330 0.947546
H1    H     H_    0.450229 0.111342 0.274758 0.136635
H2    H     H_    0.695763 0.890105 0.714877 0.164514
H3    H     H_    0.762039 0.087580 0.625879 0.331703
H4    H     H_    0.324162 0.372442 0.129625 0.122657
H5    H     H_    0.535941 0.889776 0.839921 0.120003
H6    H     H_    0.536154 0.112443 0.841833 0.152415
H7    H     H_    0.324067 0.372516 0.869575 0.123768
H8    H     H_    0.803229 0.489621 0.878178 0.145100
H9    H     H_    0.765610 0.756075 0.893684 0.352280
H10   H     H_    0.806341 0.496630 0.129159 0.118727
H11   H     H_    0.799829 0.686240 0.239121 0.344800
H12   H     H_    0.450883 0.886197 0.275143 0.152059
N1    N     N_R   0.500920 0.500930 0.147930 -0.256069
N2    N     N_R   0.500930 0.500890 0.852020 -0.253339
O1    O     O_R   0.500000 0.319640 0.618810 -0.482121
O2    O     O_3   0.810161 0.691974 0.136144 -0.680521
O3    O     O_3   0.724776 0.125250 0.713941 -0.680185
O4    O     O_R   0.500020 0.319680 0.381230 -0.517709
O5    O     O_R   0.288380 0.499980 0.618770 -0.495735
O6    O     O_R   0.288400 0.500020 0.381190 -0.498506
O7    O     O_R   0.499980 0.680320 0.618770 -0.485725
O8    O     O_R   0.500000 0.680360 0.381190 -0.503820
O9    O     O_R   0.711600 0.499980 0.618810 -0.466721
O10   O     O_R   0.711620 0.500020 0.381230 -0.527164
O11   O     O_3   0.818465 0.682311 0.858347 -0.650989

loop_
_geom_bond_atom_site_label_1
_geom_bond_atom_site_label_2
_ccdc_geom_bond_type
C3    H8    S    
C2    C18   A    
C18   N1    A    
H11   O2    S    
C1    C11   S    
C1    O1    A    
C4    C8    S    
C5    H10   S    
Cu2   O4    S    
C16   H5    S    
C2    C3    S    
C4    O5    A    
C16   H2    S    
Cu1   N2    S    
C19   N1    A    
Cu1   Cu2   S    
H3    O3    S    
Cu2   N1    S    
C11   C13   A    
Cu2   O6    S    
C4    O6    A    
C20   H7    S    
Cu1   O5    S    
C7    O9    A    
C3    O11   S    
Cu2   O10   S    
C12   C14   A    
Cu1   O9    S    
C6    O7    A    
Cu2   O8    S    
C6    C14   S    
C10   C11   A    
C10   C17   S    
C12   H12   S    
C15   C16   S    
C20   N2    A    
C7    O10   A    
Cu1   O1    S    
C12   C13   A    
C13   H1    S    
C6    O8    A    
C17   O3    S    
C2    N2    A    
C7    C9    S    
C19   H4    S    
C14   C15   A    
C8    C9    T    
H9    O11   S    
C5    C18   S    
C1    O4    A    
C10   C15   A    
C5    O2    S    
C17   H6    S    
Cu1   O7    S    
C19   C20   A    
C16   C17   S    
C3    C5    S    
