data_mof_unit_11817.cif
_audit_creation_date              2012-10-26T18:33:56-0400
_audit_creation_method            fapswitch 2.2
_symmetry_space_group_name_H-M    P1
_symmetry_Int_Tables_number       1
_space_group_crystal_system       triclinic
_cell_length_a                    11.128323
_cell_length_b                    10.782082
_cell_length_c                    9.562384
_cell_angle_alpha                 89.786829
_cell_angle_beta                  102.017622
_cell_angle_gamma                 91.590245
_cell_volume                      1121.77628104

loop_
_atom_site_label
_atom_site_type_symbol
_atom_type_description
_atom_site_fract_x
_atom_site_fract_y
_atom_site_fract_z
_atom_type_partial_charge
Br1   Br    Br    0.859566 0.387253 0.311194 -0.474795
Br2   Br    Br    0.129539 0.642255 0.656082 -0.448720
Br3   Br    Br    0.307221 0.308706 0.795551 -0.473067
Br4   Br    Br    0.691380 0.693021 0.204722 -0.463434
Br5   Br    Br    0.253590 0.830682 0.336473 -0.468640
Br6   Br    Br    0.752000 0.169574 0.642721 -0.492591
C1    C     C_R   0.497133 0.262557 0.499196 0.581582
C2    C     C_2   0.869793 0.504149 0.585461 -0.034887
C3    C     C_2   0.063294 0.524064 0.504222 0.162574
C4    C     C_2   0.933392 0.481629 0.483092 0.161759
C5    C     C_R   0.392303 0.059943 0.427907 -0.027292
C6    C     C_R   0.609208 0.939934 0.566398 -0.027864
C7    C     C_R   0.395910 0.930069 0.429236 0.147969
C8    C     C_R   0.605889 0.069933 0.564273 0.144664
C9    C     C_R   0.502804 0.871376 0.499358 0.027184
C10   C     C_R   0.497506 0.128619 0.498123 0.030981
C11   C     C_3   0.275871 0.122535 0.351440 -0.240518
C12   C     C_R   0.501877 0.737401 0.500257 0.583255
C13   C     C_3   0.176906 0.119211 0.442201 -0.287039
C14   C     C_3   0.048280 0.122897 0.348361 -0.395451
C15   C     C_3   0.726692 0.875694 0.636614 -0.222766
C16   C     C_3   0.743587 0.876117 0.800039 -0.291819
C17   C     C_3   0.855150 0.802345 0.870386 -0.408474
C18   C     C_R   0.263873 0.501677 0.442713 0.586663
C19   C     C_R   0.736374 0.496995 0.556860 0.586631
C20   C     C_R   0.421778 0.423380 0.057035 0.046537
C21   C     C_R   0.579167 0.575399 0.943404 0.040111
C22   C     C_R   0.421180 0.423029 0.908973 0.293263
C23   C     C_R   0.578796 0.577031 0.091178 0.298991
C24   C     C_2   0.131364 0.488819 0.411431 -0.039945
Cu1   Cu    Cu3+1 0.500000 0.500020 0.640660 1.073925
Cu2   Cu    Cu3+1 0.500000 0.499980 0.359340 1.085200
H1    H     H_    0.359458 0.361952 0.099192 0.135823
H2    H     H_    0.292595 0.220441 0.323771 0.136522
H3    H     H_    0.241918 0.076448 0.246323 0.201109
H4    H     H_    0.843123 0.703939 0.835363 0.163548
H5    H     H_    0.939845 0.842517 0.841858 0.200877
H6    H     H_    0.865864 0.805637 0.988382 0.198494
H7    H     H_    0.756207 0.972445 0.841908 0.224906
H8    H     H_    0.659992 0.835673 0.830626 0.182938
H9    H     H_    0.726916 0.778522 0.598896 0.146819
H10   H     H_    0.807245 0.921777 0.604464 0.202217
H11   H     H_    0.643158 0.634436 0.901861 0.125154
H12   H     H_    0.914995 0.539478 0.689612 0.122875
H13   H     H_    0.092102 0.438274 0.314421 0.120230
H14   H     H_    0.041577 0.203098 0.274361 0.186654
H15   H     H_    0.027376 0.036134 0.284626 0.199996
H16   H     H_    0.979494 0.131447 0.416636 0.212650
H17   H     H_    0.182618 0.034300 0.509265 0.230695
H18   H     H_    0.191318 0.200677 0.514943 0.201091
N1    N     N_R   0.500030 0.500030 0.852080 -0.236983
N2    N     N_R   0.499970 0.499970 0.147920 -0.236449
O1    O     O_R   0.499990 0.319660 0.618740 -0.443896
O2    O     O_R   0.500010 0.680340 0.381260 -0.440673
O3    O     O_R   0.499990 0.319630 0.381170 -0.510256
O4    O     O_R   0.500010 0.680370 0.618830 -0.508991
O5    O     O_R   0.320690 0.500020 0.575130 -0.425867
O6    O     O_R   0.679310 0.499980 0.424870 -0.416433
O7    O     O_R   0.320680 0.499990 0.337560 -0.511795
O8    O     O_R   0.679320 0.500010 0.662440 -0.515245

loop_
_geom_bond_atom_site_label_1
_geom_bond_atom_site_label_2
_ccdc_geom_bond_type
Cu1   O8    S    
C9    C12   S    
C19   O8    A    
C12   O4    A    
Cu1   O4    S    
Br6   C8    S    
C17   H6    S    
C3    C4    S    
C13   H17   S    
Cu2   O3    S    
Br5   C7    S    
Br4   C23   S    
C6    C9    A    
C1    O3    A    
Cu2   O6    S    
C16   H8    S    
Cu1   O5    S    
C13   C14   S    
C24   H13   S    
Cu1   Cu2   S    
C15   C16   S    
Cu1   O1    S    
C2    C19   S    
C5    C7    A    
C13   H18   S    
C14   H16   S    
C3    C24   D    
C18   O7    A    
C15   H9    S    
C16   H7    S    
Cu2   O2    S    
C1    C10   S    
C11   C13   S    
C21   N1    A    
C20   N2    A    
C7    C9    A    
C22   N1    A    
C8    C10   A    
C14   H14   S    
C14   H15   S    
C21   C23   A    
C11   H2    S    
C12   O2    A    
C18   C24   S    
C15   H10   S    
C21   H11   S    
C2    C4    D    
C17   H4    S    
C19   O6    A    
Cu1   N1    S    
C1    O1    A    
C16   C17   S    
Br3   C22   S    
C11   H3    S    
Cu2   O7    S    
C17   H5    S    
Br2   C3    S    
C20   C22   A    
C6    C15   S    
C5    C10   A    
Cu2   N2    S    
Br1   C4    S    
C2    H12   S    
C20   H1    S    
C6    C8    A    
C18   O5    A    
C23   N2    A    
C5    C11   S    
