data_mof_unit_34043.cif
_audit_creation_date              2012-12-10T20:41:54-0500
_audit_creation_method            fapswitch 2.2
_symmetry_space_group_name_H-M    P1
_symmetry_Int_Tables_number       1
_space_group_crystal_system       triclinic
_cell_length_a                    15.121624
_cell_length_b                    15.177918
_cell_length_c                    9.866865
_cell_angle_alpha                 90.086784
_cell_angle_beta                  89.865878
_cell_angle_gamma                 89.677551
_cell_volume                      2264.54653245

loop_
_atom_site_label
_atom_site_type_symbol
_atom_type_description
_atom_site_fract_x
_atom_site_fract_y
_atom_site_fract_z
_atom_type_partial_charge
C1    C     C_R   0.384012 0.876246 0.500028 0.879033
C2    C     C_R   0.941419 0.551171 0.071892 0.357419
C3    C     C_R   0.560802 0.952666 0.071411 -0.029399
C4    C     C_R   0.060802 0.452665 0.071411 -0.029426
C5    C     C_R   0.561556 0.953532 0.927821 0.015598
C6    C     C_R   0.061556 0.453531 0.927821 0.015605
C7    C     C_R   0.441089 0.050798 0.929657 0.345202
C8    C     C_R   0.941090 0.550799 0.929657 0.345233
C9    C     C_3   0.342770 0.047414 0.924613 -0.534181
C10   C     C_3   0.842771 0.547416 0.924613 -0.534210
C11   C     C_3   0.343039 0.046397 0.078553 -0.490249
C12   C     C_R   0.381059 0.120756 0.499782 0.873708
C13   C     C_3   0.843040 0.546400 0.078553 -0.490305
C14   C     C_R   0.619379 0.120972 0.500066 0.923501
C15   C     C_R   0.621575 0.881825 0.499561 0.901899
C16   C     C_R   0.119379 0.620972 0.500066 0.923525
C17   C     C_R   0.121576 0.381826 0.499561 0.901872
C18   C     C_R   0.317226 0.251680 0.399262 0.017389
C19   C     C_R   0.301578 0.762030 0.621616 0.050893
C20   C     C_R   0.817229 0.751686 0.399269 0.017733
C21   C     C_R   0.801574 0.262032 0.621617 0.050936
C22   C     C_R   0.313817 0.185382 0.497041 -0.113992
C23   C     C_R   0.884012 0.376246 0.500028 0.879015
C24   C     C_R   0.329589 0.799503 0.499753 -0.164925
C25   C     C_R   0.813819 0.685385 0.497043 -0.114024
C26   C     C_R   0.829587 0.299504 0.499753 -0.164823
C27   C     C_R   0.242432 0.178640 0.586372 -0.192433
C28   C     C_R   0.299446 0.765232 0.376493 -0.181641
C29   C     C_R   0.742432 0.678639 0.586368 -0.192449
C30   C     C_R   0.799445 0.265232 0.376494 -0.181897
C31   C     C_R   0.678400 0.743783 0.586585 -0.165857
C32   C     C_R   0.730147 0.206370 0.376766 -0.079882
C33   C     C_R   0.178402 0.243785 0.586589 -0.165869
C34   C     C_R   0.881060 0.620758 0.499783 0.873737
C35   C     C_R   0.230147 0.706370 0.376766 -0.079500
C36   C     C_R   0.686544 0.814750 0.497311 -0.126273
C37   C     C_R   0.690735 0.182146 0.499991 -0.185253
C38   C     C_R   0.186545 0.314750 0.497312 -0.126217
C39   C     C_R   0.190737 0.682145 0.499992 -0.185365
C40   C     C_R   0.753536 0.816980 0.399585 -0.000751
C41   C     C_R   0.729317 0.207230 0.622386 0.043636
C42   C     C_R   0.253535 0.316977 0.399582 -0.000941
C43   C     C_R   0.229321 0.707227 0.622387 0.043575
C44   C     C_3   0.821025 0.887959 0.377221 0.202097
C45   C     C_3   0.391368 0.314832 0.373726 0.137038
C46   C     C_3   0.690322 0.257399 0.740491 0.121974
C47   C     C_3   0.321027 0.387951 0.377210 0.202344
C48   C     C_3   0.190328 0.757394 0.740495 0.122057
C49   C     C_3   0.277641 0.806759 0.751038 0.221700
C50   C     C_3   0.891369 0.814843 0.373747 0.136159
C51   C     C_3   0.777637 0.306762 0.751037 0.221633
C52   C     C_R   0.441418 0.051170 0.071892 0.357445
H1    H     H_    0.237339 0.124324 0.657042 0.151643
H2    H     H_    0.704854 0.183682 0.280506 0.264466
H3    H     H_    0.123772 0.239826 0.657611 0.180922
H4    H     H_    0.204854 0.683683 0.280506 0.264487
H5    H     H_    0.827676 0.930902 0.468103 0.066266
H6    H     H_    0.636242 0.301978 0.705520 0.058836
H7    H     H_    0.327686 0.430893 0.468092 0.066219
H8    H     H_    0.136245 0.801972 0.705529 0.058834
H9    H     H_    0.437520 0.318635 0.461171 0.042341
H10   H     H_    0.268526 0.878937 0.740716 0.030127
H11   H     H_    0.937513 0.818648 0.461201 0.042394
H12   H     H_    0.324279 0.788612 0.280102 0.228348
H13   H     H_    0.768523 0.378940 0.740715 0.030132
H14   H     H_    0.608115 0.912222 0.124663 0.201828
H15   H     H_    0.108114 0.412220 0.124664 0.201834
H16   H     H_    0.610720 0.915070 0.874001 0.167426
H17   H     H_    0.110719 0.415068 0.874001 0.167423
H18   H     H_    0.313851 0.108842 0.882028 0.226928
H19   H     H_    0.317970 0.985687 0.879199 0.229629
H20   H     H_    0.813852 0.608844 0.882026 0.226927
H21   H     H_    0.817970 0.485689 0.879201 0.229624
H22   H     H_    0.870347 0.056740 0.122677 0.417500
H23   H     H_    0.737338 0.624322 0.657036 0.151647
H24   H     H_    0.652425 0.300299 0.026802 0.374055
H25   H     H_    0.370473 0.556453 0.122216 0.417517
H26   H     H_    0.152364 0.800244 0.026884 0.374360
H27   H     H_    0.546933 0.394308 0.233057 0.342429
H28   H     H_    0.500249 0.769452 0.887024 0.360630
H29   H     H_    0.046325 0.894850 0.233732 0.342476
H30   H     H_    0.000240 0.269455 0.887035 0.360638
H31   H     H_    0.824279 0.288611 0.280103 0.228333
H32   H     H_    0.312812 0.106312 0.124278 0.246805
H33   H     H_    0.319394 0.983471 0.122819 0.233098
H34   H     H_    0.812815 0.606317 0.124276 0.246802
H35   H     H_    0.819393 0.483476 0.122821 0.233067
H36   H     H_    0.623769 0.739822 0.657603 0.180927
N1    N     N_R   0.499140 0.000000 0.142800 -0.131016
N2    N     N_R   0.999140 0.500000 0.142800 -0.131027
N3    N     N_R   0.499160 0.000000 0.857150 -0.101970
N4    N     N_R   0.999160 0.500000 0.857150 -0.101967
O1    O     O_R   0.408400 0.908380 0.614690 -0.584588
O2    O     O_R   0.591610 0.908390 0.614650 -0.619355
O3    O     O_R   0.091610 0.591610 0.614650 -0.574579
O4    O     O_R   0.091610 0.408390 0.614650 -0.619357
O5    O     O_R   0.591590 0.091600 0.385310 -0.542867
O6    O     O_R   0.591590 0.908400 0.385310 -0.599755
O7    O     O_R   0.091590 0.591600 0.385310 -0.542892
O8    O     O_R   0.091590 0.408400 0.385310 -0.599770
O9    O     O_2   0.781268 0.896330 0.106304 -0.233703
O10   O     O_2   0.723882 0.012138 0.253476 -0.318723
O11   O     O_3   0.889723 0.016130 0.195382 -0.487103
O12   O     O_R   0.408400 0.091620 0.614690 -0.626862
O13   O     O_2   0.554256 0.189979 0.873608 -0.297198
O14   O     O_2   0.690504 0.101795 0.876070 -0.217440
O15   O     O_3   0.680131 0.241050 0.029834 -0.462294
O16   O     O_2   0.281244 0.396321 0.106309 -0.234014
O17   O     O_2   0.223898 0.512152 0.253477 -0.318590
O18   O     O_3   0.389731 0.516104 0.195350 -0.486617
O19   O     O_2   0.054267 0.689971 0.873622 -0.297229
O20   O     O_2   0.190514 0.601784 0.876062 -0.217511
O21   O     O_3   0.180152 0.741034 0.029840 -0.462184
O22   O     O_2   0.516803 0.220673 0.242395 -0.302008
O23   O     O_R   0.908400 0.408380 0.614690 -0.584584
O24   O     O_2   0.387353 0.259731 0.109723 -0.220529
O25   O     O_3   0.502897 0.381136 0.161756 -0.453282
O26   O     O_2   0.341672 0.825627 0.006265 -0.339037
O27   O     O_2   0.353260 0.677643 0.906803 -0.220496
O28   O     O_3   0.459696 0.796958 0.820484 -0.561598
O29   O     O_2   0.016833 0.720706 0.242449 -0.301712
O30   O     O_2   0.887377 0.759732 0.109757 -0.220490
O31   O     O_3   0.002910 0.881150 0.161774 -0.453132
O32   O     O_2   0.841661 0.325627 0.006269 -0.339159
O33   O     O_2   0.853250 0.177645 0.906802 -0.220416
O34   O     O_R   0.908400 0.591620 0.614690 -0.626861
O35   O     O_3   0.959689 0.296960 0.820493 -0.561583
O36   O     O_R   0.408370 0.908370 0.385350 -0.633431
O37   O     O_R   0.408370 0.091630 0.385350 -0.594927
O38   O     O_R   0.908370 0.408370 0.385350 -0.633433
O39   O     O_R   0.908370 0.591630 0.385350 -0.594945
O40   O     O_R   0.591610 0.091610 0.614650 -0.574582
S1    S     S_3+6 0.801387 0.952712 0.227388 0.091996
S2    S     S_3+6 0.653121 0.193647 0.881809 0.123012
S3    S     S_3+6 0.301386 0.452706 0.227380 0.092146
S4    S     S_3+6 0.153133 0.693637 0.881813 0.123045
S5    S     S_3+6 0.449412 0.291507 0.217553 0.098895
S6    S     S_3+6 0.357594 0.774674 0.877893 0.060370
S7    S     S_3+6 0.949429 0.791524 0.217586 0.098950
S8    S     S_3+6 0.857586 0.274676 0.877895 0.060309
Zn1   Zn    Zn3+2 0.500010 1.000000 0.653130 1.045422
Zn2   Zn    Zn3+2 0.000010 0.500000 0.653130 1.045420
Zn3   Zn    Zn3+2 0.499980 1.000000 0.346870 1.053129
Zn4   Zn    Zn3+2 0.999980 0.500000 0.346870 1.053106

loop_
_geom_bond_atom_site_label_1
_geom_bond_atom_site_label_2
_ccdc_geom_bond_type
O37   Zn3   S    
C33   H3    S    
C6    H17   S    
C21   C26   A    
H28   O28   S    
O31   S7    S    
O6    Zn3   S    
O17   S3    D    
C1    O36   A    
C15   O2    A    
C52   N1    A    
C14   O40   A    
C27   C33   A    
H29   O31   S    
C49   H10   S    
C7    C52   A    
C12   O12   A    
O15   S2    S    
C18   C42   A    
C20   C40   A    
C10   H21   S    
O19   S4    D    
O22   S5    D    
C20   C25   A    
C12   C22   S    
O40   Zn1   S    
C51   H13   S    
C23   C26   S    
C30   H31   S    
C2    N2    A    
C2    C13   S    
O5    Zn3   S    
C20   C50   S    
C11   C52   S    
C28   C35   A    
O21   S4    S    
C13   H34   S    
C41   C46   S    
C8    N4    A    
O38   Zn4   S    
C43   C48   S    
C31   C36   A    
C48   S4    S    
C25   C34   S    
C17   C38   S    
C51   S8    S    
O23   Zn2   S    
C49   S6    S    
C46   H6    S    
C50   H11   S    
O27   S6    D    
O18   S3    S    
O20   S4    D    
C5    H16   S    
C32   H2    S    
O36   Zn3   S    
O4    Zn2   S    
C19   C43   A    
C48   H8    S    
C4    N2    A    
C45   C47   S    
O33   S8    D    
C25   C29   A    
C2    C8    A    
C12   O37   A    
C9    H19   S    
O7    Zn4   S    
C36   C40   A    
C9    H18   S    
O16   S3    D    
C4    C6    A    
O8    Zn4   S    
C50   S7    S    
C39   C43   A    
N1    Zn3   S    
C23   O23   A    
C46   C51   S    
O34   Zn2   S    
C23   O38   A    
C35   C39   A    
C46   S2    S    
C19   C49   S    
C40   C44   S    
C44   H5    S    
C34   O34   A    
C7    N3    A    
C13   H35   S    
C45   S5    S    
C17   O4    A    
C32   C37   A    
C9    C11   S    
C5    N3    A    
C1    C24   S    
C21   C41   A    
C28   H12   S    
C8    C10   S    
C48   C49   S    
C34   O39   A    
C26   C30   A    
H24   O15   S    
C22   C27   A    
H26   O21   S    
O28   S6    S    
O35   S8    S    
C15   O6    A    
C18   C45   S    
C15   C36   S    
C21   C51   S    
O1    Zn1   S    
C14   O5    A    
O24   S5    D    
C44   C50   S    
C44   S1    S    
C7    C9    S    
C16   O3    A    
C31   H36   S    
C47   S3    S    
C35   H4    S    
C18   C22   A    
O2    Zn1   S    
O32   S8    D    
O25   S5    S    
C24   C28   A    
C3    C5    A    
C10   C13   S    
O30   S7    D    
C4    H15   S    
C27   H1    S    
C16   O7    A    
C38   C42   A    
C29   H23   S    
O9    S1    D    
C11   H32   S    
C33   C38   A    
C3    N1    A    
O29   S7    D    
C19   C24   A    
O11   S1    S    
O10   S1    D    
C29   C31   A    
C14   C37   S    
C30   C32   A    
C11   H33   S    
C6    N4    A    
H27   O25   S    
C45   H9    S    
N4    Zn2   S    
C42   C47   S    
C37   C41   A    
H25   O18   S    
C17   O8    A    
H30   O35   S    
C16   C39   S    
C47   H7    S    
C3    H14   S    
O14   S2    D    
O3    Zn2   S    
C1    O1    A    
O12   Zn1   S    
H22   O11   S    
O26   S6    D    
N2    Zn4   S    
O39   Zn4   S    
O13   S2    D    
N3    Zn1   S    
C10   H20   S    
