data_mof_unit_49464.cif
_audit_creation_date              2012-10-26T18:32:06-0400
_audit_creation_method            fapswitch 2.2
_symmetry_space_group_name_H-M    P1
_symmetry_Int_Tables_number       1
_space_group_crystal_system       triclinic
_cell_length_a                    12.324729
_cell_length_b                    13.329926
_cell_length_c                    14.402477
_cell_angle_alpha                 92.998724
_cell_angle_beta                  107.867785
_cell_angle_gamma                 116.665419
_cell_volume                      1961.64251713

loop_
_atom_site_label
_atom_site_type_symbol
_atom_type_description
_atom_site_fract_x
_atom_site_fract_y
_atom_site_fract_z
_atom_type_partial_charge
C1    C     C_R   0.651379 0.713961 0.508570 0.577310
C2    C     C_R   0.212143 0.497577 0.010846 0.042489
C3    C     C_R   0.164359 0.518765 0.083183 0.049439
C4    C     C_R   0.620267 0.518946 0.686198 0.533604
C5    C     C_R   0.317729 0.475825 0.038770 -0.111199
C6    C     C_R   0.373957 0.471448 0.137402 -0.095994
C7    C     C_R   0.215127 0.503715 0.179760 -0.084957
C8    C     C_R   0.217770 0.968220 0.463618 0.415821
C9    C     C_R   0.273354 0.167789 0.499349 -0.043214
C10   C     C_R   0.723877 0.918610 0.568447 -0.110759
C11   C     C_R   0.825144 0.031376 0.609906 -0.010987
C12   C     C_R   0.879774 0.545639 0.923261 -0.032334
C13   C     C_R   0.945747 0.062714 0.601949 -0.044752
C14   C     C_R   0.962284 0.987691 0.541172 -0.015899
C15   C     C_R   0.857972 0.873358 0.498166 -0.032348
C16   C     C_R   0.350834 0.286999 0.493386 0.578306
C17   C     C_R   0.079063 0.022121 0.521155 -0.070917
C18   C     C_R   0.100899 0.936707 0.479892 -0.024320
C19   C     C_R   0.999633 0.823422 0.444574 0.431887
C20   C     C_R   0.875512 0.798392 0.438361 0.380664
C21   C     C_R   0.168385 0.138263 0.531343 0.336650
C22   C     C_R   0.302328 0.083286 0.471950 -0.161328
C23   C     C_R   0.846884 0.589250 0.996665 0.005783
C24   C     C_R   0.742023 0.836948 0.519320 0.010917
C25   C     C_R   0.251653 0.673984 0.668083 0.402086
C26   C     C_R   0.653009 0.341882 0.365702 0.518190
C27   C     C_R   0.726151 0.294307 0.342996 -0.003309
C28   C     C_R   0.381897 0.484229 0.313661 0.561701
C29   C     C_R   0.860694 0.342663 0.405112 -0.060980
C30   C     C_R   0.924856 0.451043 0.474902 -0.045588
C31   C     C_R   0.842448 0.489930 0.496825 0.069170
C32   C     C_R   0.065704 0.519920 0.528069 -0.079830
C33   C     C_R   0.116266 0.611574 0.611228 0.064202
C34   C     C_R   0.992581 0.531969 0.952281 -0.006680
C35   C     C_R   0.031526 0.641340 0.635056 0.365488
C36   C     C_R   0.899456 0.584377 0.577170 -0.061519
C37   C     C_R   0.160216 0.506494 0.499856 0.068128
C38   C     C_R   0.336678 0.648451 0.640713 0.074894
C39   C     C_R   0.695411 0.540762 0.792637 -0.048474
C40   C     C_R   0.322033 0.484496 0.208336 -0.007464
C41   C     C_R   0.749972 0.623144 0.964439 0.361937
C42   C     C_R   0.674365 0.597225 0.863759 -0.074198
C43   C     C_R   0.797211 0.515284 0.822343 -0.126797
C44   C     C_3   0.866382 0.617585 0.180551 -0.154419
C45   C     C_R   0.062349 0.547535 0.055254 0.025674
C46   C     C_3   0.849878 0.524257 0.240910 -0.366033
C47   C     C_3   0.807243 0.115679 0.669438 -0.282136
C48   C     C_3   0.714197 0.150933 0.601656 -0.417903
C49   C     C_3   0.921634 0.264236 0.413864 -0.269653
C50   C     C_3   0.961906 0.247028 0.325954 -0.425454
C51   C     C_3   0.665022 0.191160 0.255482 -0.271770
C52   C     C_3   0.526320 0.150886 0.181863 -0.359783
C53   C     C_R   0.029402 0.592783 0.126784 0.356117
C54   C     C_R   0.915476 0.602044 0.098976 0.028616
C55   C     C_R   0.042719 0.510266 0.881795 -0.089091
C56   C     C_R   0.152572 0.496370 0.911267 -0.102965
Cu1   Cu    Cu3+1 0.416420 0.526630 0.522910 1.008751
Cu2   Cu    Cu3+1 0.583580 0.473370 0.477090 1.054798
F1    F     F_    0.016722 0.739174 0.405919 -0.581936
F2    F     F_    0.244827 0.888086 0.430396 -0.534009
F3    F     F_    0.147714 0.223252 0.562509 -0.678896
F4    F     F_    0.773346 0.706897 0.365873 -0.612572
F5    F     F_    0.076359 0.729606 0.712956 -0.572422
F6    F     F_    0.302375 0.759171 0.750061 -0.564404
F7    F     F_    0.522556 0.292290 0.315698 -0.637575
F8    F     F_    0.737438 0.693715 0.026697 -0.641938
F9    F     F_    0.113494 0.639023 0.223540 -0.609540
H1    H     H_    0.356655 0.462066 0.984267 0.128814
H2    H     H_    0.188899 0.481533 0.855213 0.122153
H3    H     H_    0.601812 0.625036 0.841329 0.161383
H4    H     H_    0.808925 0.469636 0.765435 0.127597
H5    H     H_    0.002719 0.508830 0.803524 0.128020
H6    H     H_    0.787127 0.437448 0.190033 0.101677
H7    H     H_    0.945092 0.532406 0.286848 0.238255
H8    H     H_    0.801830 0.532507 0.292272 0.214483
H9    H     H_    0.934831 0.704581 0.229462 0.274799
H10   H     H_    0.768300 0.609333 0.151206 0.215924
H11   H     H_    0.753164 0.192491 0.545724 0.155188
H12   H     H_    0.386906 0.105463 0.451927 0.176236
H13   H     H_    0.615946 0.074809 0.562130 0.181254
H14   H     H_    0.704120 0.213564 0.647470 0.144022
H15   H     H_    0.768125 0.076012 0.726092 0.164914
H16   H     H_    0.902224 0.194911 0.710649 0.140748
H17   H     H_    0.887375 0.163406 0.272891 0.153669
H18   H     H_    0.975013 0.317314 0.284854 0.135832
H19   H     H_    0.055175 0.244759 0.354032 0.182461
H20   H     H_    0.005520 0.295836 0.485376 0.218982
H21   H     H_    0.852535 0.178743 0.421344 0.157570
H22   H     H_    0.453999 0.110091 0.217692 0.224780
H23   H     H_    0.634320 0.892781 0.582094 0.156288
H24   H     H_    0.518852 0.223592 0.151821 0.186625
H25   H     H_    0.502153 0.084515 0.117726 0.150355
H26   H     H_    0.726914 0.215175 0.209705 0.145119
H27   H     H_    0.665432 0.115885 0.284743 0.159156
H28   H     H_    0.026178 0.144348 0.647740 0.198875
H29   H     H_    0.440247 0.694725 0.685227 0.139590
H30   H     H_    0.169340 0.502050 0.232961 0.189445
H31   H     H_    0.132219 0.449872 0.431277 0.153667
H32   H     H_    0.844807 0.617007 0.599617 0.192859
H33   H     H_    0.456960 0.456706 0.157760 0.165286
N1    N     N_R   0.290690 0.566960 0.557640 -0.271556
N2    N     N_R   0.709100 0.433710 0.442970 -0.229969
O1    O     O_R   0.545970 0.684450 0.528810 -0.511592
O2    O     O_R   0.687130 0.639470 0.490120 -0.462850
O3    O     O_R   0.519670 0.535100 0.660030 -0.516054
O4    O     O_R   0.660830 0.490120 0.621340 -0.548615
O5    O     O_R   0.312870 0.360530 0.509880 -0.438950
O6    O     O_R   0.454030 0.315550 0.471190 -0.471226
O7    O     O_R   0.339170 0.509880 0.378660 -0.514651
O8    O     O_R   0.480330 0.464900 0.339970 -0.416842

loop_
_geom_bond_atom_site_label_1
_geom_bond_atom_site_label_2
_ccdc_geom_bond_type
Cu1   O3    S    
C55   C56   A    
C27   C29   A    
C41   C42   A    
C49   H20   S    
C11   C47   S    
C19   C20   A    
C14   C17   A    
C50   H17   S    
C29   C49   S    
C53   C54   A    
C12   C23   A    
C26   C27   A    
C13   H28   S    
C44   H10   S    
C9    C16   S    
C22   H12   S    
C38   N1    A    
C3    C7    A    
C31   C36   A    
C30   C31   A    
C9    C22   A    
C28   C40   S    
C42   H3    S    
C48   H14   S    
C18   C19   A    
C47   H15   S    
C48   H11   S    
C44   H9    S    
C46   H8    S    
C50   H18   S    
Cu1   O7    S    
C35   C36   A    
C27   C51   S    
C8    C22   A    
C7    C40   A    
Cu2   N2    S    
C47   H16   S    
C30   C32   A    
C1    O1    A    
C21   F3    S    
C55   H5    S    
C16   O5    A    
C45   C53   A    
C34   C55   A    
C13   C14   A    
C49   H21   S    
C52   H22   S    
C5    H1    S    
C37   H31   S    
C44   C46   S    
C39   C42   A    
C15   C20   A    
Cu1   O1    S    
C51   C52   S    
C31   N2    A    
C16   O6    A    
C39   C43   A    
C19   F1    S    
C4    O4    A    
C3    C45   A    
C8    C18   A    
Cu2   O4    S    
C25   F6    S    
C6    H33   S    
C29   C30   A    
C25   C38   A    
C47   C48   S    
C4    C39   S    
C17   C18   A    
C34   C45   A    
C32   C37   A    
C1    O2    A    
C51   H26   S    
C15   C24   A    
Cu1   O5    S    
C56   H2    S    
C6    C40   A    
C52   H25   S    
C2    C5    A    
Cu2   O2    S    
C12   C34   A    
C46   H7    S    
C23   C54   A    
C43   H4    S    
C7    H30   S    
Cu2   O8    S    
C26   F7    S    
C41   F8    S    
C28   O7    A    
C12   C43   A    
Cu1   N1    S    
C4    O3    A    
C23   C41   A    
C28   O8    A    
C32   C33   A    
C48   H13   S    
C2    C3    A    
C2    C56   A    
C8    F2    S    
C37   N1    A    
C11   C13   A    
C9    C21   A    
Cu1   Cu2   S    
C5    C6    A    
C33   C35   A    
C36   H32   S    
Cu2   O6    S    
C20   F4    S    
C53   F9    S    
C17   C21   A    
C10   C11   A    
C50   H19   S    
C51   H27   S    
C44   C54   S    
C10   H23   S    
C1    C24   S    
C10   C24   A    
C49   C50   S    
C38   H29   S    
C14   C15   A    
C52   H24   S    
C35   F5    S    
C46   H6    S    
C26   N2    A    
C25   C33   A    
