data_mof_unit_26029.cif
_audit_creation_date              2012-12-10T18:33:42-0500
_audit_creation_method            fapswitch 2.2
_symmetry_space_group_name_H-M    P1
_symmetry_Int_Tables_number       1
_space_group_crystal_system       triclinic
_cell_length_a                    10.5182
_cell_length_b                    15.002816
_cell_length_c                    15.451773
_cell_angle_alpha                 82.610541
_cell_angle_beta                  89.336453
_cell_angle_gamma                 103.97349
_cell_volume                      2344.21842123

loop_
_atom_site_label
_atom_site_type_symbol
_atom_type_description
_atom_site_fract_x
_atom_site_fract_y
_atom_site_fract_z
_atom_type_partial_charge
C1    C     C_R   0.485439 0.442212 0.662101 0.864489
C2    C     C_R   0.521945 0.557913 0.337794 0.867033
C3    C     C_R   0.539042 0.474938 0.810149 -0.239529
C4    C     C_R   0.554833 0.526825 0.188673 -0.249017
C5    C     C_R   0.567142 0.449588 0.896362 0.097809
C6    C     C_R   0.598519 0.553671 0.101583 0.090786
C7    C     C_R   0.546041 0.354019 0.927961 0.175908
C8    C     C_R   0.635806 0.649596 0.069727 0.177583
C9    C     C_R   0.605250 0.516909 0.953439 0.071991
C10   C     C_R   0.595886 0.487086 0.044155 0.068281
C11   C     C_R   0.581306 0.391719 0.074107 -0.223468
C12   C     C_R   0.649286 0.612887 0.923157 -0.216845
C13   C     C_R   0.559560 0.326451 0.016239 -0.233371
C14   C     C_R   0.666825 0.678098 0.981009 -0.236036
C15   C     C_R   0.692123 0.841700 0.638490 -0.318038
C16   C     C_R   0.307250 0.158087 0.361973 -0.317640
C17   C     C_R   0.660833 0.752884 0.615629 0.018015
C18   C     C_R   0.338728 0.246964 0.384666 0.017425
C19   C     C_R   0.515201 0.794002 0.510199 -0.067242
C20   C     C_R   0.484977 0.206058 0.489741 -0.068458
C21   C     C_R   0.542357 0.885563 0.530338 -0.002573
C22   C     C_R   0.457476 0.114391 0.469862 -0.002123
C23   C     C_R   0.742214 0.500378 0.499850 0.874157
C24   C     C_R   0.257735 0.499560 0.500316 0.879272
C25   C     C_R   0.633232 0.908446 0.595994 0.181910
C26   C     C_R   0.366310 0.091410 0.404392 0.179294
C27   C     C_R   0.483101 0.954336 0.488045 0.081175
C28   C     C_R   0.516628 0.045595 0.512238 0.081544
C29   C     C_R   0.607969 0.064996 0.577901 -0.241045
C30   C     C_R   0.391489 0.934860 0.422554 -0.240389
C31   C     C_R   0.664757 0.997539 0.618818 -0.210182
C32   C     C_R   0.334573 0.002268 0.381713 -0.210483
C33   C     C_3   0.930304 0.417704 0.479979 -0.184823
C34   C     C_3   0.069504 0.582142 0.520500 -0.185721
C35   C     C_3   0.016685 0.430155 0.560263 -0.229957
C36   C     C_3   0.983136 0.569686 0.440207 -0.230175
C37   C     C_3   0.122621 0.499658 0.500478 -0.033563
C38   C     C_3   0.877221 0.500189 0.499964 -0.030805
C39   C     C_3   0.038157 0.487602 0.421540 0.047570
C40   C     C_3   0.961607 0.512234 0.578939 0.047595
C41   C     C_R   0.499644 0.408921 0.753760 -0.056423
C42   C     C_R   0.555969 0.592080 0.245470 -0.055036
C43   C     C_R   0.508260 0.287378 0.871125 -0.202753
C44   C     C_R   0.638304 0.715529 0.126843 -0.202868
C45   C     C_R   0.485993 0.314794 0.784034 -0.199204
C46   C     C_R   0.599340 0.686855 0.214660 -0.198479
H1    H     H_    0.034601 0.374101 0.609305 0.146702
H2    H     H_    0.965164 0.625715 0.391153 0.147690
H3    H     H_    0.552293 0.230750 0.538157 0.127667
H4    H     H_    0.448292 0.769430 0.461531 0.127937
H5    H     H_    0.293957 0.299377 0.352515 0.145204
H6    H     H_    0.705357 0.700391 0.647919 0.138580
H7    H     H_    0.761541 0.858060 0.688858 0.143485
H8    H     H_    0.237487 0.141603 0.311828 0.146933
H9    H     H_    0.638298 0.131875 0.599726 0.137731
H10   H     H_    0.360861 0.867915 0.400905 0.138143
H11   H     H_    0.870630 0.351068 0.462754 0.155523
H12   H     H_    0.129160 0.648783 0.537724 0.156201
H13   H     H_    0.547105 0.253854 0.041318 0.146417
H14   H     H_    0.698898 0.751113 0.955702 0.144413
H15   H     H_    0.515143 0.454592 0.212741 0.162813
H16   H     H_    0.543085 0.546415 0.786618 0.159344
H17   H     H_    0.602686 0.738498 0.258085 0.158748
H18   H     H_    0.457806 0.262680 0.740782 0.157491
H19   H     H_    0.494195 0.214216 0.894330 0.135903
H20   H     H_    0.668733 0.789042 0.103360 0.135850
H21   H     H_    0.588801 0.366083 0.141945 0.151143
H22   H     H_    0.673145 0.639129 0.855008 0.148722
H23   H     H_    0.734212 0.015405 0.668890 0.143425
H24   H     H_    0.264845 0.984321 0.331812 0.144111
N1    N     N_R   0.574200 0.731700 0.552740 -0.100922
N2    N     N_R   0.425800 0.268300 0.447260 -0.102398
O1    O     O_R   0.462600 0.383110 0.605620 -0.620836
O2    O     O_R   0.537400 0.616890 0.394380 -0.621771
O3    O     O_R   0.510210 0.531900 0.639510 -0.620496
O4    O     O_R   0.489790 0.468100 0.360490 -0.620926
O5    O     O_R   0.662240 0.425610 0.483080 -0.626877
O6    O     O_R   0.337760 0.574390 0.516920 -0.624174
O7    O     O_R   0.709860 0.574400 0.516970 -0.618052
O8    O     O_R   0.290140 0.425600 0.483030 -0.615825
Zn1   Zn    Zn3+2 0.468210 0.400660 0.477370 0.941072
Zn2   Zn    Zn3+2 0.531790 0.599340 0.522630 0.941860
C47   C     C_1   0.084415 0.474033 0.335363 0.136514
N3    N     N_1   0.121148 0.463337 0.267489 -0.210108
C48   C     C_1   0.914925 0.525669 0.665085 0.138983
N4    N     N_1   0.877833 0.536239 0.732914 -0.211806

loop_
_geom_bond_atom_site_label_1
_geom_bond_atom_site_label_2
_ccdc_geom_bond_type
C25   C31   A    
C38   C40   S    
C26   C32   A    
C34   C37   S    
C19   N1    A    
C35   H1    S    
C48   N4    T    
C12   H22   S    
C33   C39   S    
C34   C40   S    
C15   H7    S    
C28   C29   A    
C35   C37   S    
C15   C25   A    
C42   C46   A    
C44   H20   S    
C24   O8    A    
C44   C46   A    
C8    C14   A    
C7    C43   A    
C9    C10   A    
N2    Zn1   S    
C2    O2    A    
N1    Zn2   S    
C21   C27   A    
C22   C28   A    
C27   C30   A    
C18   N2    A    
O2    Zn2   S    
C17   H6    S    
O1    Zn1   S    
C11   H21   S    
C18   H5    S    
C16   C26   A    
C37   C39   S    
C1    O3    A    
C4    C6    A    
C5    C7    A    
C32   H24   S    
C29   H9    S    
C30   H10   S    
C4    H15   S    
C40   C48   S    
C5    C9    A    
C20   H3    S    
O6    Zn2   S    
C31   H23   S    
C47   N3    T    
O5    Zn1   S    
C43   H19   S    
C24   C37   S    
C23   O5    A    
C43   C45   A    
C1    C41   S    
C20   C22   A    
C17   N1    A    
C2    O4    A    
C3    H16   S    
C24   O6    A    
C15   C17   A    
C21   C25   A    
C3    C41   A    
C33   H11   S    
C19   C21   A    
C36   C39   S    
C8    C44   A    
C12   C14   A    
O8    Zn1   S    
C3    C5    A    
O4    Zn1   S    
C6    C10   A    
O7    Zn2   S    
C6    C8    A    
O3    Zn2   S    
C13   H13   S    
C23   C38   S    
C14   H14   S    
C45   H18   S    
C33   C38   S    
C46   H17   S    
C1    O1    A    
C36   C38   S    
C35   C40   S    
C39   C47   S    
C29   C31   A    
C30   C32   A    
C11   C13   A    
C19   H4    S    
C4    C42   A    
C2    C42   S    
C33   C35   S    
C36   H2    S    
C34   C36   S    
C9    C12   A    
C16   H8    S    
C10   C11   A    
C7    C13   A    
C16   C18   A    
C22   C26   A    
C27   C28   A    
C34   H12   S    
C41   C45   A    
C20   N2    A    
C23   O7    A    
