data_mof_unit_21405.cif
_audit_creation_date              2012-12-10T20:38:24-0500
_audit_creation_method            fapswitch 2.2
_symmetry_space_group_name_H-M    P1
_symmetry_Int_Tables_number       1
_space_group_crystal_system       triclinic
_cell_length_a                    9.871521
_cell_length_b                    10.737196
_cell_length_c                    16.64419
_cell_angle_alpha                 92.075997
_cell_angle_beta                  85.616557
_cell_angle_gamma                 88.752458
_cell_volume                      1757.31047405

loop_
_atom_site_label
_atom_site_type_symbol
_atom_type_description
_atom_site_fract_x
_atom_site_fract_y
_atom_site_fract_z
_atom_type_partial_charge
Br1   Br    Br    0.106470 0.870522 0.464243 -0.496434
Br2   Br    Br    0.237877 0.631940 0.283932 -0.430654
Br3   Br    Br    0.794393 0.748342 0.669385 -0.544230
Br4   Br    Br    0.811202 0.561714 0.243180 -0.508983
Br5   Br    Br    0.149482 0.398547 0.902306 -0.578429
Br6   Br    Br    0.719887 0.255841 0.898230 -0.504605
C1    C     C_R   0.499231 0.740061 0.499147 0.921358
C2    C     C_R   0.517150 0.528623 0.259158 -0.206077
C3    C     C_R   0.382577 0.938292 0.478299 0.161167
C4    C     C_R   0.483330 0.475179 0.649945 0.923765
C5    C     C_R   0.501219 0.871429 0.490592 -0.165136
C6    C     C_R   0.625455 0.932667 0.491754 -0.133983
C7    C     C_R   0.626331 0.060928 0.492494 -0.263078
C8    C     C_R   0.504014 0.127926 0.490379 -0.094944
C9    C     C_R   0.384349 0.065937 0.478437 0.087516
C10   C     C_3   0.249844 0.080706 0.525561 -0.522719
C11   C     C_3   0.247851 0.939944 0.525953 0.093900
C12   C     C_R   0.346710 0.424035 0.772568 -0.278974
C13   C     C_R   0.919989 0.583229 0.548217 0.191759
C14   C     C_R   0.939551 0.423205 0.447211 0.150528
C15   C     C_R   0.083002 0.427706 0.446518 -0.063044
C16   C     C_R   0.501278 0.260004 0.498842 0.857714
C17   C     C_R   0.062292 0.582894 0.548747 0.199308
C18   C     C_3   0.053910 0.595067 0.639073 -0.252302
C19   C     C_3   0.898811 0.596142 0.637536 0.051266
C20   C     C_R   0.516806 0.511705 0.346824 0.929027
C21   C     C_R   0.474206 0.418353 0.729604 -0.159735
C22   C     C_R   0.582390 0.349292 0.761569 0.041797
C23   C     C_R   0.380055 0.508139 0.143507 0.045924
C24   C     C_R   0.567547 0.320046 0.843891 0.243214
C25   C     C_R   0.442152 0.342948 0.888729 0.012637
C26   C     C_R   0.328981 0.383476 0.850268 0.264084
C27   C     C_3   0.710296 0.301383 0.711514 -0.411487
C28   C     C_3   0.712007 0.159091 0.697865 -0.310614
C29   C     C_3   0.849127 0.112534 0.657635 -0.817257
C30   C     C_3   0.884509 0.333952 0.385520 -0.364855
C31   C     C_3   0.927649 0.195953 0.393086 -0.429595
C32   C     C_3   0.041982 0.150602 0.330711 -0.776335
C33   C     C_3   0.117943 0.715227 0.669745 -0.310998
C34   C     C_R   0.390840 0.543488 0.224756 0.214157
C35   C     C_3   0.103978 0.729764 0.762065 -0.320892
C36   C     C_3   0.160798 0.853540 0.790283 -0.822434
C37   C     C_3   0.239533 0.498265 0.112429 -0.350326
C38   C     C_3   0.164458 0.386953 0.149323 -0.372369
C39   C     C_3   0.032140 0.361234 0.110508 -0.705165
C40   C     C_R   0.636737 0.521455 0.207635 0.223855
C41   C     C_R   0.627730 0.498734 0.125445 -0.188502
C42   C     C_R   0.501392 0.482319 0.094102 0.048209
C43   C     C_2   0.438563 0.356299 0.976549 -0.119138
C44   C     C_2   0.502947 0.453262 0.007541 -0.157663
H1    H     H_    0.720191 0.491373 0.085827 0.191970
H2    H     H_    0.565434 0.510779 0.967709 0.184520
H3    H     H_    0.259519 0.463098 0.746507 0.185456
H4    H     H_    0.376184 0.296148 0.014251 0.182463
H5    H     H_    0.876225 0.164319 0.602370 0.234685
H6    H     H_    0.929998 0.125140 0.699897 0.274609
H7    H     H_    0.844277 0.012188 0.640411 0.293727
H8    H     H_    0.692693 0.111038 0.755336 0.274649
H9    H     H_    0.630082 0.133405 0.658627 0.217832
H10   H     H_    0.722407 0.337949 0.650851 0.223760
H11   H     H_    0.801372 0.330620 0.741977 0.242695
H12   H     H_    0.720619 0.882870 0.497649 0.223044
H13   H     H_    0.017694 0.174635 0.269037 0.253189
H14   H     H_    0.140995 0.189870 0.343550 0.240145
H15   H     H_    0.052880 0.047647 0.331922 0.302675
H16   H     H_    0.955409 0.177850 0.455019 0.225909
H17   H     H_    0.839223 0.137608 0.381416 0.243007
H18   H     H_    0.773857 0.336904 0.389837 0.250281
H19   H     H_    0.917748 0.364584 0.324454 0.238260
H20   H     H_    0.269991 0.858947 0.769224 0.255487
H21   H     H_    0.103620 0.932685 0.766513 0.270840
H22   H     H_    0.150938 0.861416 0.857187 0.272305
H23   H     H_    0.720439 0.107055 0.501005 0.180387
H24   H     H_    0.995750 0.725831 0.785164 0.280680
H25   H     H_    0.160219 0.652855 0.788583 0.237527
H26   H     H_    0.227835 0.711458 0.649487 0.214848
H27   H     H_    0.071252 0.797687 0.643263 0.251184
H28   H     H_    0.977790 0.449491 0.098649 0.291992
H29   H     H_    0.053567 0.306287 0.053149 0.293230
H30   H     H_    0.964922 0.305615 0.151164 0.239819
H31   H     H_    0.230620 0.301491 0.142253 0.216422
H32   H     H_    0.140079 0.405878 0.214934 0.259857
H33   H     H_    0.179381 0.585768 0.127114 0.250664
H34   H     H_    0.257113 0.124987 0.586510 0.187215
H35   H     H_    0.244511 0.489601 0.046231 0.241966
H36   H     H_    0.172399 0.123872 0.489820 0.230801
H37   H     H_    0.254824 0.903671 0.587005 0.108511
H38   H     H_    0.147706 0.371717 0.403803 0.164908
H39   H     H_    0.093681 0.509536 0.665539 0.159816
H40   H     H_    0.853709 0.512613 0.664588 0.124689
N1    N     N_R   0.857140 0.500860 0.500530 -0.151444
N2    N     N_R   0.142780 0.500820 0.500530 -0.128640
O1    O     O_R   0.385310 0.683210 0.499990 -0.588703
O2    O     O_R   0.614650 0.683240 0.500000 -0.577087
O3    O     O_R   0.371780 0.500000 0.615800 -0.639497
O4    O     O_R   0.601120 0.500040 0.615800 -0.612240
O5    O     O_R   0.385350 0.316760 0.500000 -0.626444
O6    O     O_R   0.614690 0.316790 0.500010 -0.664524
O7    O     O_R   0.398880 0.499960 0.384200 -0.581537
O8    O     O_R   0.628220 0.500000 0.384200 -0.598156
Zn1   Zn    Zn3+2 0.346870 0.499980 0.499990 0.978369
Zn2   Zn    Zn3+2 0.653130 0.500020 0.500010 0.973648

loop_
_geom_bond_atom_site_label_1
_geom_bond_atom_site_label_2
_ccdc_geom_bond_type
C4    C21   S    
C16   O6    A    
O4    Zn2   S    
C37   H33   S    
C35   C36   S    
C10   H34   S    
C18   H39   S    
C33   C35   S    
Br4   C40   S    
C30   H19   S    
C1    C5    S    
C19   H40   S    
C33   H27   S    
C30   C31   S    
C38   H32   S    
C24   C25   A    
C43   H4    S    
C36   H20   S    
C18   C33   S    
C2    C20   S    
C28   C29   S    
C12   H3    S    
C35   H24   S    
C25   C26   A    
C10   C11   S    
O3    Zn1   S    
C44   H2    S    
C17   C18   S    
C39   H28   S    
C20   O7    A    
Br5   C26   S    
C42   C44   S    
C15   H38   S    
C16   O5    A    
C7    C8    A    
C23   C37   S    
C10   H36   S    
C25   C43   S    
O8    Zn2   S    
C32   H14   S    
C1    O1    A    
C14   N1    A    
C23   C42   A    
C29   H5    S    
C37   H35   S    
Br3   C19   S    
C18   C19   S    
C38   H31   S    
O1    Zn1   S    
C41   H1    S    
O6    Zn2   S    
C13   C17   A    
C37   C38   S    
C31   C32   S    
C35   H25   S    
C6    H12   S    
C41   C42   A    
C8    C9    A    
C32   H15   S    
C4    O4    A    
C31   H16   S    
C36   H22   S    
C27   C28   S    
C39   H29   S    
C33   H26   S    
C6    C7    A    
C3    C5    A    
N2    Zn1   S    
C3    C11   S    
Br6   C24   S    
C7    H23   S    
C22   C27   S    
C27   H10   S    
C28   H9    S    
C12   C26   A    
N1    Zn2   S    
C38   C39   S    
C32   H13   S    
C1    O2    A    
C40   C41   A    
O7    Zn1   S    
C29   H6    S    
C11   H37   S    
C12   C21   A    
C5    C6    A    
C30   H18   S    
Br1   C11   S    
C29   H7    S    
C8    C16   S    
C22   C24   A    
C3    C9    A    
C4    O3    A    
C31   H17   S    
C23   C34   A    
C36   H21   S    
C39   H30   S    
C13   C19   S    
C2    C40   A    
C13   N1    A    
C14   C30   S    
Br2   C34   S    
C14   C15   A    
O2    Zn2   S    
C27   H11   S    
C43   C44   D    
C21   C22   A    
C28   H8    S    
C17   N2    A    
C2    C34   A    
O5    Zn1   S    
C9    C10   S    
C20   O8    A    
C15   N2    A    
