data_mof_unit_23409.cif
_audit_creation_date              2012-12-11T17:04:57-0500
_audit_creation_method            fapswitch 2.2
_symmetry_space_group_name_H-M    P1
_symmetry_Int_Tables_number       1
_space_group_crystal_system       triclinic
_cell_length_a                    17.280938
_cell_length_b                    24.285924
_cell_length_c                    14.849921
_cell_angle_alpha                 90.505154
_cell_angle_beta                  125.235964
_cell_angle_gamma                 89.758121
_cell_volume                      5090.20893969

loop_
_atom_site_label
_atom_site_type_symbol
_atom_type_description
_atom_site_fract_x
_atom_site_fract_y
_atom_site_fract_z
_atom_type_partial_charge
C1    C     C_R   0.844523 0.651102 0.908663 -0.146949
C2    C     C_R   0.192527 0.622287 0.093017 -0.156962
C3    C     C_R   0.344722 0.151183 0.908750 -0.146970
C4    C     C_R   0.692595 0.122192 0.093114 -0.156610
C5    C     C_R   0.880406 0.318273 0.003934 0.124047
C6    C     C_R   0.189155 0.367977 0.996208 0.114673
C7    C     C_R   0.380364 0.818295 0.003870 0.123802
C8    C     C_R   0.689033 0.867875 0.996078 0.115037
C9    C     C_R   0.953009 0.501715 0.279434 0.057154
C10   C     C_R   0.929113 0.501146 0.628907 0.054565
C11   C     C_R   0.453024 0.001719 0.279449 0.057347
C12   C     C_R   0.429110 0.001151 0.628910 0.054516
C13   C     C_R   0.674556 0.499931 0.719610 0.042629
C14   C     C_R   0.306799 0.501115 0.362253 0.049295
C15   C     C_R   0.174583 0.000901 0.720233 0.040927
C16   C     C_R   0.807030 0.000105 0.362050 0.051222
C17   C     C_3   0.510628 0.448149 0.586729 -0.157860
C18   C     C_3   0.477976 0.468560 0.471966 -0.131696
C19   C     C_3   0.995064 0.967828 0.630062 -0.147389
C20   C     C_3   0.962035 0.948360 0.513524 -0.158184
C21   C     C_3   0.429885 0.480866 0.579059 -0.134790
C22   C     C_3   0.541452 0.519628 0.522736 -0.146985
C23   C     C_3   0.929788 0.019235 0.579927 -0.126742
C24   C     C_3   0.041733 0.981483 0.522339 -0.131371
C25   C     C_3   0.399146 0.501244 0.465657 0.167355
C26   C     C_3   0.573600 0.499377 0.636886 0.157443
C27   C     C_3   0.899318 0.999641 0.465589 0.160410
C28   C     C_3   0.073603 0.000984 0.637390 0.168292
C29   C     C_3   0.462107 0.552430 0.516073 -0.163682
C30   C     C_3   0.495373 0.532206 0.631653 -0.129163
C31   C     C_3   0.978473 0.032625 0.474018 -0.153769
C32   C     C_3   0.010796 0.052282 0.589680 -0.157671
C33   C     C_R   0.877906 0.242027 0.109181 0.183686
C34   C     C_R   0.252324 0.319595 0.900387 0.183867
C35   C     C_R   0.377840 0.742074 0.109092 0.183162
C36   C     C_R   0.752114 0.819507 0.900175 0.183804
C37   C     C_R   0.861060 0.261025 0.011180 -0.043666
C38   C     C_R   0.266281 0.342428 0.995708 -0.017945
C39   C     C_R   0.361009 0.761059 0.011096 -0.043782
C40   C     C_R   0.766138 0.842360 0.995512 -0.017942
C41   C     C_R   0.818244 0.225163 0.920116 -0.321916
C42   C     C_R   0.344367 0.323009 0.096358 -0.335809
C43   C     C_R   0.318179 0.725207 0.920021 -0.322138
C44   C     C_R   0.844294 0.822983 0.096149 -0.334850
C45   C     C_R   0.943813 0.349959 0.093968 -0.148922
C46   C     C_R   0.098971 0.380704 0.905635 -0.136268
C47   C     C_R   0.443812 0.849955 0.093934 -0.149447
C48   C     C_R   0.598895 0.880672 0.905563 -0.136485
C49   C     C_R   0.273439 0.676937 0.919953 0.562681
C50   C     C_R   0.867650 0.767285 0.102200 0.517287
C51   C     C_R   0.773547 0.176874 0.920067 0.563408
C52   C     C_R   0.367766 0.267319 0.102357 0.517867
C53   C     C_R   0.267567 0.667480 0.010192 -0.179233
C54   C     C_R   0.845792 0.740031 0.004170 -0.164991
C55   C     C_R   0.767699 0.167392 0.010320 -0.179107
C56   C     C_R   0.346000 0.240101 0.004331 -0.165274
C57   C     C_R   0.331200 0.696407 0.108630 0.114782
C58   C     C_R   0.796312 0.770512 0.905829 0.116943
C59   C     C_R   0.831316 0.196333 0.108741 0.112324
C60   C     C_R   0.296554 0.270614 0.906028 0.117807
C61   C     C_3   0.319117 0.721993 0.192422 -0.477747
C62   C     C_3   0.714063 0.753540 0.792809 -0.479559
C63   C     C_3   0.819232 0.221890 0.192548 -0.477050
C64   C     C_3   0.214359 0.253665 0.792953 -0.480798
C65   C     C_3   0.871153 0.271676 0.193034 -0.509460
C66   C     C_3   0.165459 0.306058 0.788570 -0.502908
C67   C     C_3   0.371095 0.771749 0.192932 -0.509642
C68   C     C_3   0.665201 0.805951 0.788413 -0.503157
C69   C     C_R   0.887982 0.552396 0.463492 0.106436
C70   C     C_R   0.895617 0.552796 0.375947 0.121587
C71   C     C_R   0.388073 0.052413 0.463561 0.107675
C72   C     C_R   0.395712 0.052812 0.376021 0.121827
C73   C     C_R   0.890357 0.502611 0.511610 0.040687
C74   C     C_R   0.904124 0.503252 0.333417 0.050250
C75   C     C_R   0.390371 0.002626 0.511623 0.040619
C76   C     C_R   0.404154 0.003266 0.333445 0.050201
C77   C     C_R   0.873156 0.453777 0.450963 -0.184278
C78   C     C_R   0.879555 0.454166 0.361128 -0.185066
C79   C     C_R   0.373120 0.953798 0.450940 -0.185501
C80   C     C_R   0.379532 0.954186 0.361114 -0.184545
C81   C     C_3   0.958562 0.602478 0.420623 -0.417316
C82   C     C_3   0.950074 0.601843 0.515396 -0.425091
C83   C     C_3   0.458740 0.102459 0.420762 -0.418128
C84   C     C_3   0.450254 0.101822 0.515534 -0.425086
C85   C     C_R   0.981693 0.547211 0.249939 -0.133592
C86   C     C_R   0.946250 0.546452 0.694524 -0.112800
C87   C     C_R   0.481714 0.047213 0.249959 -0.134399
C88   C     C_R   0.446255 0.046455 0.694531 -0.111644
C89   C     C_R   0.731011 0.454069 0.747780 -0.122726
C90   C     C_R   0.257896 0.455140 0.302509 -0.165134
C91   C     C_R   0.230604 0.954599 0.748430 -0.140625
C92   C     C_R   0.757931 0.954567 0.301412 -0.149309
C93   C     C_R   0.983717 0.455146 0.253282 -0.118346
C94   C     C_R   0.946816 0.455287 0.692588 -0.135542
C95   C     C_R   0.483716 0.955146 0.253282 -0.118093
C96   C     C_R   0.446803 0.955290 0.692580 -0.136589
C97   C     C_R   0.729735 0.546475 0.747196 -0.135971
C98   C     C_R   0.258285 0.546761 0.303010 -0.129512
C99   C     C_R   0.230197 0.046976 0.747133 -0.118940
C100  C     C_R   0.758507 0.046194 0.303864 -0.145484
C101  C     C_R   0.850606 0.348710 0.910678 -0.139394
C102  C     C_R   0.190026 0.378261 0.089326 -0.074262
C103  C     C_R   0.350520 0.848747 0.910622 -0.138717
C104  C     C_R   0.689923 0.878106 0.089215 -0.074365
C105  C     C_R   0.939393 0.651941 0.090899 -0.162944
C106  C     C_R   0.098617 0.626786 0.909110 -0.059682
C107  C     C_R   0.439461 0.151946 0.090954 -0.162312
C108  C     C_R   0.598703 0.126745 0.909178 -0.059638
C109  C     C_R   0.869492 0.681860 0.001430 0.155638
C110  C     C_R   0.190032 0.637688 0.001942 0.166254
C111  C     C_R   0.369665 0.181920 0.001527 0.156351
C112  C     C_R   0.690146 0.137600 0.002055 0.166088
H1    H     H_    0.807635 0.665314 0.825059 0.098539
H2    H     H_    0.252734 0.623644 0.177725 0.116706
H3    H     H_    0.308062 0.165491 0.825237 0.098173
H4    H     H_    0.752770 0.123436 0.177900 0.116033
H5    H     H_    0.531970 0.405434 0.617538 0.128480
H6    H     H_    0.469208 0.442656 0.404622 0.128789
H7    H     H_    0.004761 0.941560 0.696651 0.127080
H8    H     H_    0.941137 0.905669 0.480963 0.136963
H9    H     H_    0.441342 0.595270 0.485838 0.114499
H10   H     H_    0.505410 0.557987 0.699747 0.137563
H11   H     H_    0.970068 0.059031 0.408218 0.121252
H12   H     H_    0.032086 0.094877 0.622704 0.118434
H13   H     H_    0.813613 0.236305 0.846706 0.188509
H14   H     H_    0.365661 0.343984 0.171807 0.178279
H15   H     H_    0.313563 0.736347 0.846619 0.188563
H16   H     H_    0.865664 0.843998 0.171587 0.179873
H17   H     H_    0.359538 0.699803 0.272270 0.187895
H18   H     H_    0.676929 0.716180 0.792672 0.202660
H19   H     H_    0.859687 0.199695 0.272386 0.188288
H20   H     H_    0.177211 0.216286 0.792716 0.202092
H21   H     H_    0.243986 0.731066 0.159150 0.200332
H22   H     H_    0.732520 0.752673 0.732407 0.187666
H23   H     H_    0.744098 0.230935 0.159298 0.200574
H24   H     H_    0.232881 0.252841 0.732609 0.187657
H25   H     H_    0.941591 0.277616 0.272491 0.189509
H26   H     H_    0.101999 0.296742 0.787366 0.200675
H27   H     H_    0.441530 0.777671 0.272401 0.189581
H28   H     H_    0.601772 0.796669 0.787292 0.200538
H29   H     H_    0.825987 0.309140 0.160077 0.198628
H30   H     H_    0.154016 0.335034 0.724405 0.194164
H31   H     H_    0.325967 0.809227 0.159970 0.198560
H32   H     H_    0.653721 0.834898 0.724190 0.194438
H33   H     H_    0.867394 0.414492 0.480367 0.127448
H34   H     H_    0.877667 0.415169 0.324152 0.124952
H35   H     H_    0.367309 0.914516 0.480312 0.127228
H36   H     H_    0.377604 0.915192 0.324107 0.124868
H37   H     H_    0.924264 0.639170 0.368666 0.266225
H38   H     H_    0.018231 0.591799 0.594018 0.241214
H39   H     H_    0.424499 0.139173 0.368855 0.266332
H40   H     H_    0.518395 0.091735 0.594145 0.241178
H41   H     H_    0.992462 0.335940 0.177751 0.108130
H42   H     H_    0.074416 0.380935 0.820675 0.110054
H43   H     H_    0.492475 0.835919 0.177704 0.108232
H44   H     H_    0.574319 0.880919 0.820597 0.110227
H45   H     H_    0.032243 0.594313 0.447025 0.213901
H46   H     H_    0.911631 0.638111 0.517484 0.207826
H47   H     H_    0.532407 0.094256 0.447147 0.213259
H48   H     H_    0.411877 0.138112 0.517673 0.208108
H49   H     H_    0.969535 0.589907 0.256530 0.117824
H50   H     H_    0.923255 0.588159 0.667467 0.096562
H51   H     H_    0.469591 0.089909 0.256585 0.117917
H52   H     H_    0.423273 0.088165 0.667483 0.096676
H53   H     H_    0.709292 0.411410 0.731518 0.103299
H54   H     H_    0.272012 0.413097 0.331294 0.118553
H55   H     H_    0.207885 0.912090 0.732082 0.112272
H56   H     H_    0.770958 0.912390 0.329276 0.108962
H57   H     H_    0.973783 0.412635 0.264892 0.091997
H58   H     H_    0.927328 0.413300 0.663357 0.091095
H59   H     H_    0.473773 0.912635 0.264883 0.092059
H60   H     H_    0.427303 0.913305 0.663337 0.090899
H61   H     H_    0.706146 0.588761 0.729660 0.102420
H62   H     H_    0.271698 0.588949 0.332190 0.094350
H63   H     H_    0.207618 0.089408 0.729686 0.094382
H64   H     H_    0.773032 0.088231 0.334044 0.101860
H65   H     H_    0.811164 0.333551 0.826693 0.104824
H66   H     H_    0.248232 0.373261 0.174405 0.121183
H67   H     H_    0.310947 0.833647 0.826586 0.105292
H68   H     H_    0.748076 0.872855 0.174196 0.121793
H69   H     H_    0.992007 0.667833 0.171525 0.168416
H70   H     H_    0.069850 0.634822 0.823957 0.159764
H71   H     H_    0.492084 0.167802 0.171611 0.168188
H72   H     H_    0.569979 0.134787 0.824039 0.159830
H73   H     H_    0.381090 0.465170 0.598790 0.128248
H74   H     H_    0.588780 0.535417 0.500808 0.123459
H75   H     H_    0.880885 0.034568 0.600185 0.142449
H76   H     H_    0.089246 0.966071 0.499990 0.125433
N1    N     N_R   0.892620 0.603790 0.941770 -0.041792
N2    N     N_R   0.107380 0.603790 0.058230 -0.049827
N3    N     N_R   0.392620 0.103790 0.941770 -0.042126
N4    N     N_R   0.607380 0.103790 0.058230 -0.049508
N5    N     N_R   0.952270 0.397640 0.058010 -0.042312
N6    N     N_R   0.047730 0.397640 0.941990 -0.044511
N7    N     N_R   0.452270 0.897640 0.058010 -0.042297
N8    N     N_R   0.547730 0.897640 0.941990 -0.044439
N9    N     N_R   0.026310 0.529110 0.206760 -0.039162
N10   N     N_R   0.973690 0.529110 0.793240 -0.033355
N11   N     N_R   0.526310 0.029110 0.206760 -0.039155
N12   N     N_R   0.473690 0.029110 0.793240 -0.033499
N13   N     N_R   0.818570 0.472310 0.793020 -0.042037
N14   N     N_R   0.181430 0.472310 0.206980 -0.039468
N15   N     N_R   0.318570 0.972310 0.793020 -0.041532
N16   N     N_R   0.681430 0.972310 0.206980 -0.039930
N17   N     N_R   0.026930 0.472300 0.207330 -0.040662
N18   N     N_R   0.973070 0.472300 0.792670 -0.037154
N19   N     N_R   0.526930 0.972300 0.207330 -0.040898
N20   N     N_R   0.473070 0.972300 0.792670 -0.036953
N21   N     N_R   0.817960 0.529130 0.792460 -0.042744
N22   N     N_R   0.182040 0.529130 0.207540 -0.035765
N23   N     N_R   0.317960 0.029130 0.792460 -0.043313
N24   N     N_R   0.682040 0.029130 0.207540 -0.034976
N25   N     N_R   0.894850 0.397640 0.943830 -0.042359
N26   N     N_R   0.105150 0.397640 0.056170 -0.048063
N27   N     N_R   0.394850 0.897640 0.943830 -0.041849
N28   N     N_R   0.605150 0.897640 0.056170 -0.048464
N29   N     N_R   0.950040 0.603780 0.055950 -0.048626
N30   N     N_R   0.049960 0.603780 0.944050 -0.061248
N31   N     N_R   0.450040 0.103780 0.055950 -0.048511
N32   N     N_R   0.549960 0.103780 0.944050 -0.061400
Ni1   Ni    Ni4+2 0.934160 0.565860 0.869070 0.213057
Ni2   Ni    Ni4+2 0.065840 0.565860 0.130930 0.224605
Ni3   Ni    Ni4+2 0.434160 0.065860 0.869070 0.213726
Ni4   Ni    Ni4+2 0.565840 0.065860 0.130930 0.224275
Ni5   Ni    Ni4+2 0.067260 0.435560 0.132230 0.227037
Ni6   Ni    Ni4+2 0.932740 0.435560 0.867770 0.219790
Ni7   Ni    Ni4+2 0.567260 0.935560 0.132230 0.227047
Ni8   Ni    Ni4+2 0.432740 0.935560 0.867770 0.219235
S1    S     S_3+6 0.223612 0.633275 0.803804 -0.074382
O1    O     O_2   0.136662 0.661022 0.709460 -0.339314
O2    O     O_2   0.293543 0.626060 0.775233 -0.278108
O3    O     O_3   0.196332 0.571052 0.827206 -0.555848
H77   H     H_    0.167583 0.550487 0.756881 0.362898
S2    S     S_3+6 0.878174 0.732056 0.213371 -0.068269
O4    O     O_2   0.978714 0.714666 0.297685 -0.353452
O5    O     O_2   0.848979 0.769089 0.270558 -0.275098
O6    O     O_3   0.803671 0.677784 0.162670 -0.522293
H78   H     H_    0.842809 0.644782 0.178393 0.333357
S3    S     S_3+6 0.723753 0.133210 0.803919 -0.075145
O7    O     O_2   0.636856 0.160973 0.709529 -0.339541
O8    O     O_2   0.793747 0.125968 0.775450 -0.279646
O9    O     O_3   0.696380 0.070999 0.827251 -0.555972
H79   H     H_    0.668054 0.050355 0.757093 0.362891
S4    S     S_3+6 0.378246 0.232034 0.213445 -0.067843
O10   O     O_2   0.478785 0.214644 0.297763 -0.353898
O11   O     O_2   0.349004 0.269016 0.270648 -0.273145
O12   O     O_3   0.303750 0.177758 0.162616 -0.521740
H80   H     H_    0.342934 0.144746 0.178615 0.333507

loop_
_geom_bond_atom_site_label_1
_geom_bond_atom_site_label_2
_ccdc_geom_bond_type
C53   C110  S    
C58   C62   S    
C87   H51   S    
N8    Ni8   S    
N22   Ni2   S    
C22   C29   S    
C5    C37   S    
C55   C112  S    
N10   N18   A    
C2    N2    A    
N21   Ni1   S    
C4    N4    A    
C89   N13   A    
C19   C20   S    
C94   N18   A    
C87   N11   A    
C72   C76   A    
C93   N17   A    
C34   C66   S    
C63   C65   S    
C81   C82   S    
C84   H48   S    
C33   C65   S    
C99   N23   A    
C77   C78   A    
C98   N22   A    
C93   H57   S    
C50   C54   A    
C108  C112  A    
C97   N21   A    
N8    N28   A    
C17   C26   S    
C14   C98   A    
C47   N7    A    
S3    O7    D    
C38   C42   A    
S1    O3    S    
C55   C59   A    
C11   C76   S    
C52   S4    S    
N24   Ni4   S    
C82   H46   S    
C10   C73   S    
N1    Ni1   S    
C96   N20   A    
C103  H67   S    
C10   C94   A    
C11   C95   A    
C91   N15   A    
C85   H49   S    
S4    O10   D    
N27   Ni8   S    
C103  N27   A    
C57   C61   S    
C50   S2    S    
C70   C81   S    
C32   H12   S    
C14   C90   A    
C21   C25   S    
C69   C82   S    
C9    C85   A    
N31   Ni4   S    
C52   C56   A    
N9    N17   A    
C102  N26   A    
N18   Ni6   S    
C64   H20   S    
C11   C87   A    
C29   H9    S    
C70   C74   A    
C6    C38   S    
C98   H62   S    
C69   C73   A    
C1    H1    S    
C86   H50   S    
C63   H19   S    
C29   C30   S    
C67   H27   S    
C18   H6    S    
C56   C111  S    
N7    N27   A    
C92   N16   A    
C47   H43   S    
C61   H17   S    
C34   C60   A    
C1    C109  A    
C16   C27   S    
C48   H44   S    
C19   H7    S    
N12   N20   A    
C7    C103  A    
O6    H78   S    
C90   H54   S    
C37   C41   A    
N5    Ni5   S    
N15   N23   A    
C67   H31   S    
N20   Ni8   S    
C18   C25   S    
S2    O5    D    
N14   N22   A    
C18   C22   S    
N2    N30   A    
N13   N21   A    
N15   Ni8   S    
N11   Ni4   S    
C95   N19   A    
N1    N29   A    
C91   H55   S    
N14   Ni5   S    
C83   H39   S    
C25   C29   S    
N13   Ni6   S    
C46   H42   S    
C5    C101  A    
C59   C63   S    
N28   Ni7   S    
C97   H61   S    
C108  H72   S    
C27   C31   S    
C72   C83   S    
C41   H13   S    
N6    Ni6   S    
C36   C40   A    
N10   Ni1   S    
C81   H45   S    
C15   C91   A    
C104  N28   A    
N9    Ni2   S    
C61   H21   S    
N3    N31   A    
C53   C57   A    
C19   C23   S    
C16   C100  A    
C79   H35   S    
N26   Ni5   S    
C88   H52   S    
C5    C45   A    
C100  N24   A    
C33   C37   A    
C56   C60   A    
C46   N6    A    
C107  H71   S    
S2    O6    S    
C63   H23   S    
C30   H10   S    
C22   H74   S    
C80   H36   S    
C35   C39   A    
C21   H73   S    
C8    C48   A    
C100  H64   S    
S1    O1    D    
C42   C52   A    
C3    N3    A    
C65   H29   S    
S2    O4    D    
C61   C67   S    
C83   C84   S    
C66   H26   S    
C28   C32   S    
C12   C88   A    
N23   Ni3   S    
N16   N24   A    
N11   N19   A    
C17   C18   S    
C83   H47   S    
S3    O8    D    
C13   C97   A    
N16   Ni7   S    
N17   Ni5   S    
C19   C28   S    
C8    C104  A    
C89   H53   S    
C82   H38   S    
C86   N10   A    
C107  N31   A    
C84   H40   S    
N19   Ni7   S    
C106  N30   A    
C41   C51   A    
C26   C30   S    
C4    C112  A    
C23   C27   S    
C96   H60   S    
C102  H66   S    
C24   C28   S    
C3    C111  A    
C13   C26   S    
C68   H28   S    
C16   C92   A    
C45   H41   S    
C9    C74   S    
N4    N32   A    
C42   H14   S    
C43   H15   S    
C9    C93   A    
C20   H8    S    
C17   H5    S    
N30   Ni1   S    
C71   C84   S    
C106  C110  A    
C44   C50   A    
N29   Ni2   S    
C105  C109  A    
C62   H22   S    
C2    C110  A    
C44   H16   S    
C6    C46   A    
O9    H79   S    
C34   C38   A    
N12   Ni3   S    
C107  C111  A    
C4    H4    S    
C31   C32   S    
C43   C49   A    
C76   C80   A    
C15   C99   A    
N6    N26   A    
C39   C43   A    
O12   H80   S    
C36   C68   S    
N5    N25   A    
C66   H30   S    
C20   C27   S    
N7    Ni7   S    
C13   C89   A    
N3    Ni3   S    
C21   C30   S    
C74   C78   A    
C36   C58   A    
C62   H18   S    
S4    O12   S    
C60   C64   S    
C24   H76   S    
C23   C32   S    
C88   N12   A    
N2    Ni2   S    
C24   C31   S    
C65   H25   S    
C71   C72   A    
S1    O2    D    
C64   C66   S    
C3    H3    S    
C75   C79   A    
C94   H58   S    
C105  N29   A    
C71   C75   A    
C2    H2    S    
C10   C86   A    
C15   C28   S    
C104  H68   S    
C77   H33   S    
C101  N25   A    
C81   H37   S    
O3    H77   S    
S4    O11   D    
N4    Ni4   S    
C68   H32   S    
S3    O9    S    
C51   C55   A    
C45   N5    A    
C6    C102  A    
C14   C25   S    
C49   S1    S    
C69   C70   A    
C17   C21   S    
C92   H56   S    
C49   C53   A    
C101  H65   S    
C35   C67   S    
C78   H34   S    
C31   H11   S    
C79   C80   A    
C108  N32   A    
C62   C68   S    
C40   C44   A    
C99   H63   S    
C54   C109  S    
C73   C77   A    
C33   C59   A    
C35   C57   A    
C22   C26   S    
C12   C75   S    
C54   C58   A    
C7    C39   S    
C85   N9    A    
C12   C96   A    
C51   S3    S    
C64   H24   S    
C8    C40   S    
C105  H69   S    
N25   Ni6   S    
C95   H59   S    
C23   H75   S    
C20   C24   S    
N32   Ni3   S    
C48   N8    A    
C106  H70   S    
C7    C47   A    
C90   N14   A    
C1    N1    A    
