data_mof_unit_66831.cif
_audit_creation_date              2013-03-05T15:41:46-0500
_audit_creation_method            fapswitch 2.2
_symmetry_space_group_name_H-M    P1
_symmetry_Int_Tables_number       1
_space_group_crystal_system       triclinic
_cell_length_a                    8.546623
_cell_length_b                    15.224446
_cell_length_c                    15.252669
_cell_angle_alpha                 99.342123
_cell_angle_beta                  98.801724
_cell_angle_gamma                 98.66796
_cell_volume                      1903.63738643

loop_
_atom_site_label
_atom_site_type_symbol
_atom_site_description
_atom_site_fract_x
_atom_site_fract_y
_atom_site_fract_z
_atom_type_partial_charge
P1    P     P_3+3 0.004200 0.709230 0.580350 0.596985
O1    O     O_2   0.174080 0.723060 0.553930 -0.221546
O2    O     O_3   0.901570 0.609580 0.550840 -0.405598
O3    O     O_3   0.370350 0.665080 0.388270 -0.345740
O4    O     O_2   0.328715 0.825363 0.461155 -0.300449
O5    O     O_3   0.002282 0.752534 0.696016 -0.595797
O6    O     O_3   0.371815 0.806218 0.294886 -0.530288
H1    H     H_    0.506504 0.722062 0.230234 0.121922
C1    C     C_3   0.440189 0.823476 0.152200 -0.463838
H2    H     H_    0.391804 0.887145 0.166533 0.233501
P2    P     P_3+3 0.305000 0.425570 0.290900 0.583609
P3    P     P_3+3 0.862990 0.613030 0.225354 0.446132
O7    O     O_2   0.134790 0.452800 0.278150 -0.355640
O8    O     O_3   0.937650 0.618620 0.340860 -0.340737
O9    O     O_2   0.983012 0.575196 0.168889 -0.410414
O10   O     O_3   0.257976 0.308543 0.245831 -0.511667
O11   O     O_3   0.853084 0.722090 0.203566 -0.625169
C2    C     C_3   0.004021 0.778361 0.223360 0.961239
H3    H     H_    0.101845 0.740622 0.210602 0.093336
C3    C     C_3   0.001047 0.850113 0.164357 -0.906499
H4    H     H_    0.121517 0.893329 0.175099 0.269461
H5    H     H_    0.964257 0.817636 0.091946 0.221046
C4    C     C_3   0.677190 0.307577 0.252941 0.278287
H6    H     H_    0.556760 0.291149 0.271141 0.173991
C5    C     C_3   0.660396 0.277204 0.146687 -0.139808
Ba1   Ba    Ba6+2 0.154730 0.543770 0.458180 1.705357
C6    C     C_3   0.093945 0.724677 0.767124 0.658885
C7    C     C_3   0.120624 0.801704 0.852721 -0.610616
H7    H     H_    0.094499 0.865183 0.831317 0.274842
H8    H     H_    0.035500 0.785427 0.898382 0.164553
C8    C     C_3   0.217563 0.255792 0.309094 0.153764
H9    H     H_    0.117502 0.279059 0.339337 0.068333
H10   H     H_    0.324652 0.261952 0.362650 0.158074
C9    C     C_3   0.162536 0.154973 0.261425 0.487206
P4    P     P_3+3 0.806080 0.290760 0.419570 0.582365
O12   O     O_2   0.636200 0.276890 0.446040 -0.305058
O13   O     O_3   0.908720 0.390410 0.449080 -0.364084
O14   O     O_3   0.439930 0.334910 0.611650 -0.387673
O15   O     O_3   0.781489 0.261019 0.299713 -0.573732
P5    P     P_3+3 0.926993 0.391442 0.776888 0.494713
O16   O     O_3   0.402060 0.547860 0.609750 -0.308614
O17   O     O_3   0.872630 0.381370 0.659060 -0.388138
O18   O     O_2   0.826523 0.457946 0.818276 -0.296755
O19   O     O_3   0.841154 0.290988 0.807019 -0.476109
Ba2   Ba    Ba6+2 0.655430 0.456220 0.541750 1.699701
P6    P     P_3+3 0.434655 0.780333 0.400441 0.542305
C10   C     C_3   0.490554 0.793886 0.241896 0.185717
H11   H     H_    0.608376 0.836250 0.275317 0.088719
O20   O     O_3   0.408220 0.452130 0.390170 -0.320783
C11   C     C_3   0.648736 0.742758 0.714086 0.707974
H12   H     H_    0.737160 0.705631 0.687853 0.042676
C12   C     C_3   0.729308 0.836199 0.772109 -0.048860
H13   H     H_    0.825770 0.824769 0.822831 0.115911
P7    P     P_3+3 0.508664 0.577268 0.724654 0.564748
O21   O     O_2   0.675490 0.547140 0.721820 -0.362328
O22   O     O_3   0.569820 0.693619 0.769648 -0.586232
H14   H     H_    0.914242 0.894430 0.182032 0.303136
C13   C     C_3   0.946838 0.228407 0.806171 0.400328
H15   H     H_    0.074826 0.261808 0.823944 -0.029650
C14   C     C_3   0.916657 0.171608 0.877757 -0.829803
H16   H     H_    0.789184 0.136362 0.864086 0.270599
H17   H     H_    0.996371 0.120317 0.878514 0.232536
H18   H     H_    0.942105 0.216051 0.945560 0.262960
P8    P     P_3+3 0.392297 0.217899 0.595916 0.505635
C15   C     C_3   0.383429 0.224905 0.766540 0.506978
H19   H     H_    0.266931 0.243130 0.739170 -0.221883
O23   O     O_2   0.508254 0.183728 0.536116 -0.323924
O24   O     O_3   0.459600 0.185853 0.698417 -0.488896
H20   H     H_    0.292289 0.184353 0.882984 0.233835
C16   C     C_3   0.347115 0.155173 0.826041 -0.738069
H21   H     H_    0.459285 0.132797 0.853821 0.268727
H22   H     H_    0.261493 0.095097 0.785308 0.242193
C17   C     C_R   0.176728 0.169383 0.542301 0.145915
C18   C     C_R   0.110685 0.076175 0.534354 -0.059644
C19   C     C_R   0.971637 0.891263 0.535544 -0.067093
C20   C     C_R   0.128055 0.931849 0.582053 0.516106
C21   C     C_R   0.202955 0.013511 0.565140 -0.286384
C22   C     C_R   0.904830 0.795117 0.524220 0.346492
C23   C     C_R   0.746786 0.764866 0.477744 -0.386643
C24   C     C_R   0.914998 0.200657 0.469304 0.214152
C25   C     C_R   0.849878 0.104478 0.458610 -0.055406
C26   C     C_R   0.945572 0.044714 0.497828 0.064267
C27   C     C_R   0.693847 0.062952 0.411145 0.564364
C28   C     C_R   0.630335 0.974106 0.412830 -0.323597
C29   C     C_R   0.718744 0.916602 0.452929 -0.002561
C30   C     C_R   0.879297 0.950524 0.494641 0.076167
C31   C     C_R   0.651150 0.824698 0.447440 0.223903
C32   C     C_R   0.076081 0.229731 0.514781 -0.471445
H23   H     H_    0.508589 0.949886 0.377884 0.221341
H24   H     H_    0.692962 0.694414 0.470497 0.157576
C33   C     C_R   0.240860 0.476583 0.769614 -0.495200
C34   C     C_R   0.144023 0.438204 0.824339 0.194153
C35   C     C_R   0.208848 0.441586 0.915437 -0.169225
C36   C     C_R   0.365730 0.490407 0.955157 0.083924
C37   C     C_R   0.455371 0.536742 0.898272 -0.201118
C38   C     C_R   0.398292 0.521878 0.803859 0.269512
C39   C     C_R   0.598082 0.524032 0.090591 -0.300404
C40   C     C_R   0.654189 0.553746 0.183189 0.216481
C41   C     C_R   0.397515 0.490406 0.212310 0.301845
C42   C     C_R   0.332394 0.473929 0.118952 -0.072839
C43   C     C_R   0.431220 0.496710 0.055584 0.169210
C44   C     C_R   0.546600 0.546527 0.242704 -0.420243
H25   H     H_    0.686088 0.524925 0.046968 0.174780
H26   H     H_    0.132748 0.407736 0.954537 0.140698
H27   H     H_    0.209050 0.439915 0.097529 0.161801
H28   H     H_    0.586868 0.574131 0.313936 0.181814
H29   H     H_    0.188736 0.479418 0.701596 0.154509
C45   C     C_2   0.655567 0.177708 0.113650 0.931380
H30   H     H_    0.691983 0.155373 0.049659 -0.046611
O25   O     O_2   0.603519 0.120429 0.153940 -0.412535
Cl1   Cl    Cl    0.472384 0.296366 0.092708 -0.654673
C46   C     C_2   0.791692 0.328290 0.108032 0.308263
H31   H     H_    0.762438 0.371296 0.060055 0.162803
O26   O     O_2   0.932331 0.322062 0.130232 -0.584004
Cl2   Cl    Cl    0.270785 0.707662 0.738193 -0.642499
C47   C     C_2   0.014691 0.635915 0.783153 0.456120
H32   H     H_    0.965975 0.581535 0.725868 0.080323
O27   O     O_2   0.015633 0.621723 0.859735 -0.534544
C48   C     C_2   0.285928 0.824723 0.909735 0.663620
H33   H     H_    0.355129 0.772126 0.921039 0.029641
O28   O     O_2   0.341360 0.903054 0.946237 -0.500665
C49   C     C_2   0.310018 0.753088 0.090881 0.475896
H34   H     H_    0.201344 0.772465 0.059821 0.050621
O29   O     O_2   0.325460 0.674186 0.073871 -0.606055
C50   C     C_2   0.989602 0.136353 0.216809 0.598687
H35   H     H_    0.955479 0.167000 0.159466 0.028363
O30   O     O_2   0.888768 0.084589 0.241208 -0.506849
Cl3   Cl    Cl    0.193442 0.081058 0.339192 -0.612472
Cl4   Cl    Cl    0.270839 0.124548 0.173941 -0.452776
C51   C     C_2   0.582482 0.843153 0.107269 0.616728
H36   H     H_    0.651876 0.791302 0.089944 0.030689
O31   O     O_2   0.624410 0.918858 0.092680 -0.440386
Cl5   Cl    Cl    0.515153 0.756726 0.618788 -0.514968
Cl6   Cl    Cl    0.815135 0.913977 0.709732 -0.642845
C52   C     C_2   0.617673 0.881835 0.822678 0.699177
H37   H     H_    0.507950 0.895883 0.786875 0.140740
O32   O     O_2   0.652539 0.905824 0.904594 -0.545878
C53   C     C_2   0.917250 0.166989 0.715319 0.572613
H38   H     H_    0.996552 0.119098 0.701769 -0.014207
O33   O     O_2   0.803723 0.169243 0.656950 -0.501043
C54   C     C_2   0.492739 0.309886 0.819722 0.620647
H39   H     H_    0.524819 0.365223 0.785730 0.038257
O34   O     O_2   0.547860 0.317772 0.899869 -0.583013
Cl7   Cl    Cl    0.228941 0.898414 0.676033 -0.549995
C55   C     C_2   0.369812 0.015377 0.550829 0.850559
H40   H     H_    0.396905 0.028573 0.487052 0.035034
O35   O     O_2   0.475392 0.000937 0.607471 -0.486609
Cl8   Cl    Cl    0.570256 0.108014 0.335535 -0.474756
C56   C     C_2   0.138515 0.326643 0.538544 0.695518
H41   H     H_    0.111447 0.364579 0.597800 -0.043906
O36   O     O_2   0.219054 0.364476 0.491686 -0.541322
Cl9   Cl    Cl    0.037737 0.835254 0.336976 -0.615591
C57   C     C_2   0.589052 0.613085 0.938287 0.592764
H42   H     H_    0.576126 0.661368 0.995520 0.011795
O37   O     O_2   0.716658 0.620020 0.911419 -0.507927
C58   C     C_2   0.740785 0.406613 0.283007 0.433816
H43   H     H_    0.837052 0.439081 0.255203 0.087975
O38   O     O_2   0.699037 0.448799 0.347478 -0.550998

loop_
_geom_bond_atom_site_label_1
_geom_bond_atom_site_label_2
_geom_bond_distance
_ccdc_geom_bond_type
C35   C36   1.422002 A    
C12   Cl6   1.778464 S    
C32   C56   1.457008 S    
P4    O15   1.782215 S    
C37   C38   1.417347 A    
C23   C31   1.398921 A    
C55   H40   1.076383 S    
C52   H37   1.079363 S    
O3    P6    1.728505 S    
C29   C30   1.402476 A    
C47   H32   1.082646 S    
O10   C8    1.401907 S    
C42   H27   1.077647 S    
C14   H18   1.110980 S    
P8    O24   1.752188 S    
P2    C41   1.864238 S    
C7    H7    1.111564 S    
P4    O13   1.590624 S    
C2    H3    1.106925 S    
C56   O36   1.216997 D    
O11   C2    1.397472 S    
Ba1   O16   2.869647 S    
C13   C14   1.527088 S    
C15   C16   1.531905 S    
P4    C24   1.957122 S    
C45   H30   1.087314 S    
C14   H17   1.111266 S    
P1    O1    1.558587 D    
C17   C18   1.424339 A    
C42   C43   1.427679 A    
O14   Ba2   2.855661 S    
C5    C46   1.516575 S    
C25   C27   1.415620 A    
C33   C38   1.395385 A    
C58   O38   1.215814 D    
P5    O18   1.543180 D    
C8    H9    1.108417 S    
C36   C43   1.530541 S    
O19   C13   1.408088 S    
C23   H24   1.082363 S    
C18   C21   1.418252 A    
P3    O11   1.757082 S    
C10   H11   1.109171 S    
C11   C12   1.546183 S    
C4    H6    1.109677 S    
C8    H10   1.110956 S    
C16   H21   1.111601 S    
C57   O37   1.218453 D    
C1    H2    1.112697 S    
P3    C40   1.840560 S    
Ba1   Ba2   4.702476 S    
C6    C47   1.492239 S    
C13   C53   1.503111 S    
P5    O17   1.761469 S    
C57   H42   1.077154 S    
C4    C58   1.493750 S    
P1    C22   1.907786 S    
C1    C49   1.502548 S    
C36   C37   1.441045 A    
C18   C26   1.414285 A    
C2    Cl9   1.766632 S    
C35   H26   1.077837 S    
C46   O26   1.220095 D    
C46   H31   1.084248 S    
C55   O35   1.221418 D    
C39   C40   1.396167 A    
O14   P8    1.734794 S    
C29   C31   1.414927 A    
P7    O22   1.760235 S    
P1    O5    1.783776 S    
O6    P6    1.743843 S    
C33   H29   1.074951 S    
C20   C21   1.391681 A    
C9    Cl4   1.777185 S    
Ba1   O20   2.974083 S    
C33   C34   1.395392 A    
C22   C23   1.397353 A    
C25   C26   1.451161 A    
P2    Ba1   3.406832 S    
C13   H15   1.107009 S    
C1    C51   1.500083 S    
O2    Ba2   2.867263 S    
C11   O22   1.400524 S    
C14   H16   1.111882 S    
P1    O2    1.590596 S    
P4    O12   1.558933 D    
O6    C10   1.406244 S    
C51   O31   1.220454 D    
C19   C20   1.410914 A    
P8    O23   1.537112 D    
C17   C32   1.418868 A    
P2    O20   1.587224 S    
C15   C54   1.505896 S    
P2    O10   1.763640 S    
C19   C30   1.439699 A    
O5    C6    1.399782 S    
P3    O9    1.553429 D    
Ba2   O20   2.869126 S    
P8    C17   1.881850 S    
C15   O24   1.407133 S    
O8    Ba1   2.868117 S    
C11   H12   1.094794 S    
C8    C9    1.556031 S    
O12   Ba2   2.847714 S    
O1    Ba1   2.847228 S    
C28   C29   1.394003 A    
C39   H25   1.077799 S    
C48   O28   1.220661 D    
C53   O33   1.220986 D    
C20   Cl7   1.745940 S    
C3    H5    1.110294 S    
C1    C10   1.529146 S    
C50   H35   1.078501 S    
O7    Ba1   2.835194 S    
C27   C28   1.385329 A    
C28   H23   1.074046 S    
C49   O29   1.218516 D    
P4    Ba2   3.415268 S    
C21   C55   1.472144 S    
C12   H13   1.095555 S    
P6    C31   1.858461 S    
C52   O32   1.219989 D    
P7    O21   1.566755 D    
C58   H43   1.073955 S    
P7    C38   1.870864 S    
O2    Ba1   2.968543 S    
P3    O8    1.763291 S    
C24   C25   1.459290 A    
C11   Cl5   1.768374 S    
O3    Ba1   2.856369 S    
C48   H33   1.084942 S    
C7    C48   1.500282 S    
Ba1   O13   2.866565 S    
O4    P6    1.544330 D    
C41   C42   1.414124 A    
C54   O34   1.220566 D    
C51   H36   1.079847 S    
C3    H14   1.109645 S    
H1    C10   1.111359 S    
C24   C32   1.413090 A    
C40   C44   1.392484 A    
C56   H41   1.067125 S    
C26   C30   1.450395 A    
P2    O7    1.564374 D    
P1    Ba1   3.414608 S    
C45   O25   1.215195 D    
C9    C50   1.493731 S    
C4    O15   1.402121 S    
C7    H8    1.110169 S    
C34   C35   1.404576 A    
C47   O27   1.220961 D    
C44   H28   1.081310 S    
C2    C3    1.524607 S    
C4    C5    1.589490 S    
H20   C16   1.110547 S    
C19   C22   1.460917 A    
O16   P7    1.798821 S    
P5    C34   1.869509 S    
C53   H38   1.084705 S    
C5    Cl1   1.777463 S    
C27   Cl8   1.737491 S    
P5    O19   1.755441 S    
C41   C44   1.389592 A    
C3    H4    1.108614 S    
Ba2   O21   2.835318 S    
C9    Cl3   1.780488 S    
C15   H19   1.111873 S    
C6    C7    1.569391 S    
C50   O30   1.221023 D    
C12   C52   1.496319 S    
O16   Ba2   2.973151 S    
C16   H22   1.110260 S    
C37   C57   1.478106 S    
C49   H34   1.080477 S    
C54   H39   1.081404 S    
O13   Ba2   2.969571 S    
O17   Ba2   2.868657 S    
C39   C43   1.417025 A    
C5    C45   1.509018 S    
C6    Cl2   1.682592 S    
