data_mof_unit_20960.cif
_audit_creation_date              2012-12-10T19:26:45-0500
_audit_creation_method            fapswitch 2.2
_symmetry_space_group_name_H-M    P1
_symmetry_Int_Tables_number       1
_space_group_crystal_system       triclinic
_cell_length_a                    19.212637
_cell_length_b                    10.529851
_cell_length_c                    9.822729
_cell_angle_alpha                 90.930107
_cell_angle_beta                  91.725639
_cell_angle_gamma                 88.990668
_cell_volume                      1985.74445873

loop_
_atom_site_label
_atom_site_type_symbol
_atom_type_description
_atom_site_fract_x
_atom_site_fract_y
_atom_site_fract_z
_atom_type_partial_charge
C1    C     C_R   0.499441 0.258017 0.499005 0.977120
C2    C     C_3   0.491002 0.038613 0.368493 -0.360352
C3    C     C_3   0.511331 0.388610 0.046200 0.579058
C4    C     C_3   0.488536 0.611726 0.953616 0.576592
C5    C     C_3   0.558985 0.460879 0.955970 -0.110745
C6    C     C_3   0.440729 0.539467 0.044205 -0.114062
C7    C     C_3   0.451717 0.426082 0.946195 -0.310948
C8    C     C_3   0.548118 0.573967 0.053460 -0.282550
C9    C     C_R   0.365728 0.497614 0.498613 0.910572
C10   C     C_R   0.634298 0.501329 0.501357 0.921376
C11   C     C_R   0.256056 0.472975 0.619783 -0.183764
C12   C     C_R   0.501186 0.742025 0.500969 1.000754
C13   C     C_R   0.744341 0.519917 0.380028 -0.166204
C14   C     C_R   0.183778 0.468548 0.622197 -0.050225
C15   C     C_R   0.816696 0.518866 0.377237 -0.051743
C16   C     C_R   0.145082 0.481492 0.498051 -0.088511
C17   C     C_R   0.855239 0.502640 0.501119 -0.090335
C18   C     C_R   0.179050 0.494711 0.373380 -0.027352
C19   C     C_R   0.821101 0.489962 0.625712 -0.026463
C20   C     C_R   0.251489 0.497682 0.375221 -0.215157
C21   C     C_R   0.748597 0.491589 0.624080 -0.221158
C22   C     C_R   0.289974 0.489852 0.497419 -0.053944
C23   C     C_3   0.560704 0.042925 0.550086 0.534645
C24   C     C_R   0.710182 0.504550 0.502368 -0.067388
C25   C     C_R   0.930430 0.497037 0.500316 0.412568
C26   C     C_R   0.069892 0.486420 0.498822 0.411792
C27   C     C_2   0.151332 0.453376 0.756738 0.959306
C28   C     C_2   0.849363 0.531864 0.242548 0.963209
C29   C     C_2   0.140751 0.504114 0.239631 0.916125
C30   C     C_2   0.859231 0.477029 0.759276 0.916744
C31   C     C_2   0.613110 0.914325 0.338584 0.923332
C32   C     C_2   0.389871 0.094453 0.659246 0.970640
C33   C     C_3   0.663756 0.009364 0.670723 -0.209347
C34   C     C_3   0.440857 0.957551 0.449478 0.531037
C35   C     C_3   0.342754 0.981931 0.310710 -0.208684
C36   C     C_2   0.627624 0.411214 0.908960 0.968871
C37   C     C_2   0.371728 0.585512 0.093204 0.924732
C38   C     C_3   0.511229 0.171653 0.011905 -0.309581
C39   C     C_3   0.461026 0.824023 0.992253 -0.276425
C40   C     C_3   0.553166 0.957478 0.423079 -0.133488
C41   C     C_3   0.448546 0.042975 0.576365 -0.129505
C42   C     C_3   0.502583 0.876872 0.502234 -0.195019
C43   C     C_3   0.499102 0.123264 0.497423 -0.180479
C44   C     C_3   0.510701 0.961794 0.631177 -0.356590
H1    H     H_    0.285984 0.465225 0.714700 0.210942
H2    H     H_    0.841668 0.603881 0.053339 0.372937
H3    H     H_    0.057090 0.455835 0.121951 0.374494
H4    H     H_    0.943481 0.520001 0.877824 0.374993
H5    H     H_    0.673922 0.769678 0.272489 0.351984
H6    H     H_    0.303159 0.204470 0.665790 0.358850
H7    H     H_    0.670816 0.918800 0.612310 0.151377
H8    H     H_    0.640517 0.991214 0.770679 0.166402
H9    H     H_    0.716186 0.049050 0.691336 0.205063
H10   H     H_    0.289143 0.946716 0.292727 0.202206
H11   H     H_    0.368996 0.979168 0.211390 0.152806
H12   H     H_    0.714496 0.530248 0.285334 0.212888
H13   H     H_    0.338378 0.081442 0.349772 0.187436
H14   H     H_    0.679792 0.280117 0.798291 0.359116
H15   H     H_    0.318837 0.709373 0.211615 0.353391
H16   H     H_    0.540519 0.084834 0.043376 0.199046
H17   H     H_    0.454627 0.152793 0.015978 0.180305
H18   H     H_    0.525407 0.191051 0.905340 0.213238
H19   H     H_    0.489374 0.811413 0.091888 0.171272
H20   H     H_    0.403915 0.826820 0.005035 0.217444
H21   H     H_    0.474838 0.917913 0.953932 0.180146
H22   H     H_    0.411664 0.364574 0.896590 0.193621
H23   H     H_    0.588131 0.635861 0.102382 0.198174
H24   H     H_    0.277916 0.504565 0.280658 0.210927
H25   H     H_    0.722051 0.484222 0.718424 0.210775
H26   H     H_    0.519969 0.927351 0.736100 0.215631
H27   H     H_    0.482224 0.073049 0.263503 0.200096
H28   H     H_    0.160047 0.380480 0.945436 0.373033
N1    N     N_R   0.035407 0.595231 0.465255 -0.118696
N2    N     N_R   0.964903 0.388156 0.533833 -0.115388
N3    N     N_R   0.966411 0.600531 0.466037 -0.116131
N4    N     N_R   0.033927 0.382859 0.533068 -0.112636
N5    N     N_3   0.499950 0.500030 0.863290 -0.144386
N6    N     N_3   0.500050 0.499970 0.136710 -0.143241
O1    O     O_R   0.500000 0.313960 0.616610 -0.604467
O2    O     O_R   0.187403 0.386217 0.859196 -0.766723
O3    O     O_2   0.905654 0.481136 0.219783 -0.586215
O4    O     O_R   0.814351 0.600426 0.139837 -0.767544
O5    O     O_2   0.165250 0.564847 0.147935 -0.576481
O6    O     O_R   0.077611 0.441967 0.216972 -0.765100
O7    O     O_2   0.833779 0.416434 0.850035 -0.575354
O8    O     O_R   0.923235 0.535950 0.782992 -0.765362
O9    O     O_2   0.645243 0.992648 0.276251 -0.565116
O10   O     O_R   0.632626 0.786093 0.332557 -0.836897
O11   O     O_2   0.385977 0.065094 0.778546 -0.648857
O12   O     O_R   0.500000 0.686040 0.383390 -0.570393
O13   O     O_R   0.340108 0.176175 0.599751 -0.834938
O14   O     O_3   0.623229 0.099161 0.597271 -0.579504
O15   O     O_3   0.377883 0.901549 0.404213 -0.587148
O16   O     O_2   0.681229 0.458493 0.954692 -0.599013
O17   O     O_R   0.630320 0.307890 0.818293 -0.766213
O18   O     O_2   0.318396 0.540213 0.043728 -0.594206
O19   O     O_R   0.368443 0.682857 0.191166 -0.778946
O20   O     O_3   0.528973 0.270371 0.104092 -0.571276
O21   O     O_3   0.478461 0.731543 0.893337 -0.590333
O22   O     O_R   0.500030 0.313950 0.383350 -0.575820
O23   O     O_R   0.499970 0.686050 0.616650 -0.580122
O24   O     O_R   0.398120 0.499990 0.616660 -0.615132
O25   O     O_R   0.601880 0.500010 0.383340 -0.593397
O26   O     O_R   0.398150 0.499980 0.383410 -0.610444
O27   O     O_R   0.601850 0.500020 0.616590 -0.620430
O28   O     O_2   0.094262 0.500937 0.779564 -0.586407
Zn1   Zn    Zn3+2 0.499980 0.500010 0.655740 1.034187
Zn2   Zn    Zn3+2 0.500020 0.499990 0.344260 1.051085

loop_
_geom_bond_atom_site_label_1
_geom_bond_atom_site_label_2
_ccdc_geom_bond_type
O23   Zn1   S    
C39   H21   S    
C34   C42   S    
C34   O15   S    
C38   O20   S    
C37   O19   S    
C4    O21   S    
C33   H8    S    
C39   H20   S    
O27   Zn1   S    
N2    N4    A    
C12   O12   A    
C10   O25   A    
C19   C21   A    
C29   O5    D    
C3    C7    S    
C11   C14   A    
C9    C22   S    
C6    N6    S    
C32   O13   S    
C23   C40   S    
C5    C36   S    
C26   N1    A    
C23   C43   S    
C31   C40   S    
N6    Zn2   S    
C25   N2    A    
C12   C42   S    
H2    O4    S    
C1    C43   S    
C9    O24   A    
C26   N4    A    
C32   C41   S    
C44   H26   S    
O25   Zn2   S    
C14   C27   S    
C30   O8    S    
C18   C20   A    
C4    C8    S    
C7    N5    S    
C38   H17   S    
C2    C34   S    
C40   C42   S    
C35   H10   S    
C8    N6    S    
C41   C43   S    
H5    O10   S    
C34   C41   S    
C42   C44   S    
C1    O22   A    
C35   O15   S    
C33   H9    S    
O22   Zn2   S    
C31   O9    D    
C28   O4    S    
N5    Zn1   S    
C29   O6    S    
C4    C6    S    
C27   O2    S    
C33   O14   S    
C27   O28   D    
C10   C24   S    
C35   H11   S    
C23   C44   S    
C13   C24   A    
C21   H25   S    
C25   N3    A    
H14   O17   S    
C2    C40   S    
C39   O21   S    
C32   O11   D    
C2    C43   S    
C6    C37   S    
O1    Zn1   S    
O24   Zn1   S    
C18   C29   S    
H3    O6    S    
C30   O7    D    
C38   H16   S    
C20   C22   A    
C13   C15   A    
H15   O19   S    
C41   C44   S    
C14   C16   A    
C11   H1    S    
N1    N3    A    
C5    N5    S    
C2    H27   S    
O26   Zn2   S    
C15   C17   A    
C31   O10   S    
C28   O3    D    
C20   H24   S    
C3    C5    S    
C16   C26   S    
C5    C8    S    
C6    C7    S    
C33   H7    S    
C39   H19   S    
C11   C22   A    
C35   H13   S    
C17   C25   S    
C13   H12   S    
O12   Zn2   S    
C4    N5    S    
H28   O2    S    
C7    H22   S    
C19   C30   S    
C36   O17   S    
C15   C28   S    
C9    O26   A    
C1    O1    A    
C17   C19   A    
H4    O8    S    
C36   O16   D    
H6    O13   S    
C12   O23   A    
C37   O18   D    
C8    H23   S    
C16   C18   A    
C21   C24   A    
C23   O14   S    
C10   O27   A    
C3    N6    S    
C3    O20   S    
C38   H18   S    
