data_mof_unit_40884.cif
_audit_creation_date              2012-12-11T15:46:46-0500
_audit_creation_method            fapswitch 2.2
_symmetry_space_group_name_H-M    P1
_symmetry_Int_Tables_number       1
_space_group_crystal_system       triclinic
_cell_length_a                    11.551968
_cell_length_b                    11.487347
_cell_length_c                    19.553273
_cell_angle_alpha                 90.351406
_cell_angle_beta                  90.255657
_cell_angle_gamma                 59.953857
_cell_volume                      2246.02694982

loop_
_atom_site_label
_atom_site_type_symbol
_atom_type_description
_atom_site_fract_x
_atom_site_fract_y
_atom_site_fract_z
_atom_type_partial_charge
C1    C     C_R   0.640601 0.117418 0.599253 0.548025
C2    C     C_1   0.641613 0.703530 0.668003 0.005054
C3    C     C_1   0.126592 0.198748 0.859275 0.003938
C4    C     C_1   0.171654 0.170000 0.727729 -0.029757
C5    C     C_1   0.150108 0.182163 0.798953 -0.029783
C6    C     C_1   0.195480 0.160597 0.667421 0.003669
C7    C     C_1   0.678236 0.191510 0.860748 0.004348
C8    C     C_1   0.658724 0.167201 0.729002 -0.029767
C9    C     C_1   0.665492 0.181090 0.800293 -0.030027
C10   C     C_1   0.653335 0.149545 0.668625 0.005154
C11   C     C_R   0.652694 0.683444 0.189073 0.015414
C12   C     C_R   0.612678 0.745663 0.598604 0.542953
C13   C     C_R   0.537093 0.707598 0.224137 0.026416
C14   C     C_R   0.533373 0.715849 0.293528 0.024724
C15   C     C_R   0.746972 0.704675 0.295863 -0.153652
C16   C     C_R   0.752708 0.694637 0.224605 -0.158431
C17   C     C_3   0.459806 0.633724 0.225022 -0.261563
C18   C     C_3   0.457306 0.643779 0.301999 -0.277810
C19   C     C_R   0.640790 0.704625 0.330937 0.008004
C20   C     C_R   0.171949 0.184385 0.185196 0.011060
C21   C     C_R   0.204187 0.270638 0.220292 0.018969
C22   C     C_R   0.249500 0.244908 0.286739 0.013752
C23   C     C_R   0.240949 0.145248 0.598233 0.556909
C24   C     C_R   0.254593 0.032845 0.282944 -0.152747
C25   C     C_R   0.208865 0.058889 0.214825 -0.166826
C26   C     C_3   0.120518 0.418507 0.233082 -0.251035
C27   C     C_3   0.168505 0.390684 0.306255 -0.244260
C28   C     C_R   0.265976 0.130956 0.321116 0.011751
C29   C     C_R   0.679412 0.181459 0.194289 0.012815
C30   C     C_R   0.783954 0.075745 0.230493 0.021482
C31   C     C_R   0.774512 0.059090 0.299189 0.036259
C32   C     C_R   0.551173 0.251681 0.298591 -0.163128
C33   C     C_R   0.559585 0.266407 0.228201 -0.171131
C34   C     C_R   0.644425 0.113571 0.402861 0.539557
C35   C     C_3   0.927160 0.041136 0.236527 -0.255305
C36   C     C_3   0.916320 0.023249 0.312429 -0.064743
C37   C     C_R   0.661229 0.150222 0.334832 -0.009336
C38   C     C_R   0.081835 0.231053 0.928553 0.547641
C39   C     C_R   0.683720 0.604697 0.929537 0.545547
C40   C     C_R   0.708209 0.206615 0.930135 0.547710
C41   C     C_R   0.086657 0.234101 0.124500 0.538232
C42   C     C_R   0.681494 0.614240 0.124509 0.544273
C43   C     C_R   0.709507 0.210730 0.127072 0.545399
C44   C     C_R   0.615970 0.740849 0.401855 0.533054
C45   C     C_R   0.300986 0.115462 0.393896 0.556477
C46   C     C_1   0.669934 0.646866 0.860154 0.005045
C47   C     C_1   0.654946 0.683517 0.728465 -0.030266
C48   C     C_1   0.663194 0.666892 0.799708 -0.030593
Cr1   Cr    Cr6+3 0.404720 0.198220 0.499960 1.021775
Cr2   Cr    Cr6+3 0.698290 0.897110 0.500380 1.053725
Cr3   Cr    Cr6+3 0.396970 0.904720 0.499610 1.054054
Cr4   Cr    Cr6+3 0.926290 0.152010 0.028150 1.025682
Cr5   Cr    Cr6+3 0.921440 0.451830 0.027490 1.028237
Cr6   Cr    Cr6+3 0.626370 0.446880 0.028730 1.023147
H1    H     H_    0.826346 0.708816 0.323331 0.188069
H2    H     H_    0.157449 0.477018 0.204681 0.150872
H3    H     H_    0.230565 0.435944 0.320444 0.142000
H4    H     H_    0.086838 0.411653 0.342900 0.161082
H5    H     H_    0.459269 0.319385 0.324664 0.135980
H6    H     H_    0.475804 0.346938 0.201399 0.123899
H7    H     H_    0.940050 0.128647 0.225131 0.130609
H8    H     H_    0.995619 0.947475 0.208062 0.159457
H9    H     H_    0.924244 0.099469 0.344421 0.116245
H10   H     H_    0.840242 0.683278 0.198454 0.149410
H11   H     H_    0.518772 0.527878 0.207359 0.169155
H12   H     H_    0.359108 0.693147 0.201386 0.137782
H13   H     H_    0.355386 0.708953 0.323002 0.162492
H14   H     H_    0.516863 0.544879 0.327691 0.138480
H15   H     H_    0.271642 0.941157 0.306910 0.153742
H16   H     H_    0.191672 0.986344 0.187857 0.125102
H17   H     H_    0.011754 0.455489 0.228111 0.150923
O1    O     O_R   0.267750 0.231960 0.575440 -0.501576
O2    O     O_R   0.685950 0.784660 0.430010 -0.504470
O3    O     O_R   0.502510 0.767000 0.423980 -0.519611
O4    O     O_R   0.288320 0.026340 0.429250 -0.478119
O5    O     O_3   0.499990 0.000020 0.499980 -0.280097
O6    O     O_R   0.821590 0.119350 0.952850 -0.503813
O7    O     O_R   0.037230 0.162540 0.957390 -0.493713
O8    O     O_R   0.056530 0.344750 0.951370 -0.503744
O9    O     O_R   0.798000 0.560370 0.957490 -0.493302
O10   O     O_R   0.596230 0.579400 0.952760 -0.503936
O11   O     O_R   0.639160 0.321170 0.958690 -0.492143
O12   O     O_R   0.527290 0.186640 0.570530 -0.495872
O13   O     O_R   0.821370 0.124220 0.104400 -0.516867
O14   O     O_R   0.037020 0.167050 0.097880 -0.510983
O15   O     O_R   0.056310 0.349620 0.102920 -0.515513
O16   O     O_R   0.797790 0.564880 0.097980 -0.508421
O17   O     O_R   0.596000 0.584270 0.104310 -0.523746
O18   O     O_R   0.638950 0.325690 0.099180 -0.509957
O19   O     O_3   0.824700 0.350240 0.028120 -0.252626
O20   O     O_R   0.728110 0.003450 0.576380 -0.496646
O21   O     O_R   0.682980 0.789190 0.570500 -0.492856
O22   O     O_R   0.499300 0.771880 0.575540 -0.503373
O23   O     O_R   0.285350 0.030870 0.569740 -0.482829
O24   O     O_R   0.270960 0.227070 0.423890 -0.520642
O25   O     O_R   0.530270 0.182120 0.430040 -0.525573
O26   O     O_R   0.731320 0.998570 0.424830 -0.486432
C49   C     C_2   0.003894 0.881102 0.337071 0.583775
O27   O     O_2   0.005603 0.786621 0.306896 -0.562373
O28   O     O_R   0.084278 0.858140 0.394720 -0.695366
H18   H     H_    0.139535 0.759151 0.406437 0.325426

loop_
_geom_bond_atom_site_label_1
_geom_bond_atom_site_label_2
_ccdc_geom_bond_type
C21   C26   S    
C43   O13   A    
C34   C37   S    
C14   C18   S    
Cr4   O19   S    
C35   C36   S    
Cr3   O3    S    
C2    C12   S    
C20   C41   S    
C15   C19   A    
C41   O15   A    
C26   C27   S    
C43   O18   A    
C30   C35   S    
Cr4   O14   S    
Cr5   O8    S    
C34   O25   A    
Cr6   O19   S    
C30   C31   A    
C38   O8    A    
C18   H14   S    
C15   C16   A    
C29   C33   A    
C34   O26   A    
C11   C42   S    
Cr4   O13   S    
C3    C38   S    
C8    C9    S    
Cr1   O1    S    
C7    C40   S    
Cr5   O15   S    
C36   H9    S    
C1    O20   A    
C22   C28   A    
C21   C22   A    
C29   C43   S    
C26   H17   S    
Cr4   O7    S    
C14   C19   A    
C24   H15   S    
C46   C48   T    
C28   C45   S    
C40   O11   A    
Cr5   O9    S    
C24   C25   A    
C39   O10   A    
Cr6   O18   S    
C4    C6    T    
C27   H3    S    
Cr2   O2    S    
C38   O7    A    
C18   H13   S    
Cr1   O24   S    
C31   C37   A    
C15   H1    S    
C29   C30   A    
Cr2   O5    S    
C11   C16   A    
C47   C48   S    
C17   C18   S    
C17   H12   S    
Cr1   O5    S    
Cr5   O16   S    
C32   C37   A    
Cr3   O5    S    
C44   O3    A    
Cr3   O22   S    
C39   C46   S    
Cr2   O21   S    
C33   H6    S    
C49   O28   S    
C22   C27   S    
C12   O22   A    
C42   O17   A    
Cr4   O6    S    
C45   O24   A    
Cr6   O11   S    
C19   C44   S    
C7    C9    T    
Cr2   O26   S    
C31   C36   S    
C23   O1    A    
C12   O21   A    
C1    C10   S    
C24   C28   A    
Cr3   O4    S    
C4    C5    S    
C3    C5    T    
C27   H4    S    
C26   H2    S    
C42   O16   A    
C2    C47   T    
C1    O12   A    
C41   O14   A    
C17   H11   S    
C23   O23   A    
C13   C17   S    
C45   O4    A    
C32   C33   A    
Cr1   O12   S    
C39   O9    A    
Cr6   O17   S    
C11   C13   A    
C35   H7    S    
C6    C23   S    
O28   H18   S    
C35   H8    S    
Cr1   O25   S    
C44   O2    A    
Cr3   O23   S    
Cr2   O20   S    
C20   C21   A    
C8    C10   T    
C49   O27   D    
C20   C25   A    
Cr5   O19   S    
C40   O6    A    
C36   C49   S    
C25   H16   S    
C16   H10   S    
C32   H5    S    
C13   C14   A    
Cr6   O10   S    
