data_mof_unit_45671.cif
_audit_creation_date              2012-12-10T19:57:59-0500
_audit_creation_method            fapswitch 2.2
_symmetry_space_group_name_H-M    P1
_symmetry_Int_Tables_number       1
_space_group_crystal_system       triclinic
_cell_length_a                    21.223917
_cell_length_b                    21.107266
_cell_length_c                    14.14475
_cell_angle_alpha                 89.845044
_cell_angle_beta                  89.799016
_cell_angle_gamma                 89.485005
_cell_volume                      6336.23141757

loop_
_atom_site_label
_atom_site_type_symbol
_atom_type_description
_atom_site_fract_x
_atom_site_fract_y
_atom_site_fract_z
_atom_type_partial_charge
C1    C     C_R   0.086879 0.414154 0.500042 0.971560
C2    C     C_R   0.178600 0.727733 0.427783 0.447478
C3    C     C_3   0.049727 0.288564 0.610904 -0.321842
C4    C     C_3   0.293013 0.964952 0.623707 -0.219844
C5    C     C_3   0.542267 0.211063 0.379736 -0.304743
C6    C     C_3   0.707383 0.028343 0.617382 -0.222333
C7    C     C_3   0.462176 0.790330 0.378697 -0.309889
C8    C     C_3   0.633505 0.855851 0.267240 -0.162665
C9    C     C_3   0.475598 0.202482 0.645515 -0.208900
C10   C     C_3   0.370197 0.147650 0.267318 -0.165317
C11   C     C_3   0.522995 0.796738 0.642813 -0.215272
C12   C     C_R   0.224676 0.681332 0.571864 0.448582
C13   C     C_R   0.828534 0.267595 0.425340 0.434224
C14   C     C_R   0.245627 0.347520 0.442676 0.450916
C15   C     C_R   0.796857 0.709053 0.579561 0.422059
C16   C     C_R   0.755322 0.654066 0.441047 0.448101
C17   C     C_R   0.202626 0.290546 0.579225 0.417588
C18   C     C_R   0.273686 0.820287 0.574200 0.451492
C19   C     C_R   0.689563 0.218892 0.422848 0.451252
C20   C     C_R   0.731764 0.171810 0.568825 0.462865
C21   C     C_R   0.913105 0.585870 0.500045 0.990363
C22   C     C_R   0.316256 0.776548 0.426007 0.444993
C23   C     C_R   0.702148 0.788686 0.424767 0.423555
C24   C     C_R   0.342445 0.242286 0.578795 0.452732
C25   C     C_R   0.299351 0.213032 0.424480 0.420609
C26   C     C_R   0.657164 0.757583 0.577811 0.452385
C27   C     C_R   0.827635 0.354942 0.576272 0.316937
C28   C     C_R   0.133312 0.680762 0.427168 0.361785
C29   C     C_R   0.179731 0.634010 0.570563 0.348069
C30   C     C_R   0.871770 0.316600 0.425979 0.356201
C31   C     C_R   0.188471 0.380008 0.432431 0.307422
C32   C     C_R   0.914584 0.412995 0.500197 1.004105
C33   C     C_R   0.851502 0.672254 0.575227 0.368230
C34   C     C_R   0.812413 0.621397 0.431212 0.327379
C35   C     C_R   0.147886 0.327197 0.574732 0.363913
C36   C     C_R   0.320439 0.865870 0.573836 0.341626
C37   C     C_R   0.640073 0.176396 0.424838 0.369055
C38   C     C_R   0.682778 0.128704 0.569943 0.348978
C39   C     C_R   0.363662 0.821294 0.426771 0.371576
C40   C     C_R   0.661449 0.840763 0.421011 0.308981
C41   C     C_R   0.379912 0.187840 0.577740 0.343189
C42   C     C_R   0.339946 0.160827 0.420613 0.310009
C43   C     C_R   0.085983 0.586166 0.499718 0.974549
C44   C     C_R   0.619563 0.811897 0.576966 0.344551
C45   C     C_R   0.870585 0.360952 0.500678 -0.438646
C46   C     C_R   0.133633 0.634328 0.499050 -0.456651
C47   C     C_R   0.140757 0.371748 0.500815 -0.443704
C48   C     C_R   0.859290 0.628447 0.500737 -0.435525
C49   C     C_R   0.365649 0.866096 0.500456 -0.459516
C50   C     C_R   0.636537 0.131516 0.498680 -0.455199
C51   C     C_R   0.623449 0.854770 0.500105 -0.451478
C52   C     C_R   0.376865 0.145713 0.500193 -0.449735
C53   C     C_R   0.013981 0.444502 0.105719 -0.279360
C54   C     C_R   0.584633 0.911822 0.500044 0.974772
C55   C     C_R   0.011271 0.555887 0.894157 -0.257306
C56   C     C_R   0.986660 0.555523 0.105300 -0.279651
C57   C     C_R   0.989916 0.443972 0.894752 -0.280224
C58   C     C_R   0.492614 0.943487 0.105558 -0.275244
C59   C     C_R   0.536095 0.043635 0.894670 -0.263770
C60   C     C_R   0.507483 0.056505 0.105036 -0.276384
C61   C     C_R   0.463901 0.956343 0.895382 -0.262082
C62   C     C_R   0.783025 0.264579 0.497695 -0.182330
C63   C     C_R   0.223871 0.727984 0.500414 -0.209629
C64   C     C_R   0.250671 0.300239 0.512003 -0.169221
C65   C     C_R   0.415467 0.088351 0.500068 0.974849
C66   C     C_R   0.749588 0.700362 0.511386 -0.171095
C67   C     C_R   0.271737 0.775969 0.499993 -0.211258
C68   C     C_R   0.734790 0.216879 0.495258 -0.184048
C69   C     C_R   0.699751 0.747305 0.502900 -0.156796
C70   C     C_R   0.300776 0.253500 0.503368 -0.154323
C71   C     C_R   0.012719 0.445418 0.204901 0.058051
C72   C     C_R   0.010217 0.554947 0.794947 0.092494
C73   C     C_R   0.987651 0.554635 0.204502 0.058569
C74   C     C_R   0.990936 0.444920 0.795556 0.049053
C75   C     C_R   0.492488 0.944618 0.204846 0.036342
C76   C     C_R   0.414090 0.913647 0.500151 0.973293
C77   C     C_R   0.535275 0.042952 0.795375 0.060327
C78   C     C_R   0.507648 0.055366 0.204339 0.036302
C79   C     C_R   0.464732 0.957033 0.796056 0.058521
C80   C     C_R   0.000353 0.499993 0.053447 0.147531
C81   C     C_R   0.000441 0.499963 0.946516 0.133825
C82   C     C_R   0.500012 0.999999 0.053497 0.139750
C83   C     C_R   0.499995 0.999994 0.946828 0.129037
C84   C     C_3   0.693344 0.359202 0.633160 -0.266555
C85   C     C_3   0.159158 0.829874 0.378673 -0.246288
C86   C     C_3   0.326400 0.662585 0.620186 -0.258302
C87   C     C_R   0.586203 0.086038 0.499705 0.972095
C88   C     C_3   0.849045 0.167024 0.371329 -0.257859
C89   C     C_3   0.324170 0.414101 0.396964 -0.317305
C90   C     C_3   0.810322 0.810770 0.630190 -0.247976
C91   C     C_3   0.676468 0.589404 0.391987 -0.304268
C92   C     C_3   0.188781 0.188272 0.627890 -0.246894
C93   C     C_3   0.173098 0.839045 0.628419 -0.259110
C94   C     C_3   0.673251 0.321007 0.371799 -0.224136
C95   C     C_3   0.832393 0.149769 0.619415 -0.308316
C96   C     C_3   0.334600 0.676078 0.369837 -0.231213
C97   C     C_3   0.798779 0.813662 0.364997 -0.316708
C98   C     C_R   0.780724 0.309103 0.570997 0.427928
C99   C     C_3   0.363694 0.340562 0.639864 -0.279906
C100  C     C_3   0.203525 0.188998 0.362187 -0.314093
C101  C     C_3   0.634677 0.658921 0.637180 -0.274319
C102  C     C_3   0.849579 0.365997 0.732780 -0.206529
C103  C     C_3   0.034767 0.708105 0.376653 -0.270995
C104  C     C_3   0.210010 0.533597 0.610980 -0.218395
C105  C     C_3   0.970314 0.293446 0.371191 -0.275551
C106  C     C_3   0.167631 0.389915 0.275686 -0.167863
C107  C     C_3   0.949170 0.710886 0.612777 -0.315580
C108  C     C_3   0.835085 0.613767 0.274574 -0.178605
H1    H     H_    0.026409 0.400552 0.071026 0.138005
H2    H     H_    0.018161 0.598222 0.755694 0.144749
H3    H     H_    0.454867 0.750337 0.428974 0.112249
H4    H     H_    0.628478 0.892812 0.211816 0.173915
H5    H     H_    0.661157 0.816089 0.236196 0.196188
H6    H     H_    0.585301 0.839653 0.286115 0.114497
H7    H     H_    0.500819 0.184086 0.582269 0.112625
H8    H     H_    0.504745 0.190532 0.708117 0.183986
H9    H     H_    0.471511 0.254956 0.641696 0.141643
H10   H     H_    0.375456 0.111582 0.210890 0.174188
H11   H     H_    0.343493 0.188299 0.236929 0.195933
H12   H     H_    0.418344 0.162874 0.287674 0.114850
H13   H     H_    0.978121 0.597720 0.243309 0.126568
H14   H     H_    0.498718 0.815730 0.579260 0.111474
H15   H     H_    0.493012 0.808285 0.704909 0.186146
H16   H     H_    0.526956 0.744294 0.638525 0.140291
H17   H     H_    0.984273 0.401496 0.756735 0.132755
H18   H     H_    0.486751 0.900988 0.243944 0.159576
H19   H     H_    0.563230 0.076935 0.756861 0.167719
H20   H     H_    0.513563 0.098972 0.243061 0.157193
H21   H     H_    0.436818 0.923050 0.758032 0.169761
H22   H     H_    0.687984 0.378329 0.560152 0.114072
H23   H     H_    0.710430 0.396957 0.680833 0.211771
H24   H     H_    0.645746 0.345552 0.658119 0.165629
H25   H     H_    0.021411 0.600191 0.928834 0.145837
H26   H     H_    0.139530 0.853842 0.315278 0.190806
H27   H     H_    0.198726 0.859181 0.404134 0.147642
H28   H     H_    0.120973 0.828686 0.432780 0.089006
H29   H     H_    0.355144 0.702864 0.594759 0.136523
H30   H     H_    0.325730 0.624593 0.565791 0.094056
H31   H     H_    0.350412 0.642665 0.683267 0.189084
H32   H     H_    0.868082 0.144279 0.306538 0.191756
H33   H     H_    0.809697 0.137234 0.396931 0.147990
H34   H     H_    0.887784 0.167281 0.424206 0.093167
H35   H     H_    0.338583 0.418159 0.472137 0.116404
H36   H     H_    0.974455 0.599490 0.070251 0.137850
H37   H     H_    0.293832 0.455087 0.376958 0.205294
H38   H     H_    0.367589 0.416588 0.353303 0.183359
H39   H     H_    0.778448 0.834559 0.578912 0.121432
H40   H     H_    0.859181 0.809323 0.601846 0.128813
H41   H     H_    0.810858 0.840383 0.694823 0.193213
H42   H     H_    0.658918 0.585966 0.465876 0.121788
H43   H     H_    0.707062 0.547944 0.375215 0.207283
H44   H     H_    0.634899 0.587258 0.344843 0.180931
H45   H     H_    0.220950 0.165265 0.576088 0.121371
H46   H     H_    0.140050 0.189987 0.599586 0.129771
H47   H     H_    0.980208 0.399555 0.929845 0.139793
H48   H     H_    0.188030 0.157790 0.691860 0.192348
H49   H     H_    0.143518 0.799600 0.602888 0.141584
H50   H     H_    0.173255 0.878255 0.575607 0.095704
H51   H     H_    0.150428 0.857787 0.693465 0.189407
H52   H     H_    0.651909 0.343649 0.308573 0.185291
H53   H     H_    0.713659 0.350592 0.393339 0.152344
H54   H     H_    0.636732 0.321344 0.428577 0.098943
H55   H     H_    0.862639 0.189040 0.594448 0.140105
H56   H     H_    0.830899 0.111564 0.565343 0.109009
H57   H     H_    0.855169 0.129301 0.683137 0.192177
H58   H     H_    0.487843 0.898416 0.070166 0.147112
H59   H     H_    0.350818 0.653446 0.303290 0.191718
H60   H     H_    0.296463 0.646208 0.399168 0.139910
H61   H     H_    0.375478 0.676229 0.418858 0.094717
H62   H     H_    0.826810 0.794426 0.424817 0.120971
H63   H     H_    0.788033 0.864801 0.376357 0.185362
H64   H     H_    0.828563 0.809986 0.300629 0.186873
H65   H     H_    0.323275 0.372734 0.625182 0.160773
H66   H     H_    0.398577 0.342281 0.580724 0.109616
H67   H     H_    0.387595 0.358864 0.703685 0.184912
H68   H     H_    0.174849 0.207271 0.422140 0.121126
H69   H     H_    0.565628 0.077656 0.930006 0.150620
H70   H     H_    0.214049 0.137661 0.372177 0.186253
H71   H     H_    0.174477 0.193833 0.297500 0.186323
H72   H     H_    0.674844 0.626702 0.621113 0.167737
H73   H     H_    0.599661 0.658307 0.578539 0.105222
H74   H     H_    0.610777 0.639866 0.700909 0.184916
H75   H     H_    0.859594 0.401997 0.787530 0.174625
H76   H     H_    0.812867 0.334274 0.762033 0.207207
H77   H     H_    0.893858 0.338581 0.719717 0.121245
H78   H     H_    0.008122 0.679252 0.428432 0.125363
H79   H     H_    0.005246 0.712623 0.312400 0.174611
H80   H     H_    0.512302 0.101572 0.069240 0.145918
H81   H     H_    0.041811 0.756573 0.404880 0.127780
H82   H     H_    0.191694 0.516580 0.542006 0.134932
H83   H     H_    0.201696 0.495472 0.663577 0.194537
H84   H     H_    0.261632 0.540593 0.606010 0.132572
H85   H     H_    0.964574 0.243940 0.396509 0.130280
H86   H     H_    0.996557 0.321316 0.424127 0.127378
H87   H     H_    0.999447 0.291592 0.306005 0.173427
H88   H     H_    0.154312 0.424644 0.220099 0.171165
H89   H     H_    0.209757 0.363454 0.249882 0.205740
H90   H     H_    0.127390 0.356920 0.285087 0.118437
H91   H     H_    0.434381 0.922308 0.931300 0.152237
H92   H     H_    0.940842 0.739613 0.547576 0.093176
H93   H     H_    0.988156 0.676687 0.599676 0.169418
H94   H     H_    0.965144 0.743824 0.668573 0.188781
H95   H     H_    0.848715 0.579811 0.218244 0.171100
H96   H     H_    0.793457 0.640941 0.248831 0.207193
H97   H     H_    0.875447 0.646312 0.285450 0.117808
H98   H     H_    0.011328 0.323194 0.596636 0.163223
H99   H     H_    0.032511 0.255863 0.666604 0.183466
H100  H     H_    0.058755 0.259688 0.546215 0.098327
H101  H     H_    0.310465 0.984673 0.555500 0.129391
H102  H     H_    0.022478 0.402431 0.244013 0.126969
H103  H     H_    0.302581 0.000639 0.679144 0.192927
H104  H     H_    0.241252 0.958579 0.620617 0.139632
H105  H     H_    0.508573 0.178341 0.413949 0.147570
H106  H     H_    0.519015 0.230622 0.315777 0.182647
H107  H     H_    0.551678 0.251589 0.427757 0.120703
H108  H     H_    0.688690 0.009946 0.549429 0.130187
H109  H     H_    0.697296 0.992347 0.672553 0.194198
H110  H     H_    0.759297 0.033257 0.612701 0.140701
H111  H     H_    0.495684 0.824287 0.409780 0.152991
H112  H     H_    0.484582 0.770424 0.314219 0.184804
N1    N     N_R   1.000000 0.500000 0.252470 -0.089023
N2    N     N_R   0.000000 0.500000 0.747530 -0.099425
N3    N     N_R   0.500000 1.000000 0.252470 -0.096027
N4    N     N_R   0.500000 1.000000 0.747530 -0.097512
O1    O     O_R   0.065470 0.434530 0.579480 -0.596147
O2    O     O_R   0.434530 0.065470 0.420520 -0.596946
O3    O     O_R   0.434530 0.065470 0.579480 -0.579727
O4    O     O_R   0.565470 0.934530 0.420520 -0.599961
O5    O     O_R   0.434530 0.934530 0.420520 -0.589716
O6    O     O_R   0.565470 0.065470 0.579480 -0.610031
O7    O     O_R   0.565470 0.065470 0.420520 -0.590978
O8    O     O_R   0.434530 0.934530 0.579480 -0.609989
O9    O     O_3   0.733260 0.305389 0.638575 -0.563073
O10   O     O_3   0.181315 0.769263 0.351713 -0.503702
O11   O     O_3   0.265819 0.683949 0.647721 -0.506373
O12   O     O_R   0.934530 0.565470 0.420520 -0.608049
O13   O     O_3   0.826757 0.228143 0.347158 -0.506130
O14   O     O_3   0.294276 0.356041 0.378374 -0.559736
O15   O     O_3   0.788001 0.750139 0.654815 -0.508237
O16   O     O_3   0.707739 0.647035 0.375111 -0.563392
O17   O     O_3   0.210803 0.248626 0.653853 -0.509333
O18   O     O_3   0.233908 0.816522 0.652007 -0.507628
O19   O     O_3   0.694781 0.259828 0.346464 -0.512579
O20   O     O_3   0.772291 0.173147 0.645551 -0.518651
O21   O     O_3   0.311207 0.737195 0.348057 -0.504138
O22   O     O_3   0.743934 0.777687 0.350926 -0.562940
O23   O     O_R   0.934530 0.565470 0.579480 -0.587178
O24   O     O_3   0.341755 0.279010 0.659985 -0.511439
O25   O     O_3   0.258611 0.225054 0.350016 -0.562958
O26   O     O_3   0.657045 0.720023 0.658423 -0.511228
O27   O     O_3   0.828233 0.397536 0.650591 -0.576990
O28   O     O_3   0.092065 0.678076 0.351559 -0.522475
O29   O     O_3   0.179313 0.589351 0.642572 -0.533596
O30   O     O_3   0.912192 0.322902 0.349486 -0.523379
O31   O     O_3   0.180874 0.423286 0.359543 -0.585076
O32   O     O_3   0.895588 0.678378 0.646674 -0.529099
O33   O     O_3   0.820702 0.579201 0.357338 -0.576935
O34   O     O_R   0.065470 0.434530 0.420520 -0.607149
O35   O     O_3   0.103209 0.320388 0.645748 -0.529331
O36   O     O_3   0.323739 0.907774 0.648833 -0.551653
O37   O     O_3   0.597138 0.177733 0.351279 -0.537602
O38   O     O_3   0.678545 0.086094 0.644303 -0.550620
O39   O     O_3   0.406068 0.822146 0.352126 -0.535142
O40   O     O_3   0.664799 0.882459 0.345367 -0.572572
O41   O     O_3   0.416173 0.173946 0.656435 -0.529772
O42   O     O_3   0.337545 0.120158 0.344022 -0.570545
O43   O     O_3   0.582364 0.824955 0.655277 -0.528616
O44   O     O_R   0.934530 0.434530 0.420520 -0.573663
O45   O     O_R   0.065470 0.565470 0.579480 -0.608460
O46   O     O_R   0.065470 0.565470 0.420520 -0.573624
O47   O     O_R   0.934530 0.434530 0.579480 -0.607435
O48   O     O_R   0.565470 0.934530 0.579480 -0.578813
Zn1   Zn    Zn3+2 0.000000 0.500000 0.606140 0.992619
Zn2   Zn    Zn3+2 1.000000 0.500000 0.393860 1.002292
Zn3   Zn    Zn3+2 0.500000 1.000000 0.606140 0.993014
Zn4   Zn    Zn3+2 0.500000 1.000000 0.393860 0.984865

loop_
_geom_bond_atom_site_label_1
_geom_bond_atom_site_label_2
_ccdc_geom_bond_type
C12   O11   S    
C52   C65   S    
C27   C98   A    
C71   N1    A    
O6    Zn3   S    
O34   Zn2   S    
C9    H9    S    
C32   C45   S    
C23   C69   A    
C30   C45   A    
C41   O41   S    
C101  O26   S    
C23   O22   S    
C14   C31   A    
C78   H20   S    
C66   C69   S    
C59   C77   A    
C74   H17   S    
C32   O44   A    
C26   C44   A    
C79   N4    A    
O5    Zn4   S    
C105  H85   S    
C57   H47   S    
C28   C46   A    
C43   C46   S    
C97   H64   S    
C90   O15   S    
C3    H100  S    
C31   O31   S    
C59   C83   A    
C107  H93   S    
C108  H95   S    
C4    H103  S    
C93   O18   S    
C8    H4    S    
C17   C64   A    
C91   H44   S    
C12   C29   A    
C3    O35   S    
C21   O12   A    
C22   C39   A    
C53   H1    S    
C23   C40   A    
C104  H84   S    
C15   O15   S    
C65   O3    A    
O47   Zn1   S    
C93   H51   S    
O3    Zn3   S    
C88   H32   S    
C43   O46   A    
C90   H40   S    
C10   H11   S    
C26   O26   S    
C86   H29   S    
C16   C34   A    
C62   C98   A    
C60   C82   A    
C2    O10   S    
C86   H31   S    
C13   C62   A    
C11   H16   S    
C91   O16   S    
C76   O8    A    
C54   O48   A    
C96   H60   S    
C7    O39   S    
C92   H45   S    
C103  H81   S    
C64   C70   S    
C55   C81   A    
C51   C54   S    
C19   C37   A    
C94   H54   S    
C41   C52   A    
C88   O13   S    
C55   C72   A    
C77   H19   S    
C8    H6    S    
C85   H26   S    
C106  H90   S    
C21   C48   S    
C7    H111  S    
C27   C45   A    
O23   Zn1   S    
C92   H46   S    
C75   N3    A    
C4    O36   S    
C31   C47   A    
C72   N2    A    
C33   C48   A    
C5    O37   S    
C24   C41   A    
C9    H8    S    
O8    Zn3   S    
C61   H91   S    
C108  O33   S    
C89   H38   S    
C103  H78   S    
O2    Zn4   S    
C105  O30   S    
C90   H41   S    
C58   H58   S    
C40   O40   S    
C95   H57   S    
C6    H108  S    
C88   H34   S    
C88   H33   S    
C58   C75   A    
C44   O43   S    
C72   H2    S    
C105  H86   S    
C63   C67   S    
C49   C76   S    
C102  H77   S    
C43   O45   A    
N3    Zn4   S    
C24   C70   A    
C85   O10   S    
C9    H7    S    
C35   O35   S    
C13   C30   A    
C59   H69   S    
C53   C80   A    
C103  H79   S    
C21   O23   A    
C107  H94   S    
C92   H48   S    
C100  O25   S    
C61   C83   A    
C97   O22   S    
C14   O14   S    
C12   C63   A    
C86   H30   S    
C1    C47   S    
C13   O13   S    
C18   C67   A    
C89   H35   S    
C15   C66   A    
C9    O41   S    
C84   H24   S    
C104  O29   S    
C102  O27   S    
C34   O33   S    
C57   C74   A    
C89   H37   S    
C94   O19   S    
C28   O28   S    
C100  H68   S    
C90   H39   S    
C10   H10   S    
C95   H55   S    
C91   H42   S    
C6    H109  S    
C20   C38   A    
C92   O17   S    
C77   N4    A    
C99   H65   S    
C87   O6    A    
C105  H87   S    
C56   C80   A    
C71   H102  S    
C60   C78   A    
C25   O25   S    
C30   O30   S    
C96   H59   S    
C99   H67   S    
N1    Zn2   S    
C6    O38   S    
C93   H49   S    
C4    H101  S    
C94   H53   S    
C54   O4    A    
C16   C66   A    
C8    H5    S    
C85   H27   S    
C106  H89   S    
C7    H112  S    
C50   C87   S    
C44   C51   A    
C39   C49   A    
C37   O37   S    
C100  H70   S    
C29   O29   S    
C96   H61   S    
C57   C81   A    
C24   O24   S    
C11   H14   S    
C42   O42   S    
C103  O28   S    
C53   C71   A    
C96   O21   S    
C27   O27   S    
C2    C63   A    
C1    O34   A    
C98   O9    S    
C1    O1    A    
O7    Zn4   S    
C20   O20   S    
N4    Zn3   S    
C74   N2    A    
C104  H82   S    
C19   C68   A    
C94   H52   S    
C56   C73   A    
C10   O42   S    
O46   Zn2   S    
C3    H98   S    
O1    Zn1   S    
C106  O31   S    
C20   C68   A    
C33   O32   S    
C11   H15   S    
C80   C81   S    
C97   H63   S    
C25   C42   A    
C22   O21   S    
C106  H88   S    
C107  O32   S    
C38   C50   A    
C78   N3    A    
C19   O19   S    
C40   C51   A    
C95   O20   S    
C84   H23   S    
C73   H13   S    
C86   O11   S    
C4    H104  S    
C73   N1    A    
C29   C46   A    
C75   H18   S    
C102  H76   S    
C6    H110  S    
N2    Zn1   S    
C58   C82   A    
C84   O9    S    
C99   O24   S    
C3    H99   S    
O45   Zn1   S    
C108  H96   S    
C101  H72   S    
C39   O39   S    
C89   O14   S    
C36   C49   A    
C91   H43   S    
C37   C50   A    
C104  H83   S    
C18   O18   S    
C107  H92   S    
C99   H66   S    
C61   C79   A    
O48   Zn3   S    
C87   O7    A    
C5    H106  S    
C84   H22   S    
C7    H3    S    
C65   O2    A    
C101  H73   S    
O12   Zn2   S    
C62   C68   S    
C36   O36   S    
C93   H50   S    
O4    Zn4   S    
C14   C64   A    
C55   H25   S    
C22   C67   A    
C5    H105  S    
C10   H12   S    
C8    O40   S    
C97   H62   S    
C85   H28   S    
C17   O17   S    
C56   H36   S    
C34   C48   A    
C16   O16   S    
C60   H80   S    
C82   C83   S    
C38   O38   S    
O44   Zn2   S    
C76   O5    A    
C26   C69   A    
C11   O43   S    
C32   O47   A    
C2    C28   A    
C25   C70   A    
C17   C35   A    
C35   C47   A    
C95   H56   S    
C100  H71   S    
C18   C36   A    
C79   H21   S    
C15   C33   A    
C102  H75   S    
C101  H74   S    
C108  H97   S    
C42   C52   A    
C5    H107  S    
