data_mof_unit_40772.cif
_audit_creation_date              2012-12-10T17:09:20-0500
_audit_creation_method            fapswitch 2.2
_symmetry_space_group_name_H-M    P1
_symmetry_Int_Tables_number       1
_space_group_crystal_system       triclinic
_cell_length_a                    17.498515
_cell_length_b                    19.203494
_cell_length_c                    11.853416
_cell_angle_alpha                 90.012609
_cell_angle_beta                  76.636358
_cell_angle_gamma                 89.999112
_cell_volume                      3875.28206242

loop_
_atom_site_label
_atom_site_type_symbol
_atom_type_description
_atom_site_fract_x
_atom_site_fract_y
_atom_site_fract_z
_atom_type_partial_charge
C1    C     C_R   0.402450 0.102214 0.520918 0.884980
C2    C     C_R   0.597549 0.897781 0.479078 0.878851
C3    C     C_R   0.597532 0.102224 0.479107 0.884398
C4    C     C_R   0.402462 0.897780 0.520894 0.880821
C5    C     C_R   0.902450 0.602214 0.520918 0.884980
C6    C     C_R   0.097549 0.397781 0.479078 0.878850
C7    C     C_R   0.097532 0.602224 0.479107 0.884399
C8    C     C_R   0.902462 0.397780 0.520894 0.880821
C9    C     C_R   0.537901 0.000024 0.964026 -0.177120
C10   C     C_R   0.462097 0.000006 0.035973 -0.176040
C11   C     C_R   0.037901 0.500024 0.964026 -0.177120
C12   C     C_R   0.962097 0.500005 0.035973 -0.176040
C13   C     C_R   0.407782 0.000003 0.861834 0.812022
C14   C     C_R   0.592217 0.000050 0.138164 0.813711
C15   C     C_R   0.907783 0.500003 0.861834 0.812022
C16   C     C_R   0.092217 0.500050 0.138164 0.813711
C17   C     C_R   0.397478 0.000001 0.981477 -0.184887
C18   C     C_R   0.602521 0.000053 0.018521 -0.182314
C19   C     C_R   0.897478 0.500001 0.981477 -0.184888
C20   C     C_R   0.102521 0.500053 0.018521 -0.182313
C21   C     C_R   0.547131 0.000017 0.840124 0.527144
C22   C     C_R   0.452868 0.999994 0.159875 0.530157
C23   C     C_R   0.047131 0.500017 0.840124 0.527144
C24   C     C_R   0.952868 0.499994 0.159875 0.530157
C25   C     C_R   0.649335 0.163049 0.467710 -0.156872
C26   C     C_R   0.350640 0.836968 0.532303 -0.158757
C27   C     C_R   0.350605 0.163016 0.532376 -0.158454
C28   C     C_R   0.649397 0.836973 0.467609 -0.141502
C29   C     C_R   0.149335 0.663049 0.467710 -0.156873
C30   C     C_R   0.850640 0.336968 0.532303 -0.158757
C31   C     C_R   0.850605 0.663016 0.532376 -0.158453
C32   C     C_R   0.149397 0.336973 0.467609 -0.141503
C33   C     C_R   0.290997 0.731814 0.627676 -0.173192
C34   C     C_R   0.708959 0.268215 0.372354 -0.170371
C35   C     C_R   0.708793 0.731611 0.372586 -0.199204
C36   C     C_R   0.291107 0.268302 0.627564 -0.179964
C37   C     C_R   0.790997 0.231814 0.627676 -0.173192
C38   C     C_R   0.208959 0.768215 0.372355 -0.170369
C39   C     C_R   0.208793 0.231611 0.372586 -0.199203
C40   C     C_R   0.791107 0.768302 0.627564 -0.179964
C41   C     C_R   0.344492 0.786409 0.621794 0.417141
C42   C     C_R   0.655474 0.213611 0.378226 0.419093
C43   C     C_R   0.655450 0.786319 0.378218 0.382029
C44   C     C_R   0.344535 0.213652 0.621770 0.420164
C45   C     C_R   0.844492 0.286409 0.621794 0.417141
C46   C     C_R   0.155474 0.713611 0.378227 0.419093
C47   C     C_R   0.155449 0.286320 0.378218 0.382029
C48   C     C_R   0.844536 0.713653 0.621770 0.420164
C49   C     C_R   0.306131 0.829204 0.449178 -0.194847
C50   C     C_R   0.693833 0.170821 0.550845 -0.199844
C51   C     C_R   0.693957 0.829275 0.550683 -0.198338
C52   C     C_R   0.306003 0.170693 0.449367 -0.204725
C53   C     C_R   0.806131 0.329204 0.449178 -0.194847
C54   C     C_R   0.193833 0.670821 0.550845 -0.199844
C55   C     C_R   0.193957 0.329275 0.550683 -0.198337
C56   C     C_R   0.806003 0.670693 0.449367 -0.204726
C57   C     C_R   0.253970 0.774339 0.454928 0.067203
C58   C     C_R   0.745986 0.225692 0.545104 0.066183
C59   C     C_R   0.746050 0.774366 0.545040 0.064991
C60   C     C_R   0.253888 0.225590 0.455054 0.087303
C61   C     C_R   0.753970 0.274338 0.454928 0.067203
C62   C     C_R   0.245986 0.725692 0.545103 0.066183
C63   C     C_R   0.246050 0.274366 0.545040 0.064992
C64   C     C_R   0.753888 0.725590 0.455054 0.087302
Cu1   Cu    Cu3+1 0.507800 0.000000 0.383250 1.171136
Cu2   Cu    Cu3+1 0.492200 0.000000 0.616750 1.169890
Cu3   Cu    Cu3+1 0.007800 0.500000 0.383250 1.171136
Cu4   Cu    Cu3+1 0.992200 0.500000 0.616750 1.169890
H1    H     H_    0.688558 0.133602 0.620145 0.238378
H2    H     H_    0.311411 0.866421 0.379873 0.238419
H3    H     H_    0.311191 0.133393 0.380176 0.238844
H4    H     H_    0.688761 0.866572 0.619880 0.237461
H5    H     H_    0.188559 0.633602 0.620144 0.238378
H6    H     H_    0.811411 0.366420 0.379873 0.238419
H7    H     H_    0.811191 0.633393 0.380176 0.238844
H8    H     H_    0.188761 0.366572 0.619880 0.237461
H9    H     H_    0.784909 0.193300 0.695948 0.223857
H10   H     H_    0.215043 0.806730 0.304085 0.224062
H11   H     H_    0.214715 0.192894 0.304663 0.197928
H12   H     H_    0.785098 0.806892 0.695734 0.223923
H13   H     H_    0.284909 0.693300 0.695948 0.223858
H14   H     H_    0.715043 0.306730 0.304085 0.224062
H15   H     H_    0.714715 0.692894 0.304663 0.197928
H16   H     H_    0.285098 0.306892 0.695734 0.223923
H17   H     H_    0.337026 0.999996 0.027549 0.259094
H18   H     H_    0.662972 0.000076 0.972449 0.259787
H19   H     H_    0.837026 0.499996 0.027549 0.259094
H20   H     H_    0.162972 0.500076 0.972449 0.259787
N1    N     N_R   0.519530 0.000000 0.207810 -0.295180
N2    N     N_R   0.480470 0.000000 0.792190 -0.294924
N3    N     N_R   0.019530 0.500000 0.207810 -0.295180
N4    N     N_R   0.980470 0.500000 0.792190 -0.294923
O1    O     O_R   0.430030 0.075530 0.417420 -0.524937
O2    O     O_R   0.569970 0.924470 0.582580 -0.524435
O3    O     O_R   0.569970 0.075530 0.582580 -0.524790
O4    O     O_R   0.430030 0.924470 0.417420 -0.524596
O5    O     O_R   0.930030 0.575530 0.417420 -0.524937
O6    O     O_R   0.069970 0.424470 0.582580 -0.524435
O7    O     O_R   0.069970 0.575530 0.582580 -0.524790
O8    O     O_R   0.930030 0.424470 0.417420 -0.524596
O9    O     O_R   0.416860 0.075510 0.614610 -0.514180
O10   O     O_R   0.583140 0.924490 0.385390 -0.515136
O11   O     O_R   0.583140 0.075510 0.385390 -0.514407
O12   O     O_R   0.416860 0.924490 0.614610 -0.514348
O13   O     O_R   0.916860 0.575510 0.614610 -0.514180
O14   O     O_R   0.083140 0.424490 0.385390 -0.515135
O15   O     O_R   0.083140 0.575510 0.385390 -0.514407
O16   O     O_R   0.916860 0.424490 0.614610 -0.514348
F1    F     F_    0.655940 0.000071 0.185020 -0.595764
F2    F     F_    0.344061 0.000005 0.814975 -0.596893
F3    F     F_    0.155940 0.500071 0.185020 -0.595764
F4    F     F_    0.844061 0.500005 0.814975 -0.596894
S1    S     S_3+6 0.351261 0.999985 0.242084 0.006673
O17   O     O_2   0.313281 0.063373 0.204215 -0.328208
O18   O     O_2   0.313306 0.936594 0.204149 -0.312944
O19   O     O_3   0.325038 0.999977 0.387183 -0.553973
H21   H     H_    0.266839 0.999928 0.406909 0.366002
S2    S     S_3+6 0.648737 0.000029 0.757913 0.007765
O20   O     O_2   0.686686 0.063431 0.795824 -0.316330
O21   O     O_2   0.686723 0.936652 0.795805 -0.316981
O22   O     O_3   0.674961 0.000018 0.612813 -0.554244
H22   H     H_    0.733161 0.000073 0.593088 0.366511
S3    S     S_3+6 0.851261 0.499985 0.242084 0.006672
O23   O     O_2   0.813281 0.563373 0.204215 -0.328208
O24   O     O_2   0.813306 0.436594 0.204149 -0.312945
O25   O     O_3   0.825038 0.499977 0.387183 -0.553973
H23   H     H_    0.766839 0.499928 0.406909 0.366002
S4    S     S_3+6 0.148737 0.500029 0.757913 0.007765
O26   O     O_2   0.186686 0.563431 0.795824 -0.316329
O27   O     O_2   0.186723 0.436652 0.795805 -0.316981
O28   O     O_3   0.174961 0.500018 0.612813 -0.554244
H24   H     H_    0.233161 0.500073 0.593088 0.366510
S5    S     S_3+6 0.595329 0.214419 0.276591 0.045189
O29   O     O_2   0.621870 0.158210 0.188029 -0.247383
O30   O     O_2   0.511197 0.202255 0.337793 -0.303611
O31   O     O_3   0.602023 0.291740 0.208289 -0.496535
H25   H     H_    0.567835 0.287292 0.152712 0.393787
S6    S     S_3+6 0.404644 0.785593 0.723420 0.048873
O32   O     O_2   0.488777 0.797739 0.662206 -0.301056
O33   O     O_2   0.378121 0.841809 0.811976 -0.245781
O34   O     O_3   0.397934 0.708274 0.791731 -0.493721
H26   H     H_    0.432145 0.712708 0.847276 0.399267
S7    S     S_3+6 0.404678 0.214471 0.723410 0.040754
O35   O     O_2   0.378152 0.158259 0.811928 -0.255565
O36   O     O_2   0.488812 0.202313 0.662197 -0.300948
O37   O     O_3   0.397964 0.291792 0.791774 -0.500250
H27   H     H_    0.432122 0.287336 0.847386 0.393160
S8    S     S_3+6 0.595158 0.785479 0.276703 0.059157
O38   O     O_2   0.510995 0.797087 0.338166 -0.260616
O39   O     O_2   0.620470 0.842267 0.188795 -0.262002
O40   O     O_3   0.601569 0.708412 0.207435 -0.471841
H28   H     H_    0.647748 0.712653 0.141285 0.371896
S9    S     S_3+6 0.095328 0.714419 0.276591 0.045190
O41   O     O_2   0.121869 0.658210 0.188029 -0.247377
O42   O     O_2   0.011196 0.702256 0.337795 -0.303616
O43   O     O_3   0.102022 0.791740 0.208289 -0.496535
H29   H     H_    0.067829 0.787295 0.152721 0.393787
S10   S     S_3+6 0.904644 0.285593 0.723421 0.048872
O44   O     O_2   0.988777 0.297740 0.662208 -0.301049
O45   O     O_2   0.878120 0.341809 0.811977 -0.245788
O46   O     O_3   0.897933 0.208274 0.791732 -0.493720
H30   H     H_    0.932138 0.212711 0.847286 0.399267
S11   S     S_3+6 0.904678 0.714471 0.723410 0.040755
O47   O     O_2   0.878152 0.658259 0.811928 -0.255565
O48   O     O_2   0.988812 0.702313 0.662197 -0.300948
O49   O     O_3   0.897964 0.791792 0.791774 -0.500250
H31   H     H_    0.932122 0.787336 0.847386 0.393160
S12   S     S_3+6 0.095158 0.285479 0.276703 0.059157
O50   O     O_2   0.010995 0.297087 0.338166 -0.260616
O51   O     O_2   0.120470 0.342267 0.188795 -0.262002
O52   O     O_3   0.101569 0.208412 0.207435 -0.471841
H32   H     H_    0.147748 0.212653 0.141284 0.371896

loop_
_geom_bond_atom_site_label_1
_geom_bond_atom_site_label_2
_ccdc_geom_bond_type
C14   F1    S    
C6    C32   S    
O52   H32   S    
S4    O28   S    
O25   H23   S    
C7    C29   S    
C13   N2    A    
S7    O37   S    
C14   C18   A    
C30   C45   A    
C53   H6    S    
C34   C42   A    
S8    O40   S    
C9    C21   A    
S4    O26   D    
O46   H30   S    
S12   O52   S    
S3    O23   D    
Cu2   N2    S    
C48   S11   S    
C5    O13   A    
C10   C22   A    
C15   C19   A    
C59   C64   A    
C18   H18   S    
C7    O7    A    
C60   C63   A    
C17   H17   S    
C6    O6    A    
O43   H29   S    
S11   O48   D    
C50   H1    S    
S8    O39   D    
O37   H27   S    
C19   H19   S    
C28   C51   A    
S3    O24   D    
C29   C54   A    
C2    O10   A    
C10   C17   A    
S7    O35   D    
C38   C57   A    
C4    O12   A    
C49   C57   A    
O19   H21   S    
C40   C48   A    
C11   C23   A    
S2    O20   D    
C43   S8    S    
C52   C60   A    
S10   O46   S    
C15   N4    A    
C25   C50   A    
C53   C61   A    
C27   C44   A    
Cu1   O4    S    
S11   O47   D    
C33   C62   A    
C55   C63   A    
S5    O31   S    
O40   H28   S    
C56   C64   A    
C40   H12   S    
C35   C64   A    
C31   C56   A    
S9    O42   D    
C36   C63   A    
C35   C43   A    
C9    C10   A    
C32   C55   A    
C37   C58   A    
Cu2   O2    S    
S1    O19   S    
C1    C27   S    
C58   C61   A    
S12   O51   D    
C40   C59   A    
C4    O4    A    
S10   O45   D    
Cu2   O9    S    
O49   H31   S    
Cu1   O10   S    
C8    O16   A    
Cu4   O6    S    
C21   N2    A    
C22   S1    S    
C30   C53   A    
C11   C20   A    
Cu3   Cu4   S    
C50   C58   A    
Cu2   O12   S    
C3    C25   S    
S11   O49   S    
S8    O38   D    
C26   C49   A    
C35   H15   S    
S3    O25   S    
C54   C62   A    
C57   C62   A    
C37   H9    S    
C24   S3    S    
S1    O18   D    
S2    O22   S    
C39   H11   S    
Cu1   N1    S    
C14   N1    A    
C21   S2    S    
C54   H5    S    
C2    O2    A    
C16   C20   A    
Cu3   N3    S    
C6    O14   A    
S9    O43   S    
C13   F2    S    
O22   H22   S    
S6    O33   D    
Cu3   O8    S    
C55   H8    S    
S12   O50   D    
C5    O5    A    
C31   C48   A    
C42   S5    S    
S5    O29   D    
C32   C47   A    
C7    O15   A    
C36   C44   A    
C51   C59   A    
Cu4   O13   S    
Cu1   O11   S    
C37   C45   A    
O28   H24   S    
C24   N3    A    
C1    O9    A    
C3    O3    A    
C27   C52   A    
C39   C47   A    
S1    O17   D    
C3    O11   A    
S7    O36   D    
C46   S9    S    
C34   H14   S    
C15   F4    S    
C45   S10   S    
O31   H25   S    
S6    O34   S    
S4    O27   D    
C25   C42   A    
C4    C26   S    
C11   C12   A    
Cu3   O14   S    
C38   H10   S    
C12   C24   A    
C28   C43   A    
C13   C17   A    
C29   C46   A    
C49   H2    S    
C8    C30   S    
C8    O8    A    
Cu4   O7    S    
C33   C41   A    
C52   H3    S    
O34   H26   S    
C47   S12   S    
Cu3   O15   S    
S10   O44   D    
C36   H16   S    
C44   S7    S    
C39   C60   A    
C20   H20   S    
C12   C19   A    
Cu1   O1    S    
Cu4   N4    S    
C22   N1    A    
C34   C61   A    
S2    O21   D    
C38   C46   A    
C56   H7    S    
S6    O32   D    
Cu3   O5    S    
C9    C18   A    
C26   C41   A    
C16   N3    A    
C1    O1    A    
Cu1   Cu2   S    
C51   H4    S    
S5    O30   D    
C23   N4    A    
Cu2   O3    S    
C2    C28   S    
Cu4   O16   S    
C41   S6    S    
S9    O41   D    
C33   H13   S    
C16   F3    S    
C23   S4    S    
C5    C31   S    
