data_mof_unit_56172.cif
_audit_creation_date              2012-12-10T17:32:58-0500
_audit_creation_method            fapswitch 2.2
_symmetry_space_group_name_H-M    P1
_symmetry_Int_Tables_number       1
_space_group_crystal_system       triclinic
_cell_length_a                    12.383116
_cell_length_b                    13.556869
_cell_length_c                    14.136429
_cell_angle_alpha                 93.404725
_cell_angle_beta                  107.322983
_cell_angle_gamma                 117.885589
_cell_volume                      1946.17624299

loop_
_atom_site_label
_atom_site_type_symbol
_atom_type_description
_atom_site_fract_x
_atom_site_fract_y
_atom_site_fract_z
_atom_type_partial_charge
C1    C     C_R   0.652550 0.713230 0.508941 0.914904
C2    C     C_R   0.838663 0.497221 0.926844 0.074113
C3    C     C_R   0.809338 0.537725 0.004048 0.087964
C4    C     C_R   0.934033 0.462926 0.952259 -0.056070
C5    C     C_R   0.019755 0.494481 0.055907 0.059564
C6    C     C_R   0.990248 0.539118 0.131744 -0.187886
C7    C     C_R   0.883770 0.556086 0.105949 -0.173815
C8    C     C_R   0.945141 0.395675 0.878794 0.331807
C9    C     C_R   0.057927 0.388656 0.901235 -0.149782
C10   C     C_R   0.148416 0.426813 0.000406 -0.013621
C11   C     C_R   0.128198 0.475741 0.079689 0.083804
C12   C     C_R   0.614338 0.513271 0.687680 0.943580
C13   C     C_R   0.252849 0.406567 0.021291 -0.134709
C14   C     C_R   0.336252 0.427918 0.121200 0.453570
C15   C     C_R   0.215290 0.501148 0.179839 -0.286219
C16   C     C_R   0.133656 0.970792 0.346437 -0.178345
C17   C     C_R   0.236285 0.164399 0.447170 -0.039521
C18   C     C_R   0.741051 0.921077 0.571237 0.226144
C19   C     C_R   0.783955 0.027910 0.546583 0.464035
C20   C     C_R   0.877291 0.064037 0.501341 -0.334929
C21   C     C_R   0.906992 0.985095 0.463376 0.019614
C22   C     C_R   0.820315 0.866595 0.450922 0.037892
C23   C     C_R   0.341336 0.285676 0.480191 0.791578
C24   C     C_R   0.017026 0.019646 0.434730 0.126733
C25   C     C_R   0.024050 0.937442 0.374304 0.161465
C26   C     C_R   0.921785 0.823127 0.343414 -0.246111
C27   C     C_R   0.821717 0.787557 0.382126 -0.160432
C28   C     C_R   0.124847 0.132021 0.471876 -0.239342
C29   C     C_R   0.238587 0.083973 0.381871 -0.189947
C30   C     C_R   0.738744 0.833893 0.509961 -0.281431
C31   C     C_R   0.256546 0.724688 0.583815 0.336005
C32   C     C_R   0.651600 0.324443 0.388028 0.131308
C33   C     C_R   0.726308 0.279088 0.371464 -0.227117
C34   C     C_R   0.382485 0.483803 0.312386 0.804049
C35   C     C_R   0.862575 0.344538 0.412277 -0.130875
C36   C     C_R   0.926427 0.458772 0.466900 0.017077
C37   C     C_R   0.846799 0.504268 0.482792 0.172201
C38   C     C_R   0.067091 0.531187 0.505089 -0.094037
C39   C     C_R   0.120191 0.650757 0.532667 0.024372
C40   C     C_R   0.034136 0.692897 0.516349 -0.279770
C41   C     C_R   0.915400 0.625575 0.528939 0.386461
C42   C     C_R   0.157491 0.491773 0.515266 0.050481
C43   C     C_R   0.339478 0.679920 0.594285 0.036605
C44   C     C_R   0.674857 0.521085 0.798392 -0.191018
C45   C     C_R   0.313883 0.472068 0.202808 -0.182902
C46   C     C_R   0.706446 0.560399 0.978425 -0.201807
C47   C     C_R   0.634067 0.547489 0.876275 0.386753
C48   C     C_R   0.778118 0.499382 0.826791 -0.122940
Cu1   Cu    Cu3+1 0.416420 0.526630 0.522910 1.029221
Cu2   Cu    Cu3+1 0.583580 0.473370 0.477090 1.037345
H1    H     H_    0.862586 0.587721 0.166237 0.134972
H2    H     H_    0.265518 0.368853 0.958652 0.212336
H3    H     H_    0.321005 0.108681 0.357682 0.151846
H4    H     H_    0.922690 0.759930 0.293521 0.143277
H5    H     H_    0.138701 0.909192 0.298110 0.140867
H6    H     H_    0.125168 0.194378 0.523514 0.167820
H7    H     H_    0.921955 0.151656 0.493180 0.169737
H8    H     H_    0.746507 0.698158 0.356487 0.199344
H9    H     H_    0.444025 0.737243 0.627113 0.214582
H10   H     H_    0.205904 0.541134 0.242367 0.171254
H11   H     H_    0.075311 0.785076 0.530720 0.242900
H12   H     H_    0.123497 0.402662 0.487291 0.123668
H13   H     H_    0.546131 0.270127 0.357941 0.158454
H14   H     H_    0.916020 0.306006 0.395881 0.122475
H15   H     H_    0.678062 0.192211 0.326875 0.141932
H16   H     H_    0.067938 0.341600 0.842752 0.201790
H17   H     H_    0.681894 0.587134 0.038809 0.213294
H18   H     H_    0.809963 0.481852 0.768968 0.260596
H19   H     H_    0.045074 0.559603 0.212184 0.131398
N1    N     N_R   0.290690 0.566960 0.557640 -0.189982
N2    N     N_R   0.709100 0.433710 0.442970 -0.216675
O1    O     O_R   0.545970 0.684450 0.528810 -0.580067
O2    O     O_R   0.687130 0.639470 0.490120 -0.580849
O3    O     O_R   0.519670 0.535100 0.660030 -0.483528
O4    O     O_R   0.660830 0.490120 0.621340 -0.527925
O5    O     O_R   0.312870 0.360530 0.509880 -0.589367
O6    O     O_R   0.454030 0.315550 0.471190 -0.613875
O7    O     O_R   0.339170 0.509880 0.378660 -0.615318
O8    O     O_R   0.480330 0.464900 0.339970 -0.515959
S1    S     S_3+6 0.733827 0.914835 0.694320 0.059706
O9    O     O_2   0.633476 0.943057 0.703945 -0.271805
O10   O     O_2   0.702681 0.800379 0.718257 -0.270094
O11   O     O_3   0.881881 0.014297 0.780517 -0.448743
H20   H     H_    0.944383 0.994031 0.767903 0.349357
O12   O     O_3   0.737388 0.097729 0.568372 -0.472996
C49   C     C_3   0.603133 0.045139 0.503992 0.076491
H21   H     H_    0.545589 0.951815 0.501295 0.132591
H22   H     H_    0.594837 0.054884 0.425069 0.100128
C50   C     C_3   0.538018 0.100685 0.542671 -0.546699
H23   H     H_    0.581278 0.191693 0.537640 0.258666
H24   H     H_    0.431484 0.053273 0.496528 0.162500
H25   H     H_    0.549840 0.095184 0.622478 0.307112
O13   O     O_3   0.308345 0.839999 0.624172 -0.586129
C51   C     C_3   0.356519 0.860943 0.731953 0.139111
H26   H     H_    0.443503 0.850711 0.761378 0.187013
H27   H     H_    0.280577 0.800878 0.759545 0.194770
C52   C     C_3   0.397667 0.983262 0.777450 -0.686488
H28   H     H_    0.315635 0.999504 0.745541 0.271079
H29   H     H_    0.426557 0.997649 0.861534 0.201427
H30   H     H_    0.482835 0.044376 0.759835 0.269186
S2    S     S_3+6 0.948569 0.681241 0.659160 0.007070
O14   O     O_2   0.841308 0.692096 0.676945 -0.279894
O15   O     O_2   0.981602 0.607098 0.722390 -0.319097
O16   O     O_3   0.079577 0.815316 0.702591 -0.562224
H31   H     H_    0.095853 0.836461 0.775850 0.373038
S3    S     S_3+6 0.459724 0.391245 0.137100 0.003512
O17   O     O_2   0.427681 0.291101 0.186230 -0.330107
O18   O     O_2   0.464731 0.357632 0.035870 -0.277051
O19   O     O_3   0.607790 0.503627 0.210692 -0.563917
H32   H     H_    0.667929 0.472822 0.224769 0.353899
S4    S     S_3+6 0.494421 0.563294 0.853309 0.032869
O20   O     O_2   0.374577 0.458670 0.777924 -0.252816
O21   O     O_2   0.470586 0.577304 0.950150 -0.303008
O22   O     O_3   0.517768 0.679657 0.806660 -0.500777
H33   H     H_    0.587502 0.745816 0.864134 0.365306
S5    S     S_3+6 0.808867 0.289053 0.773235 0.000319
O23   O     O_2   0.819264 0.326515 0.676787 -0.247361
O24   O     O_2   0.813480 0.180538 0.771590 -0.172481
O25   O     O_3   0.664785 0.262087 0.780423 -0.578300
H34   H     H_    0.667912 0.242184 0.847112 0.349823

loop_
_geom_bond_atom_site_label_1
_geom_bond_atom_site_label_2
_ccdc_geom_bond_type
C6    H19   S    
O13   C51   S    
C12   O3    A    
C17   C29   A    
C15   H10   S    
C35   C36   A    
C23   O5    A    
C4    C8    A    
Cu2   O8    S    
O22   H33   S    
C28   H6    S    
C33   H15   S    
O12   C49   S    
S5    O23   D    
C26   C27   A    
C17   C23   S    
C31   C43   A    
C36   C37   A    
C38   C42   A    
C3    C7    A    
C5    C6    A    
C49   H22   S    
S3    O17   D    
C42   N1    A    
Cu1   O7    S    
C18   C19   A    
C9    H16   S    
C11   C15   A    
C19   C20   A    
C41   S2    S    
C8    C9    A    
Cu1   O1    S    
C10   C13   A    
C35   H14   S    
C18   C30   A    
C13   C14   A    
C50   H24   S    
C9    C10   A    
C42   H12   S    
C44   C47   A    
C43   H9    S    
S3    O18   D    
S2    O15   D    
C21   C22   A    
S1    O11   S    
C26   H4    S    
O16   H31   S    
C52   H29   S    
C52   H28   S    
C14   C45   A    
C1    O1    A    
S2    O14   D    
C24   C25   A    
S1    O10   D    
Cu2   O2    S    
C39   C40   A    
C49   H21   S    
S1    O9    D    
C51   C52   S    
C2    C48   A    
C16   C29   A    
C31   O13   S    
C49   C50   S    
C23   O6    A    
C40   H11   S    
C2    C4    A    
Cu2   N2    S    
C34   O8    A    
C13   H2    S    
O11   H20   S    
Cu1   O5    S    
S4    O21   D    
C34   C45   S    
C32   N2    A    
C48   H18   S    
C50   H25   S    
C51   H27   S    
C40   C41   A    
S2    O16   S    
C22   C27   A    
C37   N2    A    
C12   O4    A    
C15   C45   A    
Cu2   O6    S    
C52   H30   S    
C16   C25   A    
C20   H7    S    
C46   C47   A    
C22   C30   A    
S4    O20   D    
C17   C28   A    
C24   C28   A    
C32   H13   S    
C4    C5    A    
C19   O12   S    
C27   H8    S    
O25   H34   S    
C5    C11   A    
C6    C7    A    
C43   N1    A    
C3    C46   A    
S5    O25   S    
Cu1   N1    S    
C1    O2    A    
C32   C33   A    
C36   C38   A    
C2    C3    A    
C25   C26   A    
C16   H5    S    
C7    H1    S    
C46   H17   S    
C12   C44   S    
Cu2   O4    S    
C34   O7    A    
C38   C39   A    
C29   H3    S    
C47   S4    S    
C1    C30   S    
C33   C35   A    
S5    O24   D    
S4    O22   S    
C37   C41   A    
C51   H26   S    
C10   C11   A    
C8    S5    S    
C14   S3    S    
C20   C21   A    
C18   S1    S    
Cu1   Cu2   S    
C21   C24   A    
C31   C39   A    
Cu1   O3    S    
C50   H23   S    
O19   H32   S    
C44   C48   A    
S3    O19   S    
