data_mof_unit_13719.cif
_audit_creation_date              2012-12-11T16:34:33-0500
_audit_creation_method            fapswitch 2.2
_symmetry_space_group_name_H-M    P1
_symmetry_Int_Tables_number       1
_space_group_crystal_system       triclinic
_cell_length_a                    8.219181
_cell_length_b                    17.422853
_cell_length_c                    27.056707
_cell_angle_alpha                 95.454824
_cell_angle_beta                  92.411069
_cell_angle_gamma                 83.72945
_cell_volume                      3831.97536298

loop_
_atom_site_label
_atom_site_type_symbol
_atom_type_description
_atom_site_fract_x
_atom_site_fract_y
_atom_site_fract_z
_atom_type_partial_charge
Ba1   Ba    Ba6+2 0.856110 0.463800 0.523550 1.641663
Ba2   Ba    Ba6+2 0.333710 0.536130 0.476450 1.653587
C1    C     C_3   0.645278 0.188211 0.654500 -0.375801
C2    C     C_R   0.968452 0.586529 0.184355 0.591469
C3    C     C_2   0.772401 0.562911 0.273146 -0.089059
C4    C     C_3   0.152876 0.289969 0.659256 0.285469
C5    C     C_3   0.745067 0.583027 0.328014 -0.065338
C6    C     C_1   0.984322 0.490162 0.343735 0.043452
C7    C     C_2   0.024513 0.483417 0.296155 -0.080006
C8    C     C_2   0.912962 0.520972 0.257817 0.220456
C9    C     C_R   0.047740 0.514552 0.105543 -0.079557
C10   C     C_R   0.042106 0.445119 0.128006 -0.034895
C11   C     C_R   0.079440 0.374493 0.099493 -0.059451
C12   C     C_3   0.650562 0.267087 0.635310 0.348033
C13   C     C_R   0.010770 0.585608 0.134161 -0.028870
C14   C     C_2   0.853697 0.533623 0.361206 -0.272571
C15   C     C_2   0.344348 0.480160 0.644406 -0.286244
C16   C     C_3   0.106981 0.272822 0.710577 -0.333006
C17   C     C_R   0.173662 0.439456 0.975386 0.019202
C18   C     C_R   0.131473 0.582380 0.981119 0.019951
C19   C     C_R   0.172154 0.510208 0.952919 0.050708
C20   C     C_R   0.220271 0.369487 0.945935 -0.100147
C21   C     C_R   0.260226 0.368900 0.896336 -0.061726
C22   C     C_R   0.255452 0.437908 0.873427 -0.031923
C23   C     C_3   0.501284 0.656023 0.627394 0.295332
C24   C     C_R   0.211922 0.508785 0.901653 -0.079478
C25   C     C_R   0.209658 0.578269 0.878700 -0.049485
C26   C     C_R   0.247090 0.575891 0.827865 0.602953
C27   C     C_R   0.293168 0.437318 0.822778 0.568110
C28   C     C_3   0.199766 0.300305 0.417162 0.314957
C29   C     C_2   0.463282 0.480665 0.730054 -0.107550
C30   C     C_3   0.498956 0.486172 0.676178 -0.063283
C31   C     C_1   0.207728 0.519738 0.660587 0.013607
C32   C     C_2   0.175764 0.528507 0.709541 0.139440
C33   C     C_2   0.310962 0.503491 0.746833 0.222693
C34   C     C_3   0.487875 0.684531 0.682162 -0.371742
C35   C     C_R   0.129468 0.440828 0.026191 0.019757
C36   C     C_R   0.090295 0.513039 0.054499 0.049897
C37   C     C_R   0.093073 0.583828 0.032368 0.019484
C38   C     C_R   0.121920 0.372241 0.049946 -0.098781
C39   C     C_R   0.017197 0.654725 0.112172 -0.062723
C40   C     C_3   0.211137 0.212965 0.404567 -0.382984
C41   C     C_R   0.130200 0.650930 0.956700 -0.098255
C42   C     C_R   0.168604 0.648765 0.906887 -0.064321
C43   C     C_R   0.057205 0.654020 0.062654 -0.100423
C44   C     C_R   0.410313 0.278906 0.520702 -0.288703
C45   C     C_3   0.970535 0.758246 0.344450 0.295053
C46   C     C_R   0.551781 0.254501 0.494677 0.063833
C47   C     C_R   0.609253 0.175399 0.488927 -0.115211
C48   C     C_R   0.523167 0.120733 0.508895 -0.004697
C49   C     C_R   0.376715 0.145883 0.533700 -0.132933
C50   C     C_R   0.319719 0.225202 0.538882 0.009745
C51   C     C_R   0.589545 0.835648 0.508218 -0.119712
C52   C     C_3   0.003932 0.698467 0.577418 0.326757
C53   C     C_R   0.639913 0.755972 0.502493 0.044740
C54   C     C_R   0.874685 0.779319 0.457529 -0.021972
C55   C     C_R   0.825630 0.859617 0.462976 -0.134453
C56   C     C_3   0.001559 0.781020 0.293137 -0.303109
C57   C     C_R   0.680577 0.887925 0.487799 0.009495
C58   C     C_1   0.628178 0.970362 0.494959 -0.008425
C59   C     C_1   0.580831 0.038866 0.501444 -0.003456
C60   C     C_R   0.777061 0.728183 0.475249 -0.275417
C61   C     C_3   0.017773 0.785537 0.586191 -0.036533
C62   C     C_3   0.680080 0.372770 0.376022 0.297690
C63   C     C_3   0.685011 0.354649 0.319965 -0.354813
C64   C     C_3   0.913445 0.903641 0.635374 -0.222011
C65   C     C_3   0.927558 0.540911 0.759586 -0.137441
C66   C     C_3   0.497212 0.742976 0.355736 0.428116
C67   C     C_3   0.455385 0.816792 0.329985 -0.358481
C68   C     C_R   0.997860 0.447711 0.178397 0.592565
H1    H     H_    0.757289 0.263412 0.610965 0.099131
H2    H     H_    0.584765 0.421878 0.384348 0.085368
H3    H     H_    0.632777 0.143727 0.622737 0.074980
H4    H     H_    0.785541 0.308326 0.310416 0.133915
H5    H     H_    0.706046 0.407170 0.302043 0.072333
H6    H     H_    0.566572 0.335092 0.305397 0.132875
H7    H     H_    0.535485 0.281178 0.613712 -0.042388
H8    H     H_    0.539191 0.189672 0.678801 0.126345
H9    H     H_    0.378431 0.642670 0.612808 0.023040
H10   H     H_    0.589449 0.602916 0.623552 0.039994
H11   H     H_    0.408099 0.740326 0.686363 0.141687
H12   H     H_    0.289945 0.195914 0.372146 0.126385
H13   H     H_    0.433366 0.641954 0.702539 0.082309
H14   H     H_    0.611249 0.693183 0.698717 0.121809
H15   H     H_    0.759997 0.172062 0.675989 0.129822
H16   H     H_    0.138058 0.320248 0.738299 0.133875
H17   H     H_    0.930392 0.699231 0.340522 0.021743
H18   H     H_    0.872476 0.801097 0.360637 -0.022481
H19   H     H_    0.101671 0.740780 0.275759 0.176505
H20   H     H_    0.888180 0.778748 0.269483 0.114849
H21   H     H_    0.036606 0.841083 0.295924 0.084737
H22   H     H_    0.632942 0.732107 0.357792 -0.144783
H23   H     H_    0.264586 0.182502 0.436471 0.063329
H24   H     H_    0.451577 0.752508 0.394145 0.076017
H25   H     H_    0.516289 0.864723 0.350416 0.061974
H26   H     H_    0.321408 0.833432 0.329186 0.142409
H27   H     H_    0.100286 0.350025 0.653707 0.083004
H28   H     H_    0.498889 0.807915 0.291342 0.110873
H29   H     H_    0.140449 0.452093 0.284844 0.112120
H30   H     H_    0.075596 0.320006 0.115446 0.121327
H31   H     H_    0.562987 0.464884 0.756005 0.092554
H32   H     H_    0.294333 0.313431 0.875754 0.119975
H33   H     H_    0.228670 0.313476 0.960067 0.068631
H34   H     H_    0.087037 0.194867 0.395558 0.127129
H35   H     H_    0.146519 0.315118 0.031203 0.068437
H36   H     H_    0.689361 0.591210 0.246569 0.098639
H37   H     H_    0.990658 0.710398 0.133316 0.116907
H38   H     H_    0.098399 0.707966 0.974776 0.068114
H39   H     H_    0.288294 0.285882 0.657617 -0.011655
H40   H     H_    0.164919 0.703208 0.890346 0.121934
H41   H     H_    0.059757 0.710217 0.049519 0.067708
H42   H     H_    0.837056 0.545131 0.400892 0.079133
H43   H     H_    0.339984 0.435529 0.613617 0.059819
H44   H     H_    0.483491 0.856931 0.529959 0.073334
H45   H     H_    0.877122 0.687660 0.566928 -0.026811
H46   H     H_    0.305744 0.104205 0.547651 0.078428
H47   H     H_    0.901620 0.899463 0.449261 0.071226
H48   H     H_    0.718068 0.156412 0.467943 0.084166
H49   H     H_    0.365143 0.339809 0.524158 0.069743
H50   H     H_    0.973226 0.268993 0.711462 0.146698
H51   H     H_    0.816384 0.666627 0.471928 0.058287
H52   H     H_    0.173938 0.217190 0.720406 0.116197
H53   H     H_    0.324036 0.317535 0.425250 0.001832
H54   H     H_    0.123134 0.315626 0.450207 0.064522
H55   H     H_    0.779654 0.812697 0.611001 0.216172
H56   H     H_    0.083952 0.675236 0.546404 0.052796
H57   H     H_    0.889163 0.937645 0.602600 0.100068
H58   H     H_    0.038051 0.911300 0.651317 0.120017
H59   H     H_    0.823034 0.925993 0.664030 0.116109
H60   H     H_    0.971054 0.614000 0.705106 0.218263
H61   H     H_    0.921971 0.575625 0.796125 0.099851
H62   H     H_    0.972587 0.479700 0.765102 0.105269
H63   H     H_    0.801025 0.542926 0.743416 0.090576
H64   H     H_    0.998550 0.812162 0.550533 0.029555
H65   H     H_    0.143864 0.794299 0.600619 0.101650
H66   H     H_    0.800333 0.389269 0.390188 0.004099
N1    N     N_R   0.960386 0.518072 0.206042 -0.422743
N2    N     N_R   0.281973 0.505658 0.799921 -0.424023
N3    N     N_2   0.898362 0.822550 0.621205 -0.397469
N4    N     N_2   0.031300 0.574525 0.727349 -0.393908
O1    O     O_2   0.910880 0.540430 0.617910 -0.461074
O2    O     O_2   0.213089 0.772439 0.465966 -0.492645
O3    O     O_3   0.115571 0.758945 0.373603 -0.575797
O4    O     O_3   0.142880 0.540370 0.557740 -0.486401
O5    O     O_3   0.562610 0.408580 0.475460 -0.489456
O6    O     O_2   0.365880 0.685750 0.523280 -0.465817
O7    O     O_3   0.556998 0.714558 0.602580 -0.649291
O8    O     O_2   0.428789 0.529523 0.322569 -0.484891
O9    O     O_3   0.423731 0.681388 0.329178 -0.565714
O10   O     O_2   0.990828 0.387299 0.197369 -0.596646
O11   O     O_2   0.336173 0.375816 0.799035 -0.607966
O12   O     O_3   0.644802 0.306680 0.397391 -0.635006
O13   O     O_2   0.939759 0.648674 0.208928 -0.625908
O14   O     O_2   0.248402 0.636377 0.808477 -0.581728
O15   O     O_3   0.675650 0.402220 0.588450 -0.482200
O16   O     O_2   0.839091 0.437152 0.671690 -0.493546
O17   O     O_3   0.050014 0.664341 0.621335 -0.634235
O18   O     O_3   0.664853 0.323139 0.675619 -0.597198
O19   O     O_2   0.823810 0.314230 0.476690 -0.457407
O20   O     O_3   0.086630 0.363340 0.564170 -0.489327
O21   O     O_2   0.982470 0.226614 0.532193 -0.484446
O22   O     O_3   0.089469 0.235823 0.623911 -0.602477
O23   O     O_2   0.278810 0.459550 0.382060 -0.458115
O24   O     O_3   0.046820 0.459570 0.442260 -0.495340
O25   O     O_3   0.514050 0.597710 0.411540 -0.474223
O26   O     O_3   0.130874 0.336212 0.376078 -0.629157
O27   O     O_3   0.627090 0.591350 0.524530 -0.469415
O28   O     O_3   0.103080 0.636600 0.435820 -0.465824
P1    P     P_3+3 0.078810 0.562990 0.610370 0.989576
P2    P     P_3+3 0.645380 0.325580 0.462150 0.986890
P3    P     P_3+3 0.119935 0.262063 0.564475 0.935782
P4    P     P_3+3 0.110900 0.436950 0.389630 0.994653
P5    P     P_3+3 0.075094 0.737843 0.433465 0.955046
P6    P     P_3+3 0.669521 0.413948 0.653068 0.962217
P7    P     P_3+3 0.550596 0.688364 0.538576 0.945304
P8    P     P_3+3 0.527119 0.594750 0.346995 0.974223

loop_
_geom_bond_atom_site_label_1
_geom_bond_atom_site_label_2
_ccdc_geom_bond_type
C19   C24   A    
C62   H66   S    
O26   P4    S    
O19   P2    D    
C44   C50   A    
C1    H15   S    
C40   H23   S    
Ba2   O4    S    
C12   H1    S    
Ba1   O5    S    
C65   H62   S    
C68   O10   D    
C67   H26   S    
C31   P1    S    
C51   C57   A    
C15   H43   S    
C28   H53   S    
C54   C55   A    
O25   P8    S    
C27   N2    Am   
C52   H56   S    
O16   P6    D    
C24   C25   A    
C16   H16   S    
C63   H6    S    
C62   O12   S    
C29   H31   S    
C55   H47   S    
C17   C19   A    
C22   C24   A    
C32   C33   S    
C35   C38   A    
C33   N2    S    
C36   C37   A    
O7    P7    S    
C55   C57   A    
C21   H32   S    
C52   C61   S    
Ba1   O27   S    
C34   H13   S    
O6    P7    D    
C23   H10   S    
C53   C60   A    
C45   O3    S    
Ba1   P2    S    
C64   H57   S    
Ba1   Ba2   S    
C12   H7    S    
C32   N4    S    
Ba1   O15   S    
C22   C27   A    
C11   C38   A    
C66   O9    S    
C17   C35   A    
O17   P1    S    
C2    N1    Am   
C9    C13   A    
C25   C42   A    
O18   P6    S    
C64   N3    S    
C4    O22   S    
Ba1   O24   S    
C6    C7    D    
C40   H12   S    
C21   C22   A    
C8    N1    S    
Ba2   P4    S    
C7    C8    S    
C37   C43   A    
C64   H59   S    
C67   H28   S    
C2    O13   D    
H60   N4    S    
C57   C58   S    
C7    H29   S    
C52   H45   S    
C26   O14   D    
C15   C31   D    
C50   P3    S    
C31   C32   D    
O2    P5    D    
C3    H36   S    
C51   C53   A    
O28   P5    S    
C4    C16   S    
C44   C46   A    
O22   P3    S    
C49   C50   A    
C4    H27   S    
Ba1   O19   S    
C17   C20   A    
C26   N2    Am   
C13   C39   A    
Ba2   O24   S    
C3    C5    S    
C18   C37   A    
C66   C67   S    
C30   P6    S    
O4    P1    S    
C66   H24   S    
C63   H4    S    
C58   C59   T    
Ba2   O5    S    
C45   H17   S    
C9    C36   A    
C41   C42   A    
C61   H64   S    
C35   C36   A    
O23   P4    D    
C27   O11   D    
O12   P2    S    
Ba2   O28   S    
C29   C30   S    
C34   H11   S    
C53   P7    S    
C5    P8    S    
O1    P1    D    
C48   C49   A    
C23   O7    S    
O8    P8    D    
C10   C11   A    
C65   N4    S    
C56   H20   S    
Ba2   O25   S    
C28   O26   S    
C1    C12   S    
C16   H52   S    
C46   P2    S    
O15   P6    S    
C46   C47   A    
C28   H54   S    
C4    H39   S    
C54   C60   A    
O24   P4    S    
O3    P5    S    
C16   H50   S    
C18   C41   A    
C51   H44   S    
C14   H42   S    
O27   P7    S    
C56   H21   S    
C15   C30   S    
C10   C68   A    
O5    P2    S    
C5    C14   S    
C39   H37   S    
C65   H63   S    
C23   H9    S    
C61   N3    S    
Ba1   O20   S    
C65   H61   S    
C34   H14   S    
C67   H25   S    
C40   H34   S    
Ba2   O23   S    
C9    C10   A    
C43   H41   S    
Ba2   O6    S    
C49   H46   S    
C63   H5    S    
C54   P5    S    
O9    P8    S    
C45   H18   S    
C2    C13   A    
C3    C8    D    
Ba1   O4    S    
C62   C63   S    
C52   O17   S    
C11   H30   S    
Ba1   P1    S    
C66   H22   S    
O20   P3    S    
C64   H58   S    
C44   H49   S    
C29   C33   D    
C41   H38   S    
C62   H2    S    
C1    H3    S    
C56   H19   S    
C12   O18   S    
Ba1   O1    S    
C20   H33   S    
C23   C34   S    
O21   P3    D    
C47   H48   S    
C18   C19   A    
C68   N1    Am   
C6    C14   D    
C47   C48   A    
H55   N3    S    
C25   C26   A    
C48   C59   S    
C39   C43   A    
C20   C21   A    
C28   C40   S    
C1    H8    S    
Ba2   O27   S    
C60   H51   S    
C6    P4    S    
C61   H65   S    
C38   H35   S    
C45   C56   S    
C42   H40   S    
