data_mof_unit_43878.cif
_audit_creation_date              2012-10-26T21:11:03-0400
_audit_creation_method            fapswitch 2.2
_symmetry_space_group_name_H-M    P1
_symmetry_Int_Tables_number       1
_space_group_crystal_system       triclinic
_cell_length_a                    10.904818
_cell_length_b                    10.912696
_cell_length_c                    13.12054
_cell_angle_alpha                 90.715168
_cell_angle_beta                  90.732641
_cell_angle_gamma                 90.061662
_cell_volume                      1561.10644869

loop_
_atom_site_label
_atom_site_type_symbol
_atom_type_description
_atom_site_fract_x
_atom_site_fract_y
_atom_site_fract_z
_atom_type_partial_charge
C1    C     C_R   0.503988 0.259527 0.499188 0.605544
C2    C     C_R   0.517270 0.890463 0.770967 -0.143968
C3    C     C_R   0.566505 0.114927 0.311026 0.013416
C4    C     C_R   0.433529 0.885067 0.688972 0.013402
C5    C     C_R   0.683328 0.167768 0.297200 0.292903
C6    C     C_R   0.316673 0.832310 0.702816 0.292870
C7    C     C_R   0.713740 0.215280 0.201453 0.283378
C8    C     C_R   0.286258 0.784790 0.798559 0.283379
C9    C     C_R   0.628500 0.210205 0.120906 -0.106255
C10   C     C_R   0.371536 0.789761 0.879082 -0.106296
C11   C     C_R   0.525896 0.932188 0.412119 -0.097036
C12   C     C_R   0.496020 0.740473 0.500812 0.605467
C13   C     C_R   0.474138 0.067809 0.587885 -0.096997
C14   C     C_R   0.495531 0.872924 0.502228 0.047661
C15   C     C_R   0.504496 0.127075 0.497774 0.047692
C16   C     C_R   0.259550 0.494948 0.499073 0.606564
C17   C     C_R   0.740449 0.505066 0.500927 0.606561
C18   C     C_R   0.468292 0.941184 0.591184 0.020488
C19   C     C_R   0.531743 0.058814 0.408818 0.020504
C20   C     C_1   0.500042 0.500089 0.173571 0.140192
C21   C     C_1   0.499958 0.499910 0.826429 0.140199
C22   C     C_1   0.500037 0.500072 0.050684 -0.017064
C23   C     C_R   0.872941 0.505653 0.502384 0.038849
C24   C     C_1   0.499964 0.499927 0.949316 -0.017072
C25   C     C_R   0.156539 0.499586 0.132520 0.259244
C26   C     C_R   0.843424 0.500385 0.867463 0.259230
C27   C     C_R   0.111522 0.528289 0.229319 -0.080824
C28   C     C_R   0.888422 0.471692 0.770655 -0.080841
C29   C     C_R   0.114049 0.441983 0.307600 0.005997
C30   C     C_R   0.885948 0.558031 0.692399 0.005950
C31   C     C_R   0.162113 0.324461 0.288343 0.253601
C32   C     C_R   0.837945 0.675570 0.711684 0.253589
C33   C     C_R   0.203858 0.294041 0.190995 -0.011531
C34   C     C_R   0.127058 0.494372 0.497616 0.038843
C35   C     C_R   0.796222 0.705981 0.809041 -0.011517
C36   C     C_R   0.199324 0.378850 0.111963 0.240160
C37   C     C_R   0.800710 0.621140 0.888052 0.240178
C38   C     C_R   0.932103 0.481563 0.410441 -0.072322
C39   C     C_R   0.067897 0.518473 0.589557 -0.072330
C40   C     C_R   0.941353 0.525965 0.593060 0.020861
C41   C     C_R   0.058645 0.474061 0.406938 0.020864
C42   C     C_R   0.513381 0.157649 0.134686 -0.170126
C43   C     C_R   0.486698 0.842215 0.865277 -0.170183
C44   C     C_R   0.482809 0.109416 0.229002 -0.144008
Cl1   Cl    Cl    0.792174 0.171336 0.397987 -0.473168
Cl2   Cl    Cl    0.207797 0.828834 0.602048 -0.473042
Cl3   Cl    Cl    0.858892 0.279089 0.179268 -0.542465
Cl4   Cl    Cl    0.141063 0.721089 0.820762 -0.542284
Cl5   Cl    Cl    0.165690 0.211417 0.382949 -0.505073
Cl6   Cl    Cl    0.834422 0.788644 0.617103 -0.505030
Cu1   Cu    Cu3+1 0.499990 0.499990 0.592680 1.049208
Cu2   Cu    Cu3+1 0.500010 0.500010 0.407320 1.049210
H1    H     H_    0.547597 0.879596 0.343983 0.145302
H2    H     H_    0.348364 0.753675 0.952843 0.161227
H3    H     H_    0.448074 0.153433 0.071910 0.169942
H4    H     H_    0.552044 0.846337 0.928029 0.169963
H5    H     H_    0.393909 0.066982 0.238317 0.159056
H6    H     H_    0.606204 0.932815 0.761633 0.159082
H7    H     H_    0.191916 0.389275 0.964415 0.358531
H8    H     H_    0.808087 0.610654 0.035603 0.358521
H9    H     H_    0.222934 0.573779 0.011602 0.336745
H10   H     H_    0.777046 0.426203 0.988398 0.336767
H11   H     H_    0.452438 0.120399 0.656022 0.145314
H12   H     H_    0.075602 0.619278 0.244062 0.172373
H13   H     H_    0.924292 0.380691 0.755888 0.172401
H14   H     H_    0.235940 0.202082 0.175339 0.163370
H15   H     H_    0.764194 0.797950 0.824723 0.163374
H16   H     H_    0.879364 0.465815 0.340915 0.188406
H17   H     H_    0.120635 0.534230 0.659083 0.188349
H18   H     H_    0.651673 0.246283 0.047140 0.161274
N1    N     N_1   0.500030 0.500030 0.268070 -0.183207
N2    N     N_1   0.499970 0.499970 0.731930 -0.183200
O1    O     O_R   0.499980 0.319630 0.578260 -0.502469
O2    O     O_3   0.765890 0.660891 0.983609 -0.699197
O3    O     O_3   0.157954 0.591680 0.061549 -0.648542
O4    O     O_3   0.841964 0.408259 0.938409 -0.648569
O5    O     O_R   0.500020 0.680370 0.421740 -0.502491
O6    O     O_R   0.500000 0.319650 0.421740 -0.488399
O7    O     O_R   0.500000 0.680350 0.578260 -0.488431
O8    O     O_R   0.319630 0.500000 0.578260 -0.492795
O9    O     O_R   0.680370 0.500000 0.421740 -0.492773
O10   O     O_R   0.319650 0.500020 0.421740 -0.498647
O11   O     O_R   0.680350 0.499980 0.578260 -0.498649
O12   O     O_3   0.234166 0.339091 0.016416 -0.699201

loop_
_geom_bond_atom_site_label_1
_geom_bond_atom_site_label_2
_ccdc_geom_bond_type
C37   O2    S    
C27   C29   A    
C14   C18   A    
H9    O3    S    
C15   C19   A    
C11   C19   A    
C9    C42   A    
C17   C23   S    
C13   C18   A    
C35   C37   A    
C11   C14   A    
C23   C40   A    
C12   O7    A    
C33   C36   A    
Cu1   O8    S    
C16   C34   S    
C26   O4    S    
C31   C33   A    
C20   N1    T    
C3    C19   S    
C1    C15   S    
C44   H5    S    
C11   H1    S    
C4    C18   S    
C1    O6    A    
H10   O4    S    
C34   C41   A    
C42   C44   A    
C31   Cl5   S    
Cu2   O6    S    
C33   H14   S    
C3    C44   A    
C21   N2    T    
C34   C39   A    
C32   C35   A    
H7    O12   S    
C38   C41   A    
C4    C6    A    
C39   C40   A    
C5    C7    A    
C6    C8    A    
C5    Cl1   S    
Cu1   Cu2   S    
C25   O3    S    
C7    Cl3   S    
C2    C4    A    
C8    Cl4   S    
C42   H3    S    
C13   H11   S    
C35   H15   S    
C2    C43   A    
C12   O5    A    
C16   O10   A    
C39   H17   S    
C30   C40   S    
C9    H18   S    
Cu2   O10   S    
C32   Cl6   S    
C38   H16   S    
C13   C15   A    
C22   C24   T    
Cu1   N2    S    
Cu2   O5    S    
Cu1   O11   S    
C7    C9    A    
C6    Cl2   S    
C29   C41   S    
C10   C43   A    
Cu1   O1    S    
C20   C22   S    
C3    C5    A    
C2    H6    S    
C26   C37   A    
C25   C27   A    
C23   C38   A    
C26   C28   A    
C1    O1    A    
C28   C30   A    
C28   H13   S    
C12   C14   S    
C17   O11   A    
C29   C31   A    
Cu2   N1    S    
C30   C32   A    
C36   O12   S    
H8    O2    S    
C17   O9    A    
Cu2   O9    S    
C10   H2    S    
Cu1   O7    S    
C27   H12   S    
C25   C36   A    
C43   H4    S    
C8    C10   A    
C21   C24   S    
C16   O8    A    
