data_mof_unit_51872.cif
_audit_creation_date              2012-12-11T17:41:38-0500
_audit_creation_method            fapswitch 2.2
_symmetry_space_group_name_H-M    P1
_symmetry_Int_Tables_number       1
_space_group_crystal_system       triclinic
_cell_length_a                    15.598607
_cell_length_b                    15.15278
_cell_length_c                    15.157353
_cell_angle_alpha                 109.690971
_cell_angle_beta                  121.16604
_cell_angle_gamma                 58.597997
_cell_volume                      2605.41451805

loop_
_atom_site_label
_atom_site_type_symbol
_atom_type_description
_atom_site_fract_x
_atom_site_fract_y
_atom_site_fract_z
_atom_type_partial_charge
C1    C     C_R   0.795491 0.948975 0.778456 -0.104388
C2    C     C_R   0.311876 0.352318 0.098284 -0.113933
C3    C     C_R   0.630213 0.701198 0.861669 -0.126401
C4    C     C_R   0.383854 0.248035 0.087812 -0.121251
C5    C     C_R   0.662160 0.770392 0.946369 0.114984
C6    C     C_R   0.341185 0.174817 0.027489 0.114698
C7    C     C_R   0.775473 0.740639 0.013754 -0.169527
C8    C     C_R   0.225759 0.207041 0.978687 -0.178202
C9    C     C_R   0.855180 0.643490 0.996163 -0.114170
C10   C     C_R   0.154291 0.310979 0.992145 -0.112125
C11   C     C_R   0.822503 0.575167 0.911783 -0.089585
C12   C     C_R   0.230079 0.020871 0.211124 -0.107723
C13   C     C_R   0.197287 0.383700 0.051562 -0.089095
C14   C     C_R   0.580163 0.902556 0.064030 -0.219760
C15   C     C_R   0.410326 0.034573 0.909446 -0.214882
C16   C     C_R   0.237912 0.289508 0.486323 -0.133158
C17   C     C_R   0.802193 0.727526 0.561569 -0.148661
C18   C     C_R   0.501920 0.999284 0.084949 0.063328
C19   C     C_R   0.492027 0.940829 0.889183 0.061873
C20   C     C_R   0.416808 0.066624 0.007618 0.004476
C21   C     C_R   0.577179 0.872532 0.966053 0.019214
C22   C     C_2   0.136821 0.397642 0.601416 -0.188617
C23   C     C_R   0.201708 0.299869 0.557304 0.086090
C24   C     C_2   0.981306 0.654996 0.543886 -0.188542
C25   C     C_2   0.129549 0.487568 0.595874 -0.100810
C26   C     C_2   0.039172 0.583236 0.610179 -0.118754
C27   C     C_2   0.967710 0.977793 0.855186 -0.203513
C28   C     C_2   0.122250 0.913908 0.104854 -0.192565
C29   C     C_R   0.180030 0.652387 0.124963 -0.207818
C30   C     C_R   0.851329 0.294372 0.775061 -0.190505
C31   C     C_R   0.246945 0.615834 0.222934 -0.102754
C32   C     C_R   0.778155 0.344621 0.684321 -0.062585
C33   C     C_R   0.360729 0.591140 0.270831 0.051006
C34   C     C_R   0.865841 0.728239 0.523884 0.094671
C35   C     C_R   0.662975 0.384152 0.649252 0.040709
C36   C     C_R   0.405573 0.606812 0.220480 -0.241178
C37   C     C_R   0.622184 0.374930 0.707909 -0.249888
C38   C     C_R   0.338846 0.643570 0.122307 0.621686
C39   C     C_R   0.695173 0.324533 0.798936 0.625075
C40   C     C_R   0.592792 0.221996 0.503412 0.504758
C41   C     C_R   0.410393 0.766322 0.458194 0.495755
C42   C     C_R   0.225894 0.664366 0.073862 -0.264746
C43   C     C_R   0.810446 0.284069 0.832265 -0.293421
C44   C     C_R   0.430988 0.455176 0.377617 -0.284683
C45   C     C_R   0.501692 0.313372 0.470889 -0.023096
C46   C     C_R   0.589264 0.519499 0.542167 -0.287115
C47   C     C_R   0.505168 0.403345 0.467195 0.125755
C48   C     C_R   0.512569 0.574148 0.454230 0.117396
C49   C     C_R   0.585584 0.434677 0.550709 0.091734
C50   C     C_R   0.434662 0.541039 0.369308 0.105865
C51   C     C_2   0.029142 0.904820 0.920604 -0.128158
C52   C     C_2   0.119469 0.915945 0.016088 -0.134533
C53   C     C_R   0.408974 0.979666 0.710678 -0.145490
C54   C     C_R   0.593608 0.986109 0.274248 -0.142217
C55   C     C_R   0.408089 0.299363 0.434011 -0.244866
C56   C     C_R   0.504093 0.674477 0.463205 -0.018227
C57   C     C_R   0.594618 0.696210 0.519941 -0.234011
C58   C     C_R   0.591823 0.916290 0.791081 -0.097730
C59   C     C_R   0.408118 0.061102 0.199512 -0.109307
C60   C     C_R   0.233544 0.200757 0.574718 0.076181
C61   C     C_R   0.803838 0.816685 0.472314 0.061460
C62   C     C_R   0.797282 0.039369 0.689237 -0.145596
C63   C     C_R   0.226904 0.931057 0.299633 -0.175313
C64   C     C_R   0.855428 0.992551 0.779903 0.145499
C65   C     C_R   0.190932 0.953194 0.201579 0.156787
C66   C     C_1   0.191140 0.177686 0.624623 -0.006430
C67   C     C_R   0.499231 0.933062 0.796539 0.040460
C68   C     C_1   0.851035 0.864193 0.452773 -0.023663
C69   C     C_R   0.501425 0.020141 0.183474 0.061389
C70   C     C_R   0.710170 0.604039 0.845028 -0.106306
H1    H     H_    0.820999 0.898105 0.831537 0.081317
H2    H     H_    0.472426 0.224893 0.123860 0.121399
H3    H     H_    0.802117 0.792854 0.079424 0.114536
H4    H     H_    0.191495 0.151632 0.930703 0.112312
H5    H     H_    0.942166 0.621008 0.048192 0.097559
H6    H     H_    0.065590 0.335408 0.955544 0.102139
H7    H     H_    0.642165 0.849164 0.123498 0.136159
H8    H     H_    0.347540 0.089362 0.851413 0.147652
H9    H     H_    0.007791 0.584809 0.660244 0.127051
H10   H     H_    0.176806 0.490029 0.564296 0.133460
H11   H     H_    0.013744 0.651373 0.493577 0.139130
H12   H     H_    0.208850 0.060695 0.150828 0.083318
H13   H     H_    0.088250 0.396624 0.632497 0.136799
H14   H     H_    0.173272 0.690591 0.997040 0.124471
H15   H     H_    0.868486 0.244472 0.902185 0.121826
H16   H     H_    0.220981 0.350804 0.450663 0.102323
H17   H     H_    0.829882 0.678505 0.617391 0.092068
H18   H     H_    0.092736 0.670109 0.087872 0.128945
H19   H     H_    0.939954 0.262757 0.800731 0.132554
H20   H     H_    0.210561 0.604819 0.260557 0.127223
H21   H     H_    0.811180 0.351190 0.640344 0.125860
H22   H     H_    0.493281 0.587563 0.256175 0.147190
H23   H     H_    0.069319 0.888201 0.105691 0.140632
H24   H     H_    0.533516 0.406158 0.682312 0.147582
H25   H     H_    0.372175 0.427031 0.313689 0.130520
H26   H     H_    0.647343 0.547199 0.608147 0.127271
H27   H     H_    0.326055 0.989141 0.684104 0.116626
H28   H     H_    0.679064 0.955909 0.289150 0.118158
H29   H     H_    0.323458 0.350416 0.388813 0.127779
H30   H     H_    0.680970 0.641473 0.545846 0.133570
H31   H     H_    0.677885 0.876385 0.843001 0.099649
H32   H     H_    0.322706 0.099488 0.146589 0.099233
H33   H     H_    0.828529 0.068886 0.662173 0.133166
H34   H     H_    0.996300 0.033117 0.863025 0.133432
H35   H     H_    0.201506 0.887878 0.317142 0.156194
H36   H     H_    0.171177 0.942382 0.014188 0.140175
H37   H     H_    0.001317 0.849720 0.914392 0.125691
H38   H     H_    0.328440 0.684005 0.007291 0.313790
H39   H     H_    0.713547 0.277482 0.914399 0.311644
H40   H     H_    0.730554 0.115226 0.500287 0.305907
H41   H     H_    0.276610 0.842792 0.477610 0.301275
H42   H     H_    0.884038 0.499785 0.898329 0.103072
H43   H     H_    0.141719 0.464383 0.060476 0.101625
H44   H     H_    0.684704 0.550952 0.780828 0.120767
H45   H     H_    0.345189 0.408774 0.141387 0.127367
H46   H     H_    0.543435 0.721831 0.809443 0.120142
N1    N     N_R   0.705410 0.966550 0.689210 -0.043086
N2    N     N_R   0.556610 0.796750 0.548620 -0.056883
N3    N     N_R   0.556610 0.951620 0.703500 -0.038679
N4    N     N_R   0.443390 0.048380 0.296500 -0.039877
N5    N     N_R   0.294590 0.131500 0.522480 -0.067057
N6    N     N_R   0.705410 0.868500 0.477520 -0.063760
N7    N     N_R   0.705410 0.023370 0.632390 -0.053649
N8    N     N_R   0.294590 0.976630 0.367610 -0.055141
N9    N     N_1   0.154735 0.161432 0.664176 -0.102172
N10   N     N_1   0.889691 0.902166 0.437708 -0.086151
N11   N     N_R   0.294590 0.033450 0.310790 -0.043956
N12   N     N_R   0.294590 0.188320 0.465660 -0.050105
N13   N     N_R   0.705410 0.811680 0.534340 -0.046444
N14   N     N_R   0.556610 0.157790 0.497330 -0.101086
N15   N     N_R   0.443390 0.842210 0.502670 -0.102518
N16   N     N_R   0.443390 0.997080 0.657540 -0.042348
N17   N     N_R   0.556610 0.002920 0.342460 -0.046172
N18   N     N_R   0.443390 0.203250 0.451380 -0.053825
Ni1   Ni    Ni4+2 0.629830 0.882720 0.617850 0.206899
Ni2   Ni    Ni4+2 0.370170 0.117280 0.382150 0.214228
Ni3   Ni    Ni4+2 0.629830 0.013030 0.487540 0.220331
Ni4   Ni    Ni4+2 0.370170 0.986970 0.512460 0.209338
O1    O     O_3   0.386504 0.656933 0.075360 -0.752139
O2    O     O_3   0.651559 0.315607 0.853003 -0.750949
O3    O     O_3   0.693834 0.192124 0.506259 -0.770527
O4    O     O_3   0.314413 0.772556 0.447624 -0.780381

loop_
_geom_bond_atom_site_label_1
_geom_bond_atom_site_label_2
_ccdc_geom_bond_type
C53   N16   A    
C63   C65   A    
N17   Ni3   S    
C59   N4    A    
C29   C42   A    
C61   N6    A    
C25   H10   S    
C28   C52   D    
C14   C18   A    
C63   N8    A    
C11   C70   A    
C47   C49   A    
C12   N11   A    
N14   N18   A    
C70   H44   S    
C15   C19   A    
C46   C49   A    
C1    H1    S    
H39   O2    S    
C14   C21   A    
N8    Ni4   S    
C35   C37   A    
C24   C26   D    
C38   C42   A    
C3    H46   S    
N12   Ni2   S    
C15   H8    S    
N16   Ni4   S    
C27   H34   S    
C33   C36   A    
C56   C57   A    
C48   C56   S    
N4    N17   A    
C14   H7    S    
C2    C13   A    
C29   H18   S    
C62   C64   A    
N2    N15   A    
H41   O4    S    
N13   Ni1   S    
C10   H6    S    
C22   C25   D    
C35   C49   S    
C38   O1    S    
C31   C33   A    
C19   C67   S    
C63   H35   S    
N6    N13   A    
C44   C47   A    
C36   H22   S    
C18   C69   S    
C48   C50   A    
C60   C66   S    
C40   O3    S    
C16   H16   S    
C23   C60   A    
C15   C20   A    
C30   H19   S    
C62   N7    A    
C27   C51   D    
C45   C47   S    
C40   C45   A    
C37   C39   A    
C46   C48   A    
C17   N13   A    
C51   C52   S    
C43   H15   S    
C32   C35   A    
C3    C70   A    
C42   H14   S    
N11   Ni2   S    
N5    N12   A    
C4    C6    A    
C41   N15   A    
C39   C43   A    
C53   H27   S    
C25   C26   S    
C57   H30   S    
C34   C61   A    
N3    Ni1   S    
C28   H23   S    
N4    Ni2   S    
C5    C21   S    
N5    Ni4   S    
H40   O3    S    
C2    C4    A    
C24   H11   S    
C41   C56   A    
N18   Ni2   S    
C9    C11   A    
C2    H45   S    
C31   H20   S    
C7    H3    S    
C8    H4    S    
N3    N16   A    
C12   H12   S    
C58   H31   S    
C1    N1    A    
C16   N12   A    
C59   C69   A    
N8    N11   A    
C51   H37   S    
C16   C23   A    
C30   C43   A    
C17   C34   A    
N1    Ni1   S    
C1    C64   A    
C68   N10   T    
C4    H2    S    
C5    C7    A    
C62   H33   S    
C44   C50   A    
C7    C9    A    
C40   N14   A    
C39   O2    S    
C19   C21   A    
C11   H42   S    
C17   H17   S    
C59   H32   S    
N6    Ni3   S    
C3    C5    A    
C10   C13   A    
H38   O1    S    
C6    C8    A    
C55   N18   A    
C6    C20   S    
C12   C65   A    
N7    Ni3   S    
C26   H9    S    
C66   N9    T    
C22   H13   S    
C36   C38   A    
C28   C65   S    
C33   C50   S    
C41   O4    S    
C29   C31   A    
N15   Ni4   S    
C30   C32   A    
C54   N17   A    
C61   C68   S    
C54   C69   A    
C58   N3    A    
C37   H24   S    
C18   C20   A    
N1    N7    A    
C60   N5    A    
C53   C67   A    
C24   C34   S    
C27   C64   S    
C52   H36   S    
C32   H21   S    
C58   C67   A    
C46   H26   S    
C45   C55   A    
C8    C10   A    
C55   H29   S    
C44   H25   S    
C22   C23   S    
C54   H28   S    
C9    H5    S    
N14   Ni3   S    
C13   H43   S    
N2    Ni1   S    
C57   N2    A    
