data_mof_unit_63001.cif
_audit_creation_date              2012-10-26T17:23:46-0400
_audit_creation_method            fapswitch 2.2
_symmetry_space_group_name_H-M    P1
_symmetry_Int_Tables_number       1
_space_group_crystal_system       triclinic
_cell_length_a                    21.444419
_cell_length_b                    29.411287
_cell_length_c                    29.411468
_cell_angle_alpha                 89.99917
_cell_angle_beta                  89.924465
_cell_angle_gamma                 89.999949
_cell_volume                      18550.0309126

loop_
_atom_site_label
_atom_site_type_symbol
_atom_type_description
_atom_site_fract_x
_atom_site_fract_y
_atom_site_fract_z
_atom_type_partial_charge
C1    C     C_R   0.999955 0.999995 0.085537 0.549451
C2    C     C_1   0.999990 0.000006 0.770708 -0.003640
C3    C     C_3   0.310874 0.499989 0.499511 0.024806
C4    C     C_1   0.999960 0.000004 0.136666 -0.051178
C5    C     C_1   0.000040 0.000006 0.863334 -0.051178
C6    C     C_1   0.499960 0.500004 0.636666 -0.051180
C7    C     C_1   0.500040 0.500006 0.363334 -0.051179
C8    C     C_3   0.295487 0.920274 0.956017 -0.250869
C9    C     C_3   0.242538 0.889386 0.939735 -0.298746
C10   C     C_3   0.268120 0.847021 0.916309 -0.448348
C11   C     C_3   0.704510 0.920250 0.043938 -0.250873
C12   C     C_3   0.757458 0.889351 0.060203 -0.298742
C13   C     C_1   0.500010 0.500004 0.729292 -0.003640
C14   C     C_3   0.731874 0.846972 0.083605 -0.448349
C15   C     C_3   0.704600 0.078345 0.046392 -0.250639
C16   C     C_3   0.757609 0.108695 0.063559 -0.298912
C17   C     C_3   0.732113 0.150336 0.088296 -0.448378
C18   C     C_3   0.295403 0.078370 0.953652 -0.250643
C19   C     C_3   0.242395 0.108732 0.936501 -0.298909
C20   C     C_3   0.267893 0.150388 0.911789 -0.448380
C21   C     C_3   0.795562 0.419703 0.457144 -0.250963
C22   C     C_3   0.742653 0.388561 0.441279 -0.298678
C23   C     C_3   0.768293 0.345882 0.418465 -0.448315
C24   C     C_1   0.499990 0.500006 0.270708 -0.003641
C25   C     C_3   0.204472 0.419954 0.543360 -0.250920
C26   C     C_3   0.257399 0.388925 0.559412 -0.298707
C27   C     C_3   0.231785 0.346384 0.582500 -0.448329
C28   C     C_3   0.204638 0.578029 0.546960 -0.250588
C29   C     C_3   0.257668 0.608242 0.564336 -0.298941
C30   C     C_3   0.232203 0.649709 0.589381 -0.448386
C31   C     C_3   0.795329 0.577753 0.452548 -0.250543
C32   C     C_3   0.742280 0.607845 0.434992 -0.298973
C33   C     C_3   0.767719 0.649158 0.409679 -0.448394
C34   C     C_1   0.000044 0.000002 0.271670 -0.002630
C35   C     C_1   0.999955 0.000003 0.728329 -0.002630
C36   C     C_1   0.500044 0.500002 0.771670 -0.002630
C37   C     C_1   0.499956 0.500003 0.228329 -0.002631
C38   C     C_1   0.000079 0.999997 0.321920 -0.037258
C39   C     C_1   0.999920 0.999998 0.678080 -0.037259
C40   C     C_1   0.500079 0.499998 0.821920 -0.037259
C41   C     C_R   0.000045 0.999996 0.914463 0.549450
C42   C     C_1   0.499920 0.499999 0.178080 -0.037259
C43   C     C_1   0.000087 0.999994 0.364299 -0.037899
C44   C     C_1   0.999913 0.999995 0.635700 -0.037899
C45   C     C_1   0.500086 0.499994 0.864299 -0.037899
C46   C     C_1   0.499913 0.499995 0.135700 -0.037899
C47   C     C_R   0.500000 0.085494 1.000000 0.545073
C48   C     C_R   0.000001 0.585494 0.500000 0.545110
C49   C     C_R   0.378620 0.999972 0.000059 0.558503
C50   C     C_R   0.621380 0.999974 0.999941 0.558504
C51   C     C_R   0.878620 0.500009 0.500058 0.558504
C52   C     C_R   0.499955 0.499995 0.585537 0.549451
C53   C     C_R   0.121380 0.499993 0.499941 0.558504
C54   C     C_R   0.500000 0.914394 0.000000 0.545089
C55   C     C_R   0.999999 0.414394 0.500000 0.545054
C56   C     C_R   1.000000 0.084542 0.500000 0.540460
C57   C     C_R   0.500000 0.584542 0.000000 0.540462
C58   C     C_R   0.000033 0.999991 0.415435 0.540475
C59   C     C_R   0.999967 0.999991 0.584565 0.540475
C60   C     C_R   0.500033 0.499991 0.915435 0.540475
C61   C     C_R   0.499967 0.499991 0.084565 0.540475
C62   C     C_R   0.121409 0.999988 0.000546 0.564575
C63   C     C_R   0.500045 0.499996 0.414463 0.549449
C64   C     C_R   0.878591 0.999988 0.999454 0.564575
C65   C     C_R   0.621409 0.499989 0.500544 0.564575
C66   C     C_R   0.378591 0.499988 0.499455 0.564574
C67   C     C_R   0.000000 0.915426 0.500000 0.540479
C68   C     C_R   0.500000 0.415426 1.000000 0.540477
C69   C     C_1   0.500000 0.136624 0.999999 -0.056657
C70   C     C_1   0.000003 0.636624 0.499999 -0.056582
C71   C     C_1   0.500000 0.179003 0.999999 -0.047335
C72   C     C_1   0.000003 0.679003 0.499999 -0.047264
C73   C     C_1   0.500000 0.229256 0.999999 -0.006330
C74   C     C_1   0.999976 0.000006 0.179043 -0.043706
C75   C     C_1   0.000003 0.729257 0.499999 -0.006260
C76   C     C_1   0.000003 0.771640 0.500000 -0.004244
C77   C     C_1   0.500000 0.271639 0.999999 -0.004285
C78   C     C_1   0.000001 0.821897 0.500000 -0.037978
C79   C     C_1   0.500000 0.321897 1.000000 -0.037996
C80   C     C_1   0.000001 0.864282 0.500000 -0.038273
C81   C     C_1   0.500000 0.364282 1.000000 -0.038283
C82   C     C_1   0.500000 0.863278 0.000001 -0.056756
C83   C     C_1   0.999997 0.363278 0.500001 -0.056826
C84   C     C_1   0.500000 0.820907 0.000001 -0.047565
C85   C     C_1   0.000024 0.000007 0.820957 -0.043706
C86   C     C_1   0.999996 0.320908 0.500001 -0.047634
C87   C     C_1   0.500000 0.770668 0.000001 -0.006530
C88   C     C_1   0.999997 0.270668 0.500000 -0.006602
C89   C     C_3   0.229218 0.962829 0.022720 -0.119129
C90   C     C_3   0.770781 0.962843 0.977259 -0.119126
C91   C     C_3   0.770788 0.037806 0.978420 -0.119295
C92   C     C_3   0.229213 0.037792 0.021601 -0.119292
C93   C     C_3   0.729236 0.463163 0.523240 -0.119053
C94   C     C_3   0.270772 0.463014 0.476991 -0.119086
C95   C     C_3   0.270797 0.537967 0.478695 -0.119330
C96   C     C_1   0.499976 0.500006 0.679043 -0.043707
C97   C     C_3   0.729194 0.538105 0.521065 -0.119359
C98   C     C_1   0.999997 0.228293 0.500000 -0.004448
C99   C     C_1   0.500000 0.728293 0.000001 -0.004407
C100  C     C_1   0.999998 0.178049 0.500000 -0.038110
C101  C     C_1   0.500000 0.678049 0.000000 -0.038092
C102  C     C_1   0.999999 0.135673 0.500000 -0.038257
C103  C     C_1   0.500000 0.635673 0.000000 -0.038247
C104  C     C_3   0.270567 0.000630 0.043568 -0.143186
C105  C     C_3   0.729433 0.000657 0.956433 -0.143186
C106  C     C_3   0.770567 0.501265 0.543554 -0.143182
C107  C     C_1   0.500024 0.500008 0.320957 -0.043708
C108  C     C_3   0.229433 0.500983 0.456439 -0.143184
C109  C     C_3   0.310802 0.999991 0.000243 0.039310
C110  C     C_3   0.689198 0.999992 0.999757 0.039310
C111  C     C_3   0.810802 0.500032 0.500242 0.039309
C112  C     C_3   0.189198 0.500014 0.499757 0.039310
C113  C     C_3   0.270044 0.962705 0.979528 -0.001919
C114  C     C_3   0.729955 0.962694 0.020451 -0.001915
C115  C     C_3   0.729967 0.036627 0.021593 -0.002164
C116  C     C_3   0.270033 0.036639 0.978428 -0.002160
C117  C     C_3   0.770066 0.462447 0.480052 -0.001797
C118  C     C_1   0.000010 0.000004 0.229292 -0.003639
C119  C     C_3   0.229944 0.462561 0.520183 -0.001851
C120  C     C_3   0.229978 0.536484 0.521857 -0.002228
C121  C     C_3   0.770013 0.536358 0.477913 -0.002283
C122  C     C_3   0.228910 0.999339 0.956952 -0.102303
C123  C     C_3   0.771090 0.999314 0.043048 -0.102302
C124  C     C_3   0.728911 0.498744 0.456964 -0.102310
C125  C     C_3   0.271089 0.499009 0.543043 -0.102307
C126  C     C_3   0.189126 0.999985 0.000490 0.024804
C127  C     C_3   0.810874 0.999986 0.999510 0.024804
C128  C     C_3   0.689126 0.499992 0.500488 0.024806
Cu1   Cu    Cu3+1 0.000000 0.957510 0.000000 0.914470
Cu2   Cu    Cu3+1 0.937230 0.999990 0.500000 0.942033
Cu3   Cu    Cu3+1 0.562770 0.499990 0.000000 0.942033
Cu4   Cu    Cu3+1 0.437230 0.499990 0.000000 0.942033
Cu5   Cu    Cu3+1 0.500000 0.457510 0.500000 0.914420
Cu6   Cu    Cu3+1 0.000000 0.042470 0.000000 0.914633
Cu7   Cu    Cu3+1 0.500000 0.542470 0.500000 0.914687
Cu8   Cu    Cu3+1 0.500000 0.999950 0.957510 0.909921
Cu9   Cu    Cu3+1 0.500000 0.999950 0.042490 0.909921
Cu10  Cu    Cu3+1 0.000000 0.499950 0.457510 0.909919
Cu11  Cu    Cu3+1 0.000000 0.499950 0.542490 0.909918
Cu12  Cu    Cu3+1 0.062770 0.999990 0.500000 0.942034
H1    H     H_    0.288747 0.001160 0.078886 0.125272
H2    H     H_    0.288964 0.432783 0.458671 0.115642
H3    H     H_    0.288993 0.568990 0.461752 0.116185
H4    H     H_    0.710994 0.569231 0.537814 0.116261
H5    H     H_    0.210554 0.998811 0.921677 0.095777
H6    H     H_    0.789446 0.998765 0.078323 0.095777
H7    H     H_    0.710556 0.497714 0.421698 0.095784
H8    H     H_    0.289445 0.498202 0.578313 0.095780
H9    H     H_    0.296395 0.856691 0.886146 0.155430
H10   H     H_    0.297532 0.827178 0.940223 0.158249
H11   H     H_    0.228830 0.825256 0.904905 0.147056
H12   H     H_    0.711253 0.001208 0.921115 0.125271
H13   H     H_    0.213474 0.878747 0.969197 0.167699
H14   H     H_    0.212429 0.908173 0.915393 0.165483
H15   H     H_    0.324447 0.930973 0.926537 0.155678
H16   H     H_    0.325599 0.901535 0.980384 0.143876
H17   H     H_    0.703598 0.856625 0.113773 0.155431
H18   H     H_    0.702461 0.827144 0.059679 0.158251
H19   H     H_    0.771162 0.825199 0.094997 0.147052
H20   H     H_    0.786522 0.878729 0.030736 0.167700
H21   H     H_    0.787567 0.908123 0.084557 0.165484
H22   H     H_    0.675550 0.930931 0.073423 0.155670
H23   H     H_    0.788746 0.502301 0.578862 0.125260
H24   H     H_    0.674398 0.901525 0.019560 0.143876
H25   H     H_    0.702680 0.170919 0.065028 0.158118
H26   H     H_    0.703883 0.139763 0.118177 0.155319
H27   H     H_    0.771446 0.171721 0.100323 0.147148
H28   H     H_    0.787745 0.089157 0.087286 0.165379
H29   H     H_    0.786630 0.120215 0.034409 0.167665
H30   H     H_    0.674475 0.097829 0.022625 0.143916
H31   H     H_    0.675675 0.066779 0.075560 0.156096
H32   H     H_    0.297327 0.170956 0.935069 0.158120
H33   H     H_    0.296125 0.139832 0.881903 0.155319
H34   H     H_    0.211254 0.501794 0.421125 0.125266
H35   H     H_    0.228562 0.171780 0.899774 0.147144
H36   H     H_    0.212260 0.089209 0.912763 0.165381
H37   H     H_    0.213374 0.120235 0.965658 0.167666
H38   H     H_    0.325528 0.097840 0.977431 0.143915
H39   H     H_    0.324328 0.066821 0.924478 0.156087
H40   H     H_    0.796582 0.355139 0.388179 0.155483
H41   H     H_    0.797707 0.326394 0.442670 0.158309
H42   H     H_    0.729033 0.323935 0.407355 0.147025
H43   H     H_    0.713577 0.378326 0.470878 0.167711
H44   H     H_    0.712546 0.406988 0.416662 0.165526
H45   H     H_    0.211021 0.932459 0.040806 0.115738
H46   H     H_    0.824532 0.430004 0.427528 0.155482
H47   H     H_    0.825677 0.401322 0.481781 0.143873
H48   H     H_    0.203501 0.355824 0.612732 0.155459
H49   H     H_    0.202372 0.326737 0.558424 0.158284
H50   H     H_    0.271058 0.324517 0.593742 0.147037
H51   H     H_    0.286470 0.378510 0.529874 0.167705
H52   H     H_    0.287506 0.407513 0.583907 0.165505
H53   H     H_    0.175506 0.430432 0.572916 0.155569
H54   H     H_    0.174358 0.401413 0.518843 0.143877
H55   H     H_    0.202769 0.670468 0.566270 0.158080
H56   H     H_    0.788978 0.932483 0.959156 0.115732
H57   H     H_    0.203980 0.638926 0.619191 0.155289
H58   H     H_    0.271551 0.670995 0.601554 0.147162
H59   H     H_    0.287806 0.588525 0.587913 0.165353
H60   H     H_    0.286682 0.619967 0.535263 0.167654
H61   H     H_    0.174515 0.597692 0.523338 0.143926
H62   H     H_    0.175719 0.566262 0.576050 0.156188
H63   H     H_    0.797153 0.670070 0.432653 0.158052
H64   H     H_    0.795936 0.638194 0.379933 0.155265
H65   H     H_    0.728358 0.670359 0.397379 0.147175
H66   H     H_    0.712141 0.587973 0.411546 0.165330
H67   H     H_    0.788978 0.068708 0.961257 0.116100
H68   H     H_    0.713272 0.619746 0.463996 0.167644
H69   H     H_    0.825450 0.597569 0.476042 0.143944
H70   H     H_    0.824243 0.565812 0.423526 0.156268
H71   H     H_    0.211023 0.068685 0.038782 0.116094
H72   H     H_    0.711049 0.433045 0.541748 0.115562
O1    O     O_R   0.000000 0.964120 0.061970 -0.488181
O2    O     O_R   0.000000 0.035860 0.938050 -0.488054
O3    O     O_R   0.500000 0.535860 0.561950 -0.488027
O4    O     O_R   0.500000 0.535860 0.438050 -0.488043
O5    O     O_R   0.091580 0.964120 0.000000 -0.506776
O6    O     O_R   0.908420 0.964120 0.000000 -0.506776
O7    O     O_R   0.591580 0.464120 0.500000 -0.506764
O8    O     O_R   0.408420 0.464120 0.500000 -0.506769
O9    O     O_R   0.091590 0.035860 0.000000 -0.506796
O10   O     O_R   0.908410 0.035860 0.000000 -0.506796
O11   O     O_R   0.591590 0.535860 0.500000 -0.506806
O12   O     O_R   0.000000 0.964120 0.938030 -0.488182
O13   O     O_R   0.408410 0.535860 0.500000 -0.506802
O14   O     O_R   0.500000 0.061920 0.964120 -0.487888
O15   O     O_R   0.500000 0.061920 0.035880 -0.487889
O16   O     O_R   0.000000 0.561920 0.464120 -0.487930
O17   O     O_R   0.000000 0.561920 0.535880 -0.487913
O18   O     O_R   0.408440 0.999940 0.964130 -0.513700
O19   O     O_R   0.591560 0.999940 0.035870 -0.513699
O20   O     O_R   0.591560 0.999940 0.964130 -0.503266
O21   O     O_R   0.408440 0.999940 0.035870 -0.503266
O22   O     O_R   0.908440 0.499940 0.464130 -0.513701
O23   O     O_R   0.500000 0.464120 0.561970 -0.488208
O24   O     O_R   0.091560 0.499940 0.535870 -0.513699
O25   O     O_R   0.091560 0.499940 0.464130 -0.503265
O26   O     O_R   0.908440 0.499940 0.535870 -0.503265
O27   O     O_R   0.500000 0.937960 0.964120 -0.487824
O28   O     O_R   0.500000 0.937960 0.035880 -0.487822
O29   O     O_R   0.000000 0.437960 0.464120 -0.487781
O30   O     O_R   0.000000 0.437960 0.535880 -0.487802
O31   O     O_R   0.053020 0.061970 0.500000 -0.483867
O32   O     O_R   0.946980 0.061970 0.500000 -0.483872
O33   O     O_R   0.553020 0.561970 0.000000 -0.483866
O34   O     O_R   0.500000 0.464120 0.438030 -0.488195
O35   O     O_R   0.446980 0.561970 0.000000 -0.483866
O36   O     O_R   0.053020 0.999990 0.438010 -0.483447
O37   O     O_R   0.946980 0.999990 0.561990 -0.483447
O38   O     O_R   0.946980 0.999990 0.438010 -0.484123
O39   O     O_R   0.053020 0.999990 0.561990 -0.484123
O40   O     O_R   0.553020 0.499990 0.938010 -0.483447
O41   O     O_R   0.446980 0.499990 0.061990 -0.483446
O42   O     O_R   0.446980 0.499990 0.938010 -0.484124
O43   O     O_R   0.553020 0.499990 0.061990 -0.484124
O44   O     O_R   0.053000 0.938010 0.500000 -0.483803
O45   O     O_R   0.947000 0.938010 0.500000 -0.483798
O46   O     O_R   0.553000 0.438010 0.000000 -0.483804
O47   O     O_R   0.447000 0.438010 0.000000 -0.483805
O48   O     O_R   0.000000 0.035860 0.061950 -0.488056

loop_
_geom_bond_atom_site_label_1
_geom_bond_atom_site_label_2
_ccdc_geom_bond_type
C2    C35   T    
C34   C118  T    
C68   O46   A    
C105  C110  S    
C45   C60   S    
C95   H3    S    
C55   O30   A    
C27   H49   S    
C111  C121  S    
C91   C105  S    
C19   C20   S    
C84   C87   S    
C65   O11   A    
Cu9   O19   S    
Cu2   Cu12  S    
Cu2   O45   S    
Cu10  Cu11  S    
C97   C121  S    
C21   H46   S    
C67   O44   A    
Cu8   O20   S    
C33   H65   S    
C26   C27   S    
Cu5   O7    S    
C91   C127  S    
C14   H18   S    
C51   O22   A    
C28   H61   S    
C49   C109  S    
C28   C29   S    
C117  C124  S    
C76   C78   S    
C54   O27   A    
C23   H41   S    
C17   H26   S    
C72   C75   S    
C10   H9    S    
Cu5   O23   S    
C104  C109  S    
C93   C106  S    
C86   C88   S    
C122  H5    S    
C20   H35   S    
C44   C59   S    
C15   C16   S    
C6    C52   S    
C50   C110  S    
Cu10  O25   S    
C18   C19   S    
C42   C46   T    
C62   O9    A    
C62   C126  S    
C37   C42   S    
C69   C71   T    
C11   C114  S    
C19   H36   S    
C47   C69   S    
C121  C124  S    
C49   O21   A    
Cu3   O33   S    
C109  C116  S    
C12   H21   S    
Cu2   O32   S    
C16   H29   S    
Cu7   O3    S    
C113  C122  S    
Cu7   O4    S    
C16   C17   S    
Cu6   O10   S    
C108  H34   S    
C59   O37   A    
C21   C117  S    
C90   C127  S    
C50   O20   A    
Cu12  O44   S    
C27   H50   S    
C51   C111  S    
C63   O4    A    
C32   H68   S    
Cu7   O13   S    
C9    C10   S    
C110  C114  S    
C4    C74   T    
C43   C58   S    
C109  C113  S    
Cu5   O34   S    
C106  C111  S    
C1    O48   A    
C5    C85   T    
C64   C127  S    
Cu2   O38   S    
C8    H15   S    
C56   O32   A    
C9    H13   S    
C61   O43   A    
Cu12  O36   S    
C21   C22   S    
Cu11  O26   S    
Cu1   O1    S    
C22   H43   S    
C48   O17   A    
Cu12  O39   S    
C93   C117  S    
Cu1   O12   S    
C57   C103  S    
C25   C119  S    
C100  C102  T    
C32   H66   S    
C18   C116  S    
C21   H47   S    
Cu4   O47   S    
C87   C99   T    
C89   C126  S    
C77   C79   S    
C40   C45   T    
C74   C118  S    
C124  H7    S    
C89   C113  S    
Cu5   O8    S    
C115  C123  S    
C13   C96   S    
C15   H31   S    
C94   H2    S    
C65   C128  S    
C36   C40   S    
C31   C121  S    
C13   C36   T    
C57   O33   A    
Cu1   O5    S    
C53   O25   A    
C112  C120  S    
C26   H52   S    
C120  C125  S    
C8    C9    S    
C2    C85   S    
C14   H17   S    
C29   H59   S    
C25   C26   S    
Cu8   O18   S    
C57   O35   A    
C33   H63   S    
C11   H22   S    
C108  C112  S    
C15   H30   S    
C11   H24   S    
C122  C126  S    
C35   C39   S    
C75   C76   T    
C62   O5    A    
C97   H4    S    
C29   C30   S    
Cu6   O9    S    
C10   H11   S    
C68   O47   A    
Cu3   O46   S    
C94   C119  S    
C49   O18   A    
Cu8   O14   S    
C20   H33   S    
C31   H69   S    
C123  H6    S    
C11   C12   S    
C29   H60   S    
C94   C108  S    
C90   H56   S    
C83   C86   T    
C93   H72   S    
C60   O42   A    
C24   C37   T    
C78   C80   T    
C64   O10   A    
C50   O19   A    
Cu11  O17   S    
C24   C107  S    
C106  H23   S    
C12   H20   S    
Cu10  O16   S    
C92   C116  S    
C53   O24   A    
C7    C63   S    
C23   H40   S    
C67   O45   A    
Cu10  O29   S    
C66   O8    A    
C8    C113  S    
C23   H42   S    
C114  C123  S    
Cu4   O41   S    
C53   C112  S    
C20   H32   S    
C56   O31   A    
C12   C14   S    
C9    H14   S    
C6    C96   T    
C104  H1    S    
C89   C104  S    
C28   C120  S    
C15   C115  S    
C58   O38   A    
C3    C66   S    
C31   H70   S    
C68   C81   S    
Cu3   O43   S    
Cu9   O21   S    
Cu3   Cu4   S    
C119  C125  S    
C123  C127  S    
C54   C82   S    
C46   C61   S    
C25   H53   S    
Cu3   O40   S    
C54   O28   A    
C65   O7    A    
C116  C122  S    
Cu2   O37   S    
C64   O6    A    
C63   O34   A    
C5    C41   S    
C61   O41   A    
C55   O29   A    
C30   H58   S    
C34   C38   S    
C89   H45   S    
C31   C32   S    
C67   C80   S    
C90   C105  S    
C48   C70   S    
Cu8   Cu9   S    
Cu11  O30   S    
C125  H8    S    
C92   C126  S    
C18   H39   S    
C112  C119  S    
C91   H67   S    
C26   H51   S    
C3    C125  S    
Cu4   O35   S    
C39   C44   T    
Cu4   O42   S    
C95   C120  S    
C17   H27   S    
Cu7   O11   S    
C33   H64   S    
C82   C84   T    
Cu6   O2    S    
C101  C103  T    
C124  C128  S    
C14   H19   S    
C111  C117  S    
Cu12  O31   S    
C19   H37   S    
C32   C33   S    
C1    C4    S    
Cu9   O28   S    
C58   O36   A    
C51   O26   A    
C93   C128  S    
C28   H62   S    
C38   C43   T    
Cu9   O15   S    
C30   H55   S    
C17   H25   S    
C10   H10   S    
C59   O39   A    
C41   O2    A    
C47   O14   A    
C16   H28   S    
C48   O16   A    
Cu1   O6    S    
C66   O13   A    
C22   H44   S    
C3    C95   S    
C91   C115  S    
C3    C94   S    
C7    C107  T    
C27   H48   S    
C90   C114  S    
C79   C81   T    
C8    H16   S    
C98   C100  S    
C41   O12   A    
Cu10  O22   S    
C95   C108  S    
C92   C104  S    
C56   C102  S    
Cu1   Cu6   S    
C30   H57   S    
C47   O15   A    
C18   H38   S    
Cu6   O48   S    
C52   O3    A    
Cu8   O27   S    
C71   C73   S    
Cu11  O24   S    
C60   O40   A    
Cu5   Cu7   S    
C73   C77   T    
C22   C23   S    
C92   H71   S    
C70   C72   T    
C105  H12   S    
C97   C128  S    
C55   C83   S    
C110  C115  S    
C99   C101  S    
C88   C98   T    
C25   H54   S    
C52   O23   A    
C1    O1    A    
C97   C106  S    
