data_mof_unit_9434.cif
_audit_creation_date              2012-12-11T14:40:04-0500
_audit_creation_method            fapswitch 2.2
_symmetry_space_group_name_H-M    P1
_symmetry_Int_Tables_number       1
_space_group_crystal_system       triclinic
_cell_length_a                    19.591826
_cell_length_b                    11.168267
_cell_length_c                    19.407217
_cell_angle_alpha                 90.015916
_cell_angle_beta                  96.406385
_cell_angle_gamma                 90.124918
_cell_volume                      4219.90247796

loop_
_atom_site_label
_atom_site_type_symbol
_atom_type_description
_atom_site_fract_x
_atom_site_fract_y
_atom_site_fract_z
_atom_type_partial_charge
C1    C     C_R   0.725297 0.954723 0.360897 0.553247
C2    C     C_R   0.274145 0.953020 0.639556 0.542242
C3    C     C_R   0.225302 0.454712 0.360894 0.553208
C4    C     C_R   0.774147 0.453024 0.639554 0.542241
C5    C     C_3   0.683459 0.293440 0.502665 -0.248743
C6    C     C_3   0.308245 0.290424 0.496369 -0.236107
C7    C     C_3   0.183476 0.793396 0.502673 -0.248661
C8    C     C_3   0.808206 0.790422 0.496370 -0.236029
C9    C     C_3   0.724640 0.333593 0.442301 0.006169
C10   C     C_3   0.273058 0.341552 0.558422 0.002847
C11   C     C_3   0.224639 0.833592 0.442303 0.006149
C12   C     C_3   0.773046 0.841591 0.558428 0.002832
C13   C     C_3   0.718212 0.463832 0.465628 0.288027
C14   C     C_3   0.286972 0.469302 0.533796 0.287564
C15   C     C_3   0.218181 0.963822 0.465636 0.288043
C16   C     C_3   0.786986 0.969330 0.533797 0.287557
C17   C     C_3   0.788822 0.454599 0.509647 -0.142870
C18   C     C_3   0.214832 0.472163 0.492125 -0.142418
C19   C     C_3   0.288797 0.954640 0.509646 -0.142850
C20   C     C_3   0.714841 0.972240 0.492136 -0.142431
C21   C     C_3   0.792790 0.322112 0.489397 0.272618
C22   C     C_3   0.202733 0.342910 0.514283 0.256154
C23   C     C_3   0.292798 0.822162 0.489393 0.272585
C24   C     C_3   0.702713 0.843001 0.514304 0.256081
C25   C     C_3   0.753143 0.280228 0.549490 -0.111374
C26   C     C_3   0.236245 0.290009 0.453335 -0.106564
C27   C     C_3   0.253169 0.780235 0.549490 -0.111357
C28   C     C_3   0.736199 0.790062 0.453353 -0.106564
C29   C     C_3   0.750571 0.411775 0.570209 -0.024494
C30   C     C_3   0.247478 0.418165 0.431027 -0.010432
C31   C     C_3   0.250565 0.911776 0.570211 -0.024535
C32   C     C_3   0.747463 0.918200 0.431035 -0.010389
C33   C     C_3   0.526144 0.262179 0.972280 0.217506
C34   C     C_3   0.474363 0.262438 0.027816 0.218645
C35   C     C_3   0.026145 0.762180 0.972282 0.217503
C36   C     C_3   0.974363 0.762437 0.027817 0.218651
C37   C     C_3   0.566557 0.160943 0.011896 0.250725
C38   C     C_3   0.433325 0.161658 0.988132 0.250734
C39   C     C_3   0.066557 0.660944 0.011896 0.250727
C40   C     C_3   0.933325 0.661658 0.988132 0.250732
C41   C     C_3   0.515662 0.164279 0.067754 -0.018405
C42   C     C_3   0.484241 0.164485 0.932255 -0.018830
C43   C     C_3   0.015662 0.664277 0.067754 -0.018401
C44   C     C_3   0.984242 0.664487 0.932255 -0.018836
C45   C     C_R   0.535810 0.179682 0.337978 0.536158
C46   C     C_R   0.464397 0.179785 0.662168 0.532858
C47   C     C_R   0.035816 0.679682 0.337982 0.536157
C48   C     C_R   0.964403 0.679784 0.662173 0.532845
C49   C     C_3   0.474885 0.064511 0.028405 -0.137093
C50   C     C_3   0.524424 0.064255 0.971509 -0.137276
C51   C     C_3   0.974885 0.564510 0.028404 -0.137092
C52   C     C_3   0.024424 0.564257 0.971509 -0.137277
C53   C     C_1   0.766444 0.438755 0.909034 0.023077
C54   C     C_1   0.233580 0.438649 0.090967 0.023622
C55   C     C_1   0.266444 0.938754 0.909034 0.023080
C56   C     C_1   0.733580 0.938650 0.090967 0.023623
C57   C     C_1   0.759593 0.437256 0.043607 -0.008952
C58   C     C_1   0.240545 0.437273 0.956413 -0.008998
C59   C     C_1   0.259593 0.937256 0.043606 -0.008948
C60   C     C_1   0.740545 0.937274 0.956412 -0.008998
C61   C     C_1   0.762203 0.437645 0.970786 0.027455
C62   C     C_1   0.237877 0.437574 0.029224 0.027420
C63   C     C_1   0.262203 0.937645 0.970786 0.027460
C64   C     C_1   0.737877 0.937575 0.029224 0.027418
C65   C     C_1   0.753897 0.420711 0.104359 -0.029138
C66   C     C_1   0.246237 0.420806 0.895651 -0.030275
C67   C     C_1   0.253897 0.920711 0.104359 -0.029139
C68   C     C_1   0.746237 0.920806 0.895651 -0.030275
C69   C     C_R   0.722668 0.307239 0.367231 0.593125
C70   C     C_R   0.276693 0.309462 0.632339 0.587149
C71   C     C_R   0.222668 0.807240 0.367231 0.593098
C72   C     C_R   0.776690 0.809473 0.632338 0.587109
C73   C     C_R   0.721703 0.955170 0.162323 0.532379
C74   C     C_R   0.278307 0.955259 0.837671 0.528475
C75   C     C_R   0.221703 0.455170 0.162323 0.532366
C76   C     C_R   0.778307 0.455259 0.837671 0.528471
C77   C     C_R   0.533699 0.178016 0.140560 0.564856
C78   C     C_R   0.466277 0.178151 0.859447 0.563242
C79   C     C_R   0.033699 0.678016 0.140560 0.564864
C80   C     C_R   0.966278 0.678152 0.859446 0.563226
C81   C     C_R   0.740034 0.370509 0.170023 0.521796
C82   C     C_R   0.260003 0.370643 0.829958 0.520281
C83   C     C_R   0.240034 0.870509 0.170023 0.521786
C84   C     C_R   0.760004 0.870644 0.829958 0.520274
C85   C     C_1   0.485943 0.168280 0.595037 -0.051466
C86   C     C_1   0.514824 0.168028 0.405344 -0.041810
C87   C     C_1   0.985968 0.668279 0.595049 -0.051456
C88   C     C_1   0.014849 0.668030 0.405357 -0.041817
C89   C     C_1   0.504844 0.159829 0.464936 -0.105845
C90   C     C_1   0.496191 0.160004 0.535529 -0.111349
C91   C     C_1   0.004881 0.659832 0.464951 -0.105801
C92   C     C_1   0.996229 0.660008 0.535545 -0.111264
C93   C     C_3   0.681035 0.424832 0.526967 0.266080
C94   C     C_3   0.318752 0.420362 0.471300 0.268354
C95   C     C_3   0.181020 0.924781 0.526978 0.266145
C96   C     C_3   0.818742 0.920349 0.471297 0.268363
Cr1   Cr    Cr6+3 0.765830 0.160660 0.268180 1.027108
Cr2   Cr    Cr6+3 0.234170 0.160660 0.731820 1.012453
Cr3   Cr    Cr6+3 0.265830 0.660660 0.268180 1.027125
Cr4   Cr    Cr6+3 0.734170 0.660660 0.731820 1.012489
Cr5   Cr    Cr6+3 0.612110 0.009150 0.248770 0.997827
Cr6   Cr    Cr6+3 0.387890 0.009150 0.751230 0.995103
Cr7   Cr    Cr6+3 0.112110 0.509150 0.248770 0.997838
Cr8   Cr    Cr6+3 0.887890 0.509150 0.751230 0.995134
Cr9   Cr    Cr6+3 0.615930 0.324050 0.248450 0.967153
Cr10  Cr    Cr6+3 0.384070 0.324050 0.751550 0.966786
Cr11  Cr    Cr6+3 0.115930 0.824050 0.248450 0.967167
Cr12  Cr    Cr6+3 0.884070 0.824050 0.751550 0.966773
H1    H     H_    0.639218 0.231462 0.499371 0.112754
H2    H     H_    0.347243 0.218598 0.499415 0.110909
H3    H     H_    0.139251 0.731385 0.499389 0.112816
H4    H     H_    0.847183 0.718562 0.499413 0.110901
H5    H     H_    0.331283 0.020646 0.514604 0.086970
H6    H     H_    0.676714 0.045188 0.486968 0.086751
H7    H     H_    0.831328 0.520568 0.514606 0.086955
H8    H     H_    0.176689 0.545086 0.486954 0.086743
H9    H     H_    0.759775 0.222593 0.595620 0.190130
H10   H     H_    0.218098 0.239404 0.406933 0.199155
H11   H     H_    0.259826 0.722643 0.595636 0.190151
H12   H     H_    0.717996 0.739472 0.406965 0.199171
H13   H     H_    0.452737 0.984499 0.051712 0.148226
H14   H     H_    0.546108 0.984026 0.948127 0.147882
H15   H     H_    0.952738 0.484497 0.051710 0.148226
H16   H     H_    0.046109 0.484028 0.948126 0.147883
O1    O     O_R   0.783230 0.287800 0.346510 -0.476257
O2    O     O_R   0.216770 0.287800 0.653490 -0.471194
O3    O     O_R   0.283230 0.787800 0.346510 -0.476207
O4    O     O_R   0.716770 0.787800 0.653490 -0.471161
O5    O     O_R   0.554500 0.081650 0.170370 -0.507061
O6    O     O_R   0.445500 0.081650 0.829630 -0.507342
O7    O     O_R   0.054500 0.581650 0.170370 -0.507062
O8    O     O_R   0.945500 0.581650 0.829630 -0.507340
O9    O     O_R   0.545430 0.285140 0.163100 -0.526101
O10   O     O_R   0.454570 0.285140 0.836900 -0.527358
O11   O     O_R   0.045430 0.785140 0.163100 -0.526090
O12   O     O_R   0.954570 0.785140 0.836900 -0.527376
O13   O     O_R   0.677850 0.374730 0.185500 -0.520290
O14   O     O_R   0.322150 0.374730 0.814500 -0.517628
O15   O     O_R   0.177850 0.874730 0.185500 -0.520282
O16   O     O_R   0.822150 0.874730 0.814500 -0.517624
O17   O     O_3   0.664630 0.164620 0.255130 -0.301816
O18   O     O_3   0.335370 0.164620 0.744870 -0.294823
O19   O     O_3   0.164630 0.664620 0.255130 -0.301815
O20   O     O_3   0.835370 0.664620 0.744870 -0.294817
O21   O     O_R   0.760130 0.037060 0.338610 -0.459384
O22   O     O_R   0.239870 0.037060 0.661390 -0.475334
O23   O     O_R   0.260130 0.537060 0.338610 -0.459395
O24   O     O_R   0.739870 0.537060 0.661390 -0.475344
O25   O     O_R   0.666620 0.921370 0.332440 -0.543548
O26   O     O_R   0.333380 0.921370 0.667560 -0.530343
O27   O     O_R   0.166620 0.421370 0.332440 -0.543514
O28   O     O_R   0.833380 0.421370 0.667560 -0.530291
O29   O     O_R   0.557170 0.082420 0.312350 -0.492861
O30   O     O_R   0.442830 0.082420 0.687650 -0.495762
O31   O     O_R   0.057170 0.582420 0.312350 -0.492855
O32   O     O_R   0.942830 0.582420 0.687650 -0.495738
O33   O     O_R   0.548310 0.285980 0.316250 -0.542858
O34   O     O_R   0.451690 0.285980 0.683750 -0.546912
O35   O     O_R   0.048310 0.785980 0.316250 -0.542867
O36   O     O_R   0.951690 0.785980 0.683750 -0.546938
O37   O     O_R   0.680520 0.375500 0.327470 -0.483200
O38   O     O_R   0.319480 0.375500 0.672530 -0.489209
O39   O     O_R   0.180520 0.875500 0.327470 -0.483209
O40   O     O_R   0.819480 0.875500 0.672530 -0.489238
O41   O     O_R   0.780350 0.286970 0.193350 -0.522379
O42   O     O_R   0.219650 0.286970 0.806650 -0.524430
O43   O     O_R   0.280350 0.786970 0.193350 -0.522381
O44   O     O_R   0.719650 0.786970 0.806650 -0.524428
O45   O     O_R   0.757460 0.036290 0.196640 -0.518619
O46   O     O_R   0.242540 0.036290 0.803360 -0.522365
O47   O     O_R   0.257460 0.536290 0.196640 -0.518624
O48   O     O_R   0.742540 0.536290 0.803360 -0.522364
O49   O     O_R   0.663740 0.920540 0.179290 -0.505849
O50   O     O_R   0.336260 0.920540 0.820710 -0.505110
O51   O     O_R   0.163740 0.420540 0.179290 -0.505849
O52   O     O_R   0.836260 0.420540 0.820710 -0.505108
O53   O     O_3   0.627216 0.491947 0.550411 -0.554780
C97   C     C_3   0.593240 0.423919 0.597011 -0.102891
H17   H     H_    0.554424 0.367180 0.567300 0.121004
H18   H     H_    0.565838 0.485815 0.629027 0.134650
H19   H     H_    0.628552 0.368774 0.633045 0.116909
O54   O     O_3   0.371323 0.481893 0.441727 -0.540659
C98   C     C_3   0.424193 0.403101 0.430679 -0.127915
H20   H     H_    0.404375 0.325140 0.398706 0.136659
H21   H     H_    0.451362 0.375588 0.481271 0.116622
H22   H     H_    0.461706 0.450972 0.401817 0.139508
O55   O     O_3   0.127187 0.991850 0.550426 -0.554842
C99   C     C_3   0.093255 0.923847 0.597076 -0.102764
H23   H     H_    0.054224 0.867463 0.567407 0.121041
H24   H     H_    0.066110 0.985786 0.629297 0.134715
H25   H     H_    0.128548 0.868338 0.632923 0.116689
O56   O     O_3   0.871317 0.981839 0.441706 -0.540673
C100  C     C_3   0.924172 0.903013 0.430663 -0.127952
H26   H     H_    0.904339 0.825039 0.398710 0.136667
H27   H     H_    0.951342 0.875522 0.481258 0.116605
H28   H     H_    0.961686 0.950848 0.401786 0.139520
O57   O     O_3   0.695244 0.550996 0.416034 -0.567083
C101  C     C_3   0.622338 0.557751 0.406245 0.029723
H29   H     H_    0.603882 0.615039 0.446981 0.212509
H30   H     H_    0.597502 0.468014 0.407326 0.156799
C102  C     C_3   0.598232 0.615374 0.336574 -0.370703
H31   H     H_    0.621251 0.570388 0.293800 0.193128
H32   H     H_    0.541449 0.608484 0.326363 0.071250
H33   H     H_    0.612443 0.711374 0.337167 0.161178
O58   O     O_3   0.316623 0.556942 0.580175 -0.557709
C103  C     C_3   0.389062 0.548245 0.590892 0.044683
H34   H     H_    0.412162 0.592562 0.547976 0.204453
H35   H     H_    0.407118 0.453890 0.594963 0.146802
C104  C     C_3   0.415134 0.613618 0.657500 -0.362163
H36   H     H_    0.392088 0.574641 0.702178 0.181009
H37   H     H_    0.471829 0.605761 0.667286 0.061051
H38   H     H_    0.401411 0.709883 0.652832 0.171513
O59   O     O_3   0.195192 0.050993 0.416055 -0.567086
C105  C     C_3   0.122289 0.057711 0.406265 0.029795
H39   H     H_    0.103820 0.114957 0.447011 0.212543
H40   H     H_    0.097469 0.967956 0.407322 0.156787
C106  C     C_3   0.098185 0.115377 0.336608 -0.370701
H41   H     H_    0.121199 0.070406 0.293825 0.193079
H42   H     H_    0.041402 0.108504 0.326396 0.071233
H43   H     H_    0.112410 0.211373 0.337222 0.161242
O60   O     O_3   0.816666 0.056965 0.580165 -0.557651
C107  C     C_3   0.889102 0.048194 0.590880 0.044758
H44   H     H_    0.912214 0.092482 0.547963 0.204382
H45   H     H_    0.907127 0.953821 0.594950 0.146780
C108  C     C_3   0.915197 0.113545 0.657488 -0.362117
H46   H     H_    0.892141 0.074593 0.702166 0.181003
H47   H     H_    0.971889 0.105629 0.667270 0.061045
H48   H     H_    0.901504 0.209824 0.652823 0.171470
O61   O     O_3   0.849818 0.256334 0.471344 -0.494645
C109  C     C_3   0.902645 0.333996 0.455158 0.011446
H49   H     H_    0.928131 0.375613 0.503351 0.118314
H50   H     H_    0.882821 0.405885 0.418482 0.151960
C110  C     C_3   0.955503 0.262561 0.420609 -0.344667
H51   H     H_    0.931301 0.223586 0.371137 0.176919
H52   H     H_    0.998433 0.321968 0.409418 0.102655
H53   H     H_    0.976306 0.188725 0.454937 0.155090
O62   O     O_3   0.141979 0.290624 0.533998 -0.512611
C111  C     C_3   0.098698 0.378736 0.557818 0.013712
H54   H     H_    0.069707 0.423934 0.512694 0.126807
H55   H     H_    0.127743 0.447066 0.591310 0.146355
C112  C     C_3   0.048021 0.318883 0.600949 -0.352182
H56   H     H_    0.075758 0.279249 0.648512 0.173602
H57   H     H_    0.010776 0.385920 0.616312 0.108860
H58   H     H_    0.019648 0.246609 0.570746 0.148729
O63   O     O_3   0.349841 0.756430 0.471335 -0.494703
C113  C     C_3   0.402651 0.834133 0.455158 0.011415
H59   H     H_    0.428121 0.875768 0.503353 0.118343
H60   H     H_    0.382813 0.906006 0.418477 0.151961
C114  C     C_3   0.455535 0.762737 0.420621 -0.344677
H61   H     H_    0.431354 0.723761 0.371140 0.176860
H62   H     H_    0.498460 0.822172 0.409447 0.102739
H63   H     H_    0.476342 0.688903 0.454948 0.155141
O64   O     O_3   0.641948 0.790761 0.534022 -0.512632
C115  C     C_3   0.598705 0.878899 0.557876 0.013707
H64   H     H_    0.569722 0.924157 0.512769 0.126836
H65   H     H_    0.627782 0.947176 0.591379 0.146351
C116  C     C_3   0.548016 0.819066 0.601000 -0.352178
H66   H     H_    0.575751 0.779308 0.648528 0.173637
H67   H     H_    0.510821 0.886143 0.616420 0.108947
H68   H     H_    0.519584 0.746888 0.570769 0.148674
O65   O     O_3   0.636829 0.139220 0.013506 -0.570637
C117  C     C_3   0.670802 0.206053 0.066093 -0.056637
H69   H     H_    0.664096 0.166342 0.117019 0.159252
H70   H     H_    0.651614 0.299635 0.062861 0.152030
H71   H     H_    0.726254 0.202363 0.059747 0.139456
O66   O     O_3   0.362950 0.140680 0.986738 -0.570415
C118  C     C_3   0.329286 0.206768 0.933801 -0.056011
H72   H     H_    0.336106 0.166505 0.883047 0.159842
H73   H     H_    0.348644 0.300406 0.936854 0.152197
H74   H     H_    0.273784 0.202924 0.939928 0.140157
O67   O     O_3   0.136829 0.639220 0.013506 -0.570639
C119  C     C_3   0.170802 0.706052 0.066094 -0.056634
H75   H     H_    0.164096 0.666341 0.117019 0.159250
H76   H     H_    0.151614 0.799634 0.062863 0.152039
H77   H     H_    0.226254 0.702362 0.059748 0.139455
O68   O     O_3   0.862950 0.640680 0.986738 -0.570415
C120  C     C_3   0.829287 0.706769 0.933801 -0.056011
H78   H     H_    0.836106 0.666507 0.883047 0.159844
H79   H     H_    0.848644 0.800407 0.936855 0.152193
H80   H     H_    0.773784 0.702925 0.939928 0.140157
O69   O     O_3   0.567279 0.349075 0.943048 -0.546150
C121  C     C_3   0.532509 0.457805 0.927916 0.004138
H81   H     H_    0.548226 0.522492 0.970076 0.110860
H82   H     H_    0.475543 0.448747 0.921289 0.151835
C122  C     C_3   0.555435 0.510663 0.861853 -0.337410
H83   H     H_    0.544126 0.447919 0.817697 0.180554
H84   H     H_    0.528032 0.596173 0.849223 0.080830
H85   H     H_    0.611567 0.528629 0.869234 0.163087
O70   O     O_3   0.433828 0.349757 0.057236 -0.544527
C123  C     C_3   0.469073 0.458512 0.071706 0.003425
H86   H     H_    0.453549 0.522527 0.029229 0.110487
H87   H     H_    0.526002 0.449086 0.078338 0.151628
C124  C     C_3   0.446494 0.512761 0.137527 -0.334774
H88   H     H_    0.457818 0.450900 0.182041 0.184320
H89   H     H_    0.474135 0.598471 0.149536 0.081319
H90   H     H_    0.390395 0.530664 0.130227 0.163471
O71   O     O_3   0.067282 0.849082 0.943056 -0.546163
C125  C     C_3   0.032505 0.957802 0.927908 0.004149
H91   H     H_    0.048216 0.022508 0.970060 0.110857
H92   H     H_    0.975540 0.948736 0.921281 0.151837
C126  C     C_3   0.055433 0.010637 0.861839 -0.337397
H93   H     H_    0.044159 0.947852 0.817698 0.180572
H94   H     H_    0.028003 0.096110 0.849179 0.080820
H95   H     H_    0.111558 0.028663 0.869231 0.163050
O72   O     O_3   0.933831 0.849755 0.057240 -0.544521
C127  C     C_3   0.969074 0.958514 0.071701 0.003429
H96   H     H_    0.953547 0.022521 0.029222 0.110488
H97   H     H_    0.026003 0.949090 0.078330 0.151635
C128  C     C_3   0.946499 0.012774 0.137522 -0.334782
H98   H     H_    0.957829 0.950923 0.182038 0.184317
H99   H     H_    0.974138 0.098489 0.149522 0.081322
H100  H     H_    0.890399 0.030671 0.130225 0.163473

loop_
_geom_bond_atom_site_label_1
_geom_bond_atom_site_label_2
_ccdc_geom_bond_type
C80   O8    A    
C123  C124  S    
C51   H15   S    
Cr1   O41   S    
C126  H93   S    
Cr12  O40   S    
C121  H81   S    
C71   O39   A    
C99   H25   S    
Cr3   O19   S    
C19   H5    S    
O67   C119  S    
C4    O24   A    
C108  H48   S    
C9    C13   S    
O54   C98   S    
C115  H65   S    
C55   C74   S    
C11   C15   S    
C12   C16   S    
C119  H75   S    
C6    C94   S    
C40   C44   S    
C70   O2    A    
O63   C113  S    
C70   O38   A    
C41   C49   S    
Cr10  O18   S    
Cr3   O43   S    
C25   C29   S    
C111  H55   S    
C27   C31   S    
C51   C52   S    
C28   C32   S    
Cr4   O20   S    
C103  H34   S    
C17   C21   S    
C36   O72   S    
C19   C23   S    
C98   H20   S    
O61   C109  S    
C84   O44   A    
C66   C82   S    
C16   C20   S    
C127  H96   S    
C48   C87   S    
C77   O5    A    
C109  H50   S    
C78   O10   A    
C5    C25   S    
C10   C14   S    
C8    C28   S    
C125  H91   S    
Cr11  O19   S    
Cr12  O20   S    
Cr9   O9    S    
C126  H95   S    
Cr3   O23   S    
C56   C73   S    
Cr1   O21   S    
Cr6   O6    S    
Cr7   O19   S    
C39   C43   S    
C85   C90   T    
C57   C61   S    
C59   C63   S    
C115  C116  S    
C60   C64   S    
Cr8   O28   S    
C30   C94   S    
C37   C50   S    
C52   H16   S    
C9    C21   S    
C119  H77   S    
C11   C23   S    
C103  H35   S    
C122  H84   S    
C100  H26   S    
C40   O68   S    
C2    C31   S    
C101  H30   S    
C116  H67   S    
C2    O26   A    
C20   H6    S    
C3    O23   A    
Cr4   O48   S    
Cr5   O49   S    
C15   O59   S    
C97   H17   S    
Cr8   O52   S    
C47   O35   A    
C48   O36   A    
C114  H61   S    
C124  H88   S    
C13   O57   S    
C33   C42   S    
C74   O50   A    
O65   C117  S    
C118  H74   S    
C105  H40   S    
C46   O34   A    
C99   H24   S    
C112  H56   S    
C76   O48   A    
C59   C67   T    
C53   C61   T    
C55   C63   T    
C56   C64   T    
C110  H51   S    
C22   O62   S    
C44   C52   S    
C79   O7    A    
C120  H78   S    
Cr2   O18   S    
C102  H32   S    
C24   O64   S    
C39   O67   S    
C33   C34   S    
C128  H99   S    
C4    O28   A    
C16   C96   S    
C45   O33   A    
C28   H12   S    
C98   H22   S    
C91   C92   S    
C93   O53   S    
C107  C108  S    
C106  H41   S    
C81   O13   A    
C83   O43   A    
C5    C9    S    
O60   C107  S    
C88   C91   T    
C8    C12   S    
C100  H28   S    
C49   H13   S    
C104  H36   S    
C107  H45   S    
Cr2   O42   S    
C42   C50   S    
Cr11  O39   S    
O53   C97   S    
C33   O69   S    
Cr8   O8    S    
Cr9   O37   S    
C17   H7    S    
C20   C32   S    
C21   C25   S    
C113  H59   S    
C114  H63   S    
Cr4   O4    S    
C24   C28   S    
C118  H72   S    
C26   C30   S    
C117  H69   S    
C40   C51   S    
C12   C24   S    
C121  H82   S    
C13   C17   S    
C116  H68   S    
C96   O56   S    
C45   C86   S    
C78   O6    A    
C6    C26   S    
C108  H47   S    
Cr11  O15   S    
O57   C101  S    
C12   C72   S    
C110  H53   S    
Cr9   O13   S    
C54   C75   S    
Cr2   O46   S    
Cr10  O10   S    
O68   C120  S    
C121  C122  S    
C119  H76   S    
C49   C50   S    
C120  H80   S    
Cr6   O18   S    
Cr7   O7    S    
C113  C114  S    
Cr5   O5    S    
C58   C62   S    
C17   C29   S    
C35   C36   S    
C50   H14   S    
C19   C31   S    
C117  H71   S    
C83   O15   A    
C95   O55   S    
C38   C49   S    
O59   C105  S    
C10   C22   S    
C106  H43   S    
C15   C19   S    
C111  C112  S    
C9    C69   S    
C124  H90   S    
C8    H4    S    
C15   C95   S    
C41   C77   S    
C11   C71   S    
C104  H38   S    
C7    C27   S    
C123  H86   S    
O71   C125  S    
Cr11  O11   S    
C1    O21   A    
Cr9   O33   S    
C127  H97   S    
C1    O25   A    
Cr6   O30   S    
C4    C29   S    
Cr7   O27   S    
C34   O70   S    
C48   O32   A    
C69   O1    A    
C18   C22   S    
C87   C92   T    
C71   O3    A    
C16   O60   S    
C34   C41   S    
C125  H92   S    
C126  H94   S    
C46   O30   A    
C127  C128  S    
C75   O51   A    
C68   C84   S    
C26   H10   S    
C44   C80   S    
Cr1   O1    S    
C18   H8    S    
Cr3   O3    S    
C54   C62   T    
C128  H98   S    
C33   C37   S    
C13   C93   S    
C125  C126  S    
C23   O63   S    
C35   C39   S    
C122  H83   S    
C65   C81   S    
C76   O52   A    
C21   O61   S    
Cr7   O51   S    
C72   O40   A    
Cr1   O17   S    
Cr6   O26   S    
C10   C70   S    
Cr7   O31   S    
C53   C76   S    
C2    O22   A    
C73   O45   A    
C82   O42   A    
C111  H54   S    
C57   C65   T    
C86   C89   T    
C6    C10   S    
C97   H18   S    
Cr12  O12   S    
Cr6   O50   S    
C79   O11   A    
C80   O12   A    
C112  H58   S    
O55   C99   S    
C47   C88   S    
C29   C93   S    
C118  H73   S    
C43   C51   S    
O64   C115  S    
C5    H1    S    
C31   C95   S    
C7    H3    S    
Cr10  O38   S    
C109  H49   S    
C37   O65   S    
C97   H19   S    
Cr2   O2    S    
C60   C68   T    
O72   C127  S    
C22   C26   S    
C14   O58   S    
C36   C43   S    
C94   O54   S    
C89   C90   S    
C14   C94   S    
C102  H31   S    
C14   C18   S    
C8    C96   S    
O58   C103  S    
C7    C11   S    
C115  H64   S    
C72   O4    A    
C69   O37   A    
C116  H66   S    
C122  H85   S    
C98   H21   S    
Cr9   O17   S    
Cr10  O14   S    
Cr3   O47   S    
C43   C79   S    
Cr1   O45   S    
C109  C110  S    
Cr5   O17   S    
C58   C66   T    
C20   C24   S    
C100  H27   S    
Cr8   O20   S    
C101  H29   S    
C18   C30   S    
C23   C27   S    
C5    C93   S    
C39   C52   S    
C37   C41   S    
C6    H2    S    
C77   O9    A    
C35   O71   S    
C113  H60   S    
C114  H62   S    
C36   C40   S    
Cr12  O16   S    
C105  H39   S    
C117  H70   S    
Cr2   O22   S    
O69   C121  S    
Cr10  O34   S    
C1    C32   S    
C99   H23   S    
C112  H57   S    
C3    C30   S    
Cr5   O29   S    
C101  C102  S    
C108  H46   S    
C67   C83   S    
Cr8   O32   S    
C35   C44   S    
C110  H52   S    
C46   C85   S    
C32   C96   S    
C42   C78   S    
C120  H79   S    
C75   O47   A    
C102  H33   S    
O70   C123  S    
C128  H100  S    
C34   C38   S    
C105  C106  S    
C25   H9    S    
Cr11  O35   S    
Cr12  O36   S    
C27   H11   S    
C106  H42   S    
C7    C95   S    
C3    O27   A    
Cr4   O44   S    
O56   C100  S    
C38   O66   S    
C124  H89   S    
C82   O14   A    
C103  C104  S    
C47   O31   A    
Cr4   O24   S    
Cr5   O25   S    
C104  H37   S    
C123  H87   S    
C73   O49   A    
C107  H44   S    
C74   O46   A    
O66   C118  S    
C38   C42   S    
C45   O29   A    
C84   O16   A    
C81   O41   A    
O62   C111  S    
